MODEL 1
REMARK VINA RESULT:      -5.5      0.000      0.000
REMARK  Name = 
REMARK  28 active torsions:
REMARK  status: ('A' for Active; 'I' for Inactive)
REMARK    1  A    between atoms: C_1  and  O_2
REMARK    2  A    between atoms: O_2  and  C_3
REMARK    3  A    between atoms: C_4  and  O_74
REMARK    4  A    between atoms: C_7  and  C_9
REMARK    5  A    between atoms: C_10  and  C_11
REMARK    6  A    between atoms: C_11  and  O_13
REMARK    7  A    between atoms: O_13  and  C_14
REMARK    8  A    between atoms: C_15  and  O_24
REMARK    9  A    between atoms: C_19  and  O_23
REMARK   10  A    between atoms: C_21  and  O_22
REMARK   11  A    between atoms: O_24  and  C_25
REMARK   12  A    between atoms: C_26  and  O_73
REMARK   13  A    between atoms: C_28  and  O_72
REMARK   14  A    between atoms: C_30  and  C_70
REMARK   15  A    between atoms: C_32  and  O_34
REMARK   16  A    between atoms: O_34  and  C_35
REMARK   17  A    between atoms: C_36  and  C_62
REMARK   18  A    between atoms: C_40  and  O_47
REMARK   19  A    between atoms: C_42  and  O_46
REMARK   20  A    between atoms: O_47  and  C_48
REMARK   21  A    between atoms: C_50  and  O_61
REMARK   22  A    between atoms: C_51  and  O_60
REMARK   23  A    between atoms: C_52  and  O_59
REMARK   24  A    between atoms: C_54  and  C_57
REMARK   25  A    between atoms: C_57  and  O_58
REMARK   26  A    between atoms: C_64  and  O_69
REMARK   27  A    between atoms: C_65  and  O_68
REMARK   28  A    between atoms: C_70  and  O_71
REMARK                            x       y       z     vdW  Elec       q    Type
REMARK                         _______ _______ _______ _____ _____    ______ ____
ROOT
ATOM      1  O   UNL     1       5.674  -2.591  27.496  0.00  0.00    -0.453 OA
ENDROOT
BRANCH   1   2
ATOM      2  C   UNL     1       5.353  -1.338  26.993  0.00  0.00    +0.214 A 
ATOM      3  C   UNL     1       4.980  -0.175  27.892  0.00  0.00    +0.238 A 
ATOM      4  O   UNL     1       5.027  -0.289  29.113  0.00  0.00    -0.283 OA
ATOM      5  C   UNL     1       4.507   1.088  27.241  0.00  0.00    +0.109 A 
ATOM      6  C   UNL     1       4.414   1.106  25.859  0.00  0.00    +0.147 A 
ATOM      7  C   UNL     1       3.903   2.211  25.149  0.00  0.00    +0.093 A 
ATOM      8  C   UNL     1       3.443   3.336  25.823  0.00  0.00    +0.131 A 
ATOM      9  C   UNL     1       3.579   3.356  27.215  0.00  0.00    +0.092 A 
ATOM     10  O   UNL     1       4.796   0.055  25.090  0.00  0.00    -0.451 OA
ATOM     11  C   UNL     1       4.100   2.246  27.915  0.00  0.00    +0.135 A 
ATOM     12  C   UNL     1       5.245  -1.128  25.659  0.00  0.00    +0.181 A 
BRANCH  12  13
ATOM     13  C   UNL     1       5.556  -2.043  24.521  0.00  0.00    +0.025 A 
ATOM     14  C   UNL     1       6.447  -1.510  23.560  0.00  0.00    +0.015 A 
ATOM     15  C   UNL     1       6.465  -1.967  22.243  0.00  0.00    +0.050 A 
ATOM     16  C   UNL     1       5.638  -3.014  21.891  0.00  0.00    +0.158 A 
ATOM     17  C   UNL     1       4.865  -3.658  22.855  0.00  0.00    +0.159 A 
ATOM     18  C   UNL     1       4.800  -3.173  24.171  0.00  0.00    +0.060 A 
BRANCH  17  19
ATOM     19  O   UNL     1       4.134  -4.738  22.437  0.00  0.00    -0.503 OA
ATOM     20  H   UNL     1       4.485  -5.527  22.884  0.00  0.00    +0.292 HD
ENDBRANCH  17  19
BRANCH  16  21
ATOM     21  O   UNL     1       5.560  -3.376  20.577  0.00  0.00    -0.503 OA
ATOM     22  H   UNL     1       6.429  -3.139  20.198  0.00  0.00    +0.292 HD
ENDBRANCH  16  21
ENDBRANCH  12  13
BRANCH  11  23
ATOM     23  O   UNL     1       4.186   2.333  29.277  0.00  0.00    -0.506 OA
ATOM     24  H   UNL     1       3.309   2.211  29.679  0.00  0.00    +0.292 HD
ENDBRANCH  11  23
BRANCH   8  25
ATOM     25  O   UNL     1       2.870   4.324  25.045  0.00  0.00    -0.461 OA
BRANCH  25  26
ATOM     26  C   UNL     1       3.039   4.164  23.622  0.00  0.00    +0.339 C 
ATOM     27  O   UNL     1       4.133   4.950  23.137  0.00  0.00    -0.331 OA
ATOM     28  C   UNL     1       3.873   6.367  23.163  0.00  0.00    +0.179 C 
ATOM     29  C   UNL     1       2.735   6.705  22.193  0.00  0.00    +0.177 C 
ATOM     30  C   UNL     1       1.474   5.960  22.634  0.00  0.00    +0.180 C 
ATOM     31  C   UNL     1       1.752   4.456  22.802  0.00  0.00    +0.214 C 
BRANCH  31  32
ATOM     32  O   UNL     1       0.596   3.781  23.310  0.00  0.00    -0.383 OA
ATOM     33  H   UNL     1       0.406   4.131  24.199  0.00  0.00    +0.210 HD
ENDBRANCH  31  32
BRANCH  30  34
ATOM     34  O   UNL     1       0.444   6.202  21.659  0.00  0.00    -0.386 OA
ATOM     35  H   UNL     1      -0.211   5.482  21.728  0.00  0.00    +0.210 HD
ENDBRANCH  30  34
BRANCH  29  36
ATOM     36  O   UNL     1       3.080   6.304  20.858  0.00  0.00    -0.386 OA
ATOM     37  H   UNL     1       2.670   6.957  20.260  0.00  0.00    +0.210 HD
ENDBRANCH  29  36
BRANCH  28  38
ATOM     38  C   UNL     1       5.163   7.108  22.792  0.00  0.00    +0.190 C 
BRANCH  38  39
ATOM     39  O   UNL     1       5.629   6.731  21.494  0.00  0.00    -0.392 OA
ATOM     40  H   UNL     1       5.245   7.335  20.838  0.00  0.00    +0.210 HD
ENDBRANCH  38  39
ENDBRANCH  28  38
ENDBRANCH  25  26
ENDBRANCH   8  25
ENDBRANCH   1   2
BRANCH   1  42
ATOM     41  C   UNL     1       4.989  -4.808  26.742  0.00  0.00    +0.221 C 
ATOM     42  C   UNL     1       4.699  -3.639  27.759  0.00  0.00    +0.340 C 
ATOM     43  O   UNL     1       4.890  -4.073  29.115  0.00  0.00    -0.331 OA
ATOM     44  C   UNL     1       4.117  -5.204  29.535  0.00  0.00    +0.179 C 
ATOM     45  C   UNL     1       4.314  -6.420  28.629  0.00  0.00    +0.177 C 
ATOM     46  C   UNL     1       4.194  -6.082  27.137  0.00  0.00    +0.180 C 
BRANCH  46  47
ATOM     47  O   UNL     1       4.597  -7.261  26.423  0.00  0.00    -0.386 OA
ATOM     48  H   UNL     1       4.376  -8.070  26.929  0.00  0.00    +0.210 HD
ENDBRANCH  46  47
BRANCH  45  49
ATOM     49  O   UNL     1       3.373  -7.446  28.989  0.00  0.00    -0.386 OA
ATOM     50  H   UNL     1       2.837  -7.625  28.194  0.00  0.00    +0.210 HD
ENDBRANCH  45  49
BRANCH  41  51
ATOM     51  O   UNL     1       6.433  -4.980  26.650  0.00  0.00    -0.336 OA
BRANCH  51  57
ATOM     52  C   UNL     1       8.454  -3.459  26.525  0.00  0.00    +0.263 C 
ATOM     53  C   UNL     1       9.520  -4.550  26.706  0.00  0.00    +0.191 C 
ATOM     54  C   UNL     1       9.832  -5.245  25.380  0.00  0.00    +0.172 C 
ATOM     55  C   UNL     1       8.535  -5.717  24.719  0.00  0.00    +0.197 C 
ATOM     56  O   UNL     1       7.569  -4.668  24.605  0.00  0.00    -0.345 OA
ATOM     57  C   UNL     1       7.182  -4.052  25.857  0.00  0.00    +0.294 C 
BRANCH  54  58
ATOM     58  O   UNL     1      10.529  -4.366  24.492  0.00  0.00    -0.387 OA
ATOM     59  H   UNL     1      10.368  -4.686  23.584  0.00  0.00    +0.210 HD
ENDBRANCH  54  58
BRANCH  53  60
ATOM     60  O   UNL     1       9.116  -5.518  27.685  0.00  0.00    -0.385 OA
ATOM     61  H   UNL     1       9.680  -6.314  27.600  0.00  0.00    +0.210 HD
ENDBRANCH  53  60
BRANCH  52  62
ATOM     62  O   UNL     1       8.986  -2.396  25.676  0.00  0.00    -0.450 OA
BRANCH  62  63
ATOM     63  C   UNL     1       9.013  -1.188  26.272  0.00  0.00    +0.332 C 
ATOM     64  O   UNL     1       9.015  -0.996  27.478  0.00  0.00    -0.246 OA
BRANCH  63  66
ATOM     65  C   UNL     1       8.213   0.921  25.376  0.00  0.00    +0.015 C 
ATOM     66  C   UNL     1       9.044  -0.126  25.247  0.00  0.00    +0.092 C 
BRANCH  65  69
ATOM     67  C   UNL     1       8.234   4.498  24.041  0.00  0.00    +0.162 A 
ATOM     68  C   UNL     1       8.299   3.414  24.934  0.00  0.00    +0.057 A 
ATOM     69  C   UNL     1       8.166   2.091  24.487  0.00  0.00    -0.021 A 
ATOM     70  C   UNL     1       8.012   1.863  23.112  0.00  0.00    +0.012 A 
ATOM     71  C   UNL     1       7.943   2.925  22.217  0.00  0.00    +0.050 A 
ATOM     72  C   UNL     1       8.024   4.236  22.685  0.00  0.00    +0.158 A 
BRANCH  72  73
ATOM     73  O   UNL     1       7.817   5.211  21.753  0.00  0.00    -0.503 OA
ATOM     74  H   UNL     1       8.520   5.867  21.897  0.00  0.00    +0.292 HD
ENDBRANCH  72  73
BRANCH  67  76
ATOM     75  C   UNL     1       8.655   5.769  26.018  0.00  0.00    +0.277 C 
ATOM     76  O   UNL     1       8.314   5.729  24.635  0.00  0.00    -0.491 OA
ENDBRANCH  67  76
ENDBRANCH  65  69
ENDBRANCH  63  66
ENDBRANCH  62  63
ENDBRANCH  52  62
ENDBRANCH  51  57
ENDBRANCH  41  51
BRANCH  44  77
ATOM     77  C   UNL     1       2.640  -4.881  29.845  0.00  0.00    +0.190 C 
BRANCH  77  78
ATOM     78  O   UNL     1       2.508  -3.601  30.467  0.00  0.00    -0.392 OA
ATOM     79  H   UNL     1       1.865  -3.692  31.193  0.00  0.00    +0.210 HD
ENDBRANCH  77  78
ENDBRANCH  44  77
ENDBRANCH   1  42
TORSDOF 27
ENDMDL
MODEL 2
REMARK VINA RESULT:      -5.5      2.858      9.633
REMARK  Name = 
REMARK  28 active torsions:
REMARK  status: ('A' for Active; 'I' for Inactive)
REMARK    1  A    between atoms: C_1  and  O_2
REMARK    2  A    between atoms: O_2  and  C_3
REMARK    3  A    between atoms: C_4  and  O_74
REMARK    4  A    between atoms: C_7  and  C_9
REMARK    5  A    between atoms: C_10  and  C_11
REMARK    6  A    between atoms: C_11  and  O_13
REMARK    7  A    between atoms: O_13  and  C_14
REMARK    8  A    between atoms: C_15  and  O_24
REMARK    9  A    between atoms: C_19  and  O_23
REMARK   10  A    between atoms: C_21  and  O_22
REMARK   11  A    between atoms: O_24  and  C_25
REMARK   12  A    between atoms: C_26  and  O_73
REMARK   13  A    between atoms: C_28  and  O_72
REMARK   14  A    between atoms: C_30  and  C_70
REMARK   15  A    between atoms: C_32  and  O_34
REMARK   16  A    between atoms: O_34  and  C_35
REMARK   17  A    between atoms: C_36  and  C_62
REMARK   18  A    between atoms: C_40  and  O_47
REMARK   19  A    between atoms: C_42  and  O_46
REMARK   20  A    between atoms: O_47  and  C_48
REMARK   21  A    between atoms: C_50  and  O_61
REMARK   22  A    between atoms: C_51  and  O_60
REMARK   23  A    between atoms: C_52  and  O_59
REMARK   24  A    between atoms: C_54  and  C_57
REMARK   25  A    between atoms: C_57  and  O_58
REMARK   26  A    between atoms: C_64  and  O_69
REMARK   27  A    between atoms: C_65  and  O_68
REMARK   28  A    between atoms: C_70  and  O_71
REMARK                            x       y       z     vdW  Elec       q    Type
REMARK                         _______ _______ _______ _____ _____    ______ ____
ROOT
ATOM      1  O   UNL     1       6.064   1.483  25.153  0.00  0.00    -0.453 OA
ENDROOT
BRANCH   1   2
ATOM      2  C   UNL     1       5.558   0.191  25.140  0.00  0.00    +0.214 A 
ATOM      3  C   UNL     1       6.023  -0.852  24.142  0.00  0.00    +0.238 A 
ATOM      4  O   UNL     1       6.932  -0.602  23.356  0.00  0.00    -0.283 OA
ATOM      5  C   UNL     1       5.306  -2.166  24.119  0.00  0.00    +0.109 A 
ATOM      6  C   UNL     1       4.243  -2.337  24.992  0.00  0.00    +0.147 A 
ATOM      7  C   UNL     1       3.448  -3.500  24.996  0.00  0.00    +0.093 A 
ATOM      8  C   UNL     1       3.688  -4.528  24.092  0.00  0.00    +0.131 A 
ATOM      9  C   UNL     1       4.790  -4.395  23.241  0.00  0.00    +0.092 A 
ATOM     10  O   UNL     1       3.884  -1.391  25.895  0.00  0.00    -0.451 OA
ATOM     11  C   UNL     1       5.586  -3.228  23.250  0.00  0.00    +0.135 A 
ATOM     12  C   UNL     1       4.531  -0.164  25.950  0.00  0.00    +0.181 A 
BRANCH  12  13
ATOM     13  C   UNL     1       3.866   0.607  27.041  0.00  0.00    +0.025 A 
ATOM     14  C   UNL     1       4.036   0.066  28.336  0.00  0.00    +0.015 A 
ATOM     15  C   UNL     1       3.129   0.322  29.364  0.00  0.00    +0.050 A 
ATOM     16  C   UNL     1       2.077   1.182  29.123  0.00  0.00    +0.158 A 
ATOM     17  C   UNL     1       1.975   1.849  27.904  0.00  0.00    +0.159 A 
ATOM     18  C   UNL     1       2.851   1.558  26.847  0.00  0.00    +0.060 A 
BRANCH  17  19
ATOM     19  O   UNL     1       0.947   2.744  27.776  0.00  0.00    -0.503 OA
ATOM     20  H   UNL     1       1.195   3.388  27.092  0.00  0.00    +0.292 HD
ENDBRANCH  17  19
BRANCH  16  21
ATOM     21  O   UNL     1       1.119   1.333  30.084  0.00  0.00    -0.503 OA
ATOM     22  H   UNL     1       1.231   2.247  30.410  0.00  0.00    +0.292 HD
ENDBRANCH  16  21
ENDBRANCH  12  13
BRANCH  11  23
ATOM     23  O   UNL     1       6.635  -3.163  22.376  0.00  0.00    -0.506 OA
ATOM     24  H   UNL     1       6.406  -2.603  21.616  0.00  0.00    +0.292 HD
ENDBRANCH  11  23
BRANCH   8  25
ATOM     25  O   UNL     1       2.793  -5.580  24.110  0.00  0.00    -0.461 OA
BRANCH  25  26
ATOM     26  C   UNL     1       3.364  -6.872  24.401  0.00  0.00    +0.339 C 
ATOM     27  O   UNL     1       2.835  -7.881  23.534  0.00  0.00    -0.331 OA
ATOM     28  C   UNL     1       1.455  -8.194  23.800  0.00  0.00    +0.179 C 
ATOM     29  C   UNL     1       1.322  -8.817  25.194  0.00  0.00    +0.177 C 
ATOM     30  C   UNL     1       1.811  -7.808  26.233  0.00  0.00    +0.180 C 
ATOM     31  C   UNL     1       3.221  -7.300  25.888  0.00  0.00    +0.214 C 
BRANCH  31  32
ATOM     32  O   UNL     1       3.633  -6.282  26.808  0.00  0.00    -0.383 OA
ATOM     33  H   UNL     1       4.476  -5.910  26.492  0.00  0.00    +0.210 HD
ENDBRANCH  31  32
BRANCH  30  34
ATOM     34  O   UNL     1       1.779  -8.441  27.526  0.00  0.00    -0.386 OA
ATOM     35  H   UNL     1       2.067  -9.366  27.415  0.00  0.00    +0.210 HD
ENDBRANCH  30  34
BRANCH  29  36
ATOM     36  O   UNL     1       2.112 -10.013  25.285  0.00  0.00    -0.386 OA
ATOM     37  H   UNL     1       2.263 -10.314  24.370  0.00  0.00    +0.210 HD
ENDBRANCH  29  36
BRANCH  28  38
ATOM     38  C   UNL     1       0.952  -9.149  22.710  0.00  0.00    +0.190 C 
BRANCH  38  39
ATOM     39  O   UNL     1       1.394  -8.745  21.413  0.00  0.00    -0.392 OA
ATOM     40  H   UNL     1       1.826  -7.878  21.487  0.00  0.00    +0.210 HD
ENDBRANCH  38  39
ENDBRANCH  28  38
ENDBRANCH  25  26
ENDBRANCH   8  25
ENDBRANCH   1   2
BRANCH   1  42
ATOM     41  C   UNL     1       6.836   3.521  24.055  0.00  0.00    +0.221 C 
ATOM     42  C   UNL     1       7.076   1.972  24.229  0.00  0.00    +0.340 C 
ATOM     43  O   UNL     1       8.359   1.712  24.820  0.00  0.00    -0.331 OA
ATOM     44  C   UNL     1       9.497   2.245  24.132  0.00  0.00    +0.179 C 
ATOM     45  C   UNL     1       9.392   3.753  23.902  0.00  0.00    +0.177 C 
ATOM     46  C   UNL     1       8.037   4.178  23.323  0.00  0.00    +0.180 C 
BRANCH  46  47
ATOM     47  O   UNL     1       8.017   5.614  23.355  0.00  0.00    -0.386 OA
ATOM     48  H   UNL     1       7.952   5.943  24.275  0.00  0.00    +0.210 HD
ENDBRANCH  46  47
BRANCH  45  49
ATOM     49  O   UNL     1      10.463   4.185  23.045  0.00  0.00    -0.386 OA
ATOM     50  H   UNL     1      10.899   4.930  23.498  0.00  0.00    +0.210 HD
ENDBRANCH  45  49
BRANCH  41  51
ATOM     51  O   UNL     1       6.522   4.080  25.363  0.00  0.00    -0.336 OA
BRANCH  51  57
ATOM     52  C   UNL     1       7.034   3.064  27.626  0.00  0.00    +0.263 C 
ATOM     53  C   UNL     1       7.062   4.378  28.419  0.00  0.00    +0.191 C 
ATOM     54  C   UNL     1       5.652   4.814  28.818  0.00  0.00    +0.172 C 
ATOM     55  C   UNL     1       4.739   4.824  27.590  0.00  0.00    +0.197 C 
ATOM     56  O   UNL     1       4.777   3.586  26.874  0.00  0.00    -0.345 OA
ATOM     57  C   UNL     1       6.087   3.192  26.399  0.00  0.00    +0.294 C 
BRANCH  54  58
ATOM     58  O   UNL     1       5.107   3.940  29.812  0.00  0.00    -0.387 OA
ATOM     59  H   UNL     1       4.245   4.312  30.082  0.00  0.00    +0.210 HD
ENDBRANCH  54  58
BRANCH  53  60
ATOM     60  O   UNL     1       7.708   5.423  27.676  0.00  0.00    -0.385 OA
ATOM     61  H   UNL     1       8.679   5.320  27.758  0.00  0.00    +0.210 HD
ENDBRANCH  53  60
BRANCH  52  62
ATOM     62  O   UNL     1       6.553   1.986  28.488  0.00  0.00    -0.450 OA
BRANCH  62  63
ATOM     63  C   UNL     1       7.508   1.102  28.835  0.00  0.00    +0.332 C 
ATOM     64  O   UNL     1       8.302   1.244  29.751  0.00  0.00    -0.246 OA
BRANCH  63  66
ATOM     65  C   UNL     1       8.549  -0.402  27.238  0.00  0.00    +0.015 C 
ATOM     66  C   UNL     1       7.452  -0.071  27.939  0.00  0.00    +0.092 C 
BRANCH  65  69
ATOM     67  C   UNL     1       9.583  -2.750  24.412  0.00  0.00    +0.162 A 
ATOM     68  C   UNL     1       9.503  -1.605  25.223  0.00  0.00    +0.057 A 
ATOM     69  C   UNL     1       8.682  -1.574  26.360  0.00  0.00    -0.021 A 
ATOM     70  C   UNL     1       7.971  -2.733  26.704  0.00  0.00    +0.012 A 
ATOM     71  C   UNL     1       8.039  -3.872  25.908  0.00  0.00    +0.050 A 
ATOM     72  C   UNL     1       8.819  -3.868  24.752  0.00  0.00    +0.158 A 
BRANCH  72  73
ATOM     73  O   UNL     1       8.721  -4.981  23.969  0.00  0.00    -0.503 OA
ATOM     74  H   UNL     1       9.380  -4.865  23.262  0.00  0.00    +0.292 HD
ENDBRANCH  72  73
BRANCH  67  76
ATOM     75  C   UNL     1       9.872  -1.798  22.241  0.00  0.00    +0.277 C 
ATOM     76  O   UNL     1      10.373  -2.605  23.303  0.00  0.00    -0.491 OA
ENDBRANCH  67  76
ENDBRANCH  65  69
ENDBRANCH  63  66
ENDBRANCH  62  63
ENDBRANCH  52  62
ENDBRANCH  51  57
ENDBRANCH  41  51
BRANCH  44  77
ATOM     77  C   UNL     1       9.910   1.443  22.879  0.00  0.00    +0.190 C 
BRANCH  77  78
ATOM     78  O   UNL     1       9.462   2.082  21.682  0.00  0.00    -0.392 OA
ATOM     79  H   UNL     1       8.897   1.449  21.204  0.00  0.00    +0.210 HD
ENDBRANCH  77  78
ENDBRANCH  44  77
ENDBRANCH   1  42
TORSDOF 27
ENDMDL
MODEL 3
REMARK VINA RESULT:      -5.2      1.989      8.803
REMARK  Name = 
REMARK  28 active torsions:
REMARK  status: ('A' for Active; 'I' for Inactive)
REMARK    1  A    between atoms: C_1  and  O_2
REMARK    2  A    between atoms: O_2  and  C_3
REMARK    3  A    between atoms: C_4  and  O_74
REMARK    4  A    between atoms: C_7  and  C_9
REMARK    5  A    between atoms: C_10  and  C_11
REMARK    6  A    between atoms: C_11  and  O_13
REMARK    7  A    between atoms: O_13  and  C_14
REMARK    8  A    between atoms: C_15  and  O_24
REMARK    9  A    between atoms: C_19  and  O_23
REMARK   10  A    between atoms: C_21  and  O_22
REMARK   11  A    between atoms: O_24  and  C_25
REMARK   12  A    between atoms: C_26  and  O_73
REMARK   13  A    between atoms: C_28  and  O_72
REMARK   14  A    between atoms: C_30  and  C_70
REMARK   15  A    between atoms: C_32  and  O_34
REMARK   16  A    between atoms: O_34  and  C_35
REMARK   17  A    between atoms: C_36  and  C_62
REMARK   18  A    between atoms: C_40  and  O_47
REMARK   19  A    between atoms: C_42  and  O_46
REMARK   20  A    between atoms: O_47  and  C_48
REMARK   21  A    between atoms: C_50  and  O_61
REMARK   22  A    between atoms: C_51  and  O_60
REMARK   23  A    between atoms: C_52  and  O_59
REMARK   24  A    between atoms: C_54  and  C_57
REMARK   25  A    between atoms: C_57  and  O_58
REMARK   26  A    between atoms: C_64  and  O_69
REMARK   27  A    between atoms: C_65  and  O_68
REMARK   28  A    between atoms: C_70  and  O_71
REMARK                            x       y       z     vdW  Elec       q    Type
REMARK                         _______ _______ _______ _____ _____    ______ ____
ROOT
ATOM      1  O   UNL     1       4.850   2.113  26.293  0.00  0.00    -0.453 OA
ENDROOT
BRANCH   1   2
ATOM      2  C   UNL     1       4.959   0.737  26.438  0.00  0.00    +0.214 A 
ATOM      3  C   UNL     1       3.759  -0.146  26.724  0.00  0.00    +0.238 A 
ATOM      4  O   UNL     1       2.629   0.330  26.759  0.00  0.00    -0.283 OA
ATOM      5  C   UNL     1       4.009  -1.594  27.010  0.00  0.00    +0.109 A 
ATOM      6  C   UNL     1       5.324  -2.032  27.022  0.00  0.00    +0.147 A 
ATOM      7  C   UNL     1       5.678  -3.353  27.361  0.00  0.00    +0.093 A 
ATOM      8  C   UNL     1       4.706  -4.277  27.725  0.00  0.00    +0.131 A 
ATOM      9  C   UNL     1       3.370  -3.867  27.666  0.00  0.00    +0.092 A 
ATOM     10  O   UNL     1       6.365  -1.216  26.722  0.00  0.00    -0.451 OA
ATOM     11  C   UNL     1       3.026  -2.542  27.318  0.00  0.00    +0.135 A 
ATOM     12  C   UNL     1       6.170   0.130  26.445  0.00  0.00    +0.181 A 
BRANCH  12  13
ATOM     13  C   UNL     1       7.524   0.699  26.178  0.00  0.00    +0.025 A 
ATOM     14  C   UNL     1       7.538   2.086  25.899  0.00  0.00    +0.015 A 
ATOM     15  C   UNL     1       8.564   2.676  25.163  0.00  0.00    +0.050 A 
ATOM     16  C   UNL     1       9.626   1.894  24.756  0.00  0.00    +0.158 A 
ATOM     17  C   UNL     1       9.712   0.560  25.151  0.00  0.00    +0.159 A 
ATOM     18  C   UNL     1       8.660  -0.056  25.847  0.00  0.00    +0.060 A 
BRANCH  17  19
ATOM     19  O   UNL     1      10.837  -0.122  24.772  0.00  0.00    -0.503 OA
ATOM     20  H   UNL     1      10.695  -1.064  24.969  0.00  0.00    +0.292 HD
ENDBRANCH  17  19
BRANCH  16  21
ATOM     21  O   UNL     1      10.564   2.440  23.929  0.00  0.00    -0.503 OA
ATOM     22  H   UNL     1      10.080   3.104  23.401  0.00  0.00    +0.292 HD
ENDBRANCH  16  21
ENDBRANCH  12  13
BRANCH  11  23
ATOM     23  O   UNL     1       1.700  -2.211  27.299  0.00  0.00    -0.506 OA
ATOM     24  H   UNL     1       1.165  -2.975  27.026  0.00  0.00    +0.292 HD
ENDBRANCH  11  23
BRANCH   8  25
ATOM     25  O   UNL     1       5.162  -5.516  28.134  0.00  0.00    -0.461 OA
BRANCH  25  26
ATOM     26  C   UNL     1       5.285  -6.504  27.092  0.00  0.00    +0.339 C 
ATOM     27  O   UNL     1       6.476  -6.303  26.323  0.00  0.00    -0.331 OA
ATOM     28  C   UNL     1       6.428  -5.125  25.496  0.00  0.00    +0.179 C 
ATOM     29  C   UNL     1       5.339  -5.282  24.429  0.00  0.00    +0.177 C 
ATOM     30  C   UNL     1       3.988  -5.456  25.125  0.00  0.00    +0.180 C 
ATOM     31  C   UNL     1       4.043  -6.591  26.162  0.00  0.00    +0.214 C 
BRANCH  31  32
ATOM     32  O   UNL     1       2.807  -6.682  26.880  0.00  0.00    -0.383 OA
ATOM     33  H   UNL     1       2.412  -5.793  26.918  0.00  0.00    +0.210 HD
ENDBRANCH  31  32
BRANCH  30  34
ATOM     34  O   UNL     1       2.991  -5.706  24.119  0.00  0.00    -0.386 OA
ATOM     35  H   UNL     1       3.198  -5.150  23.345  0.00  0.00    +0.210 HD
ENDBRANCH  30  34
BRANCH  29  36
ATOM     36  O   UNL     1       5.601  -6.433  23.612  0.00  0.00    -0.386 OA
ATOM     37  H   UNL     1       4.732  -6.820  23.393  0.00  0.00    +0.210 HD
ENDBRANCH  29  36
BRANCH  28  38
ATOM     38  C   UNL     1       7.808  -4.918  24.859  0.00  0.00    +0.190 C 
BRANCH  38  39
ATOM     39  O   UNL     1       7.713  -4.745  23.444  0.00  0.00    -0.392 OA
ATOM     40  H   UNL     1       7.256  -3.908  23.263  0.00  0.00    +0.210 HD
ENDBRANCH  38  39
ENDBRANCH  28  38
ENDBRANCH  25  26
ENDBRANCH   8  25
ENDBRANCH   1   2
BRANCH   1  42
ATOM     41  C   UNL     1       5.005   4.500  26.774  0.00  0.00    +0.221 C 
ATOM     42  C   UNL     1       4.902   3.056  27.400  0.00  0.00    +0.340 C 
ATOM     43  O   UNL     1       3.688   2.904  28.152  0.00  0.00    -0.331 OA
ATOM     44  C   UNL     1       3.473   3.844  29.212  0.00  0.00    +0.179 C 
ATOM     45  C   UNL     1       3.542   5.295  28.734  0.00  0.00    +0.177 C 
ATOM     46  C   UNL     1       4.771   5.582  27.863  0.00  0.00    +0.180 C 
BRANCH  46  47
ATOM     47  O   UNL     1       4.591   6.905  27.334  0.00  0.00    -0.386 OA
ATOM     48  H   UNL     1       5.449   7.371  27.256  0.00  0.00    +0.210 HD
ENDBRANCH  46  47
BRANCH  45  49
ATOM     49  O   UNL     1       3.512   6.177  29.869  0.00  0.00    -0.386 OA
ATOM     50  H   UNL     1       3.443   7.084  29.516  0.00  0.00    +0.210 HD
ENDBRANCH  45  49
BRANCH  41  51
ATOM     51  O   UNL     1       4.103   4.563  25.631  0.00  0.00    -0.336 OA
BRANCH  51  57
ATOM     52  C   UNL     1       5.000   4.385  23.269  0.00  0.00    +0.263 C 
ATOM     53  C   UNL     1       3.811   3.616  22.675  0.00  0.00    +0.191 C 
ATOM     54  C   UNL     1       2.678   4.565  22.284  0.00  0.00    +0.172 C 
ATOM     55  C   UNL     1       2.330   5.478  23.462  0.00  0.00    +0.197 C 
ATOM     56  O   UNL     1       3.479   6.143  23.994  0.00  0.00    -0.345 OA
ATOM     57  C   UNL     1       4.533   5.268  24.461  0.00  0.00    +0.294 C 
BRANCH  54  58
ATOM     58  O   UNL     1       3.044   5.362  21.153  0.00  0.00    -0.387 OA
ATOM     59  H   UNL     1       3.680   6.034  21.467  0.00  0.00    +0.210 HD
ENDBRANCH  54  58
BRANCH  53  60
ATOM     60  O   UNL     1       3.325   2.620  23.587  0.00  0.00    -0.385 OA
ATOM     61  H   UNL     1       2.999   3.062  24.399  0.00  0.00    +0.210 HD
ENDBRANCH  53  60
BRANCH  52  62
ATOM     62  O   UNL     1       5.586   5.243  22.242  0.00  0.00    -0.450 OA
BRANCH  62  63
ATOM     63  C   UNL     1       6.933   5.212  22.213  0.00  0.00    +0.332 C 
ATOM     64  O   UNL     1       7.655   6.158  21.941  0.00  0.00    -0.246 OA
BRANCH  63  66
ATOM     65  C   UNL     1       7.201   2.855  21.694  0.00  0.00    +0.015 C 
ATOM     66  C   UNL     1       7.408   3.858  22.563  0.00  0.00    +0.092 C 
BRANCH  65  69
ATOM     67  C   UNL     1       7.419  -0.842  22.616  0.00  0.00    +0.162 A 
ATOM     68  C   UNL     1       6.916   0.463  22.477  0.00  0.00    +0.057 A 
ATOM     69  C   UNL     1       7.669   1.471  21.857  0.00  0.00    -0.021 A 
ATOM     70  C   UNL     1       8.926   1.140  21.330  0.00  0.00    +0.012 A 
ATOM     71  C   UNL     1       9.436  -0.147  21.464  0.00  0.00    +0.050 A 
ATOM     72  C   UNL     1       8.696  -1.124  22.129  0.00  0.00    +0.158 A 
BRANCH  72  73
ATOM     73  O   UNL     1       9.332  -2.316  22.324  0.00  0.00    -0.503 OA
ATOM     74  H   UNL     1       8.965  -2.922  21.657  0.00  0.00    +0.292 HD
ENDBRANCH  72  73
BRANCH  67  76
ATOM     75  C   UNL     1       5.748  -2.546  22.534  0.00  0.00    +0.277 C 
ATOM     76  O   UNL     1       6.596  -1.697  23.301  0.00  0.00    -0.491 OA
ENDBRANCH  67  76
ENDBRANCH  65  69
ENDBRANCH  63  66
ENDBRANCH  62  63
ENDBRANCH  52  62
ENDBRANCH  51  57
ENDBRANCH  41  51
BRANCH  44  77
ATOM     77  C   UNL     1       4.299   3.560  30.485  0.00  0.00    +0.190 C 
BRANCH  77  78
ATOM     78  O   UNL     1       5.602   4.141  30.400  0.00  0.00    -0.392 OA
ATOM     79  H   UNL     1       5.994   4.114  31.291  0.00  0.00    +0.210 HD
ENDBRANCH  77  78
ENDBRANCH  44  77
ENDBRANCH   1  42
TORSDOF 27
ENDMDL
MODEL 4
REMARK VINA RESULT:      -5.1      2.542      8.511
REMARK  Name = 
REMARK  28 active torsions:
REMARK  status: ('A' for Active; 'I' for Inactive)
REMARK    1  A    between atoms: C_1  and  O_2
REMARK    2  A    between atoms: O_2  and  C_3
REMARK    3  A    between atoms: C_4  and  O_74
REMARK    4  A    between atoms: C_7  and  C_9
REMARK    5  A    between atoms: C_10  and  C_11
REMARK    6  A    between atoms: C_11  and  O_13
REMARK    7  A    between atoms: O_13  and  C_14
REMARK    8  A    between atoms: C_15  and  O_24
REMARK    9  A    between atoms: C_19  and  O_23
REMARK   10  A    between atoms: C_21  and  O_22
REMARK   11  A    between atoms: O_24  and  C_25
REMARK   12  A    between atoms: C_26  and  O_73
REMARK   13  A    between atoms: C_28  and  O_72
REMARK   14  A    between atoms: C_30  and  C_70
REMARK   15  A    between atoms: C_32  and  O_34
REMARK   16  A    between atoms: O_34  and  C_35
REMARK   17  A    between atoms: C_36  and  C_62
REMARK   18  A    between atoms: C_40  and  O_47
REMARK   19  A    between atoms: C_42  and  O_46
REMARK   20  A    between atoms: O_47  and  C_48
REMARK   21  A    between atoms: C_50  and  O_61
REMARK   22  A    between atoms: C_51  and  O_60
REMARK   23  A    between atoms: C_52  and  O_59
REMARK   24  A    between atoms: C_54  and  C_57
REMARK   25  A    between atoms: C_57  and  O_58
REMARK   26  A    between atoms: C_64  and  O_69
REMARK   27  A    between atoms: C_65  and  O_68
REMARK   28  A    between atoms: C_70  and  O_71
REMARK                            x       y       z     vdW  Elec       q    Type
REMARK                         _______ _______ _______ _____ _____    ______ ____
ROOT
ATOM      1  O   UNL     1       5.769   0.690  26.171  0.00  0.00    -0.453 OA
ENDROOT
BRANCH   1   2
ATOM      2  C   UNL     1       5.445  -0.653  26.041  0.00  0.00    +0.214 A 
ATOM      3  C   UNL     1       4.298  -1.287  26.806  0.00  0.00    +0.238 A 
ATOM      4  O   UNL     1       3.565  -0.603  27.512  0.00  0.00    -0.283 OA
ATOM      5  C   UNL     1       4.130  -2.772  26.708  0.00  0.00    +0.109 A 
ATOM      6  C   UNL     1       5.048  -3.476  25.946  0.00  0.00    +0.147 A 
ATOM      7  C   UNL     1       5.033  -4.882  25.853  0.00  0.00    +0.093 A 
ATOM      8  C   UNL     1       4.094  -5.630  26.553  0.00  0.00    +0.131 A 
ATOM      9  C   UNL     1       3.126  -4.932  27.283  0.00  0.00    +0.092 A 
ATOM     10  O   UNL     1       6.036  -2.864  25.247  0.00  0.00    -0.451 OA
ATOM     11  C   UNL     1       3.146  -3.522  27.364  0.00  0.00    +0.135 A 
ATOM     12  C   UNL     1       6.218  -1.490  25.309  0.00  0.00    +0.181 A 
BRANCH  12  13
ATOM     13  C   UNL     1       7.389  -1.186  24.434  0.00  0.00    +0.025 A 
ATOM     14  C   UNL     1       7.432  -1.925  23.228  0.00  0.00    +0.015 A 
ATOM     15  C   UNL     1       8.630  -2.156  22.553  0.00  0.00    +0.050 A 
ATOM     16  C   UNL     1       9.790  -1.592  23.043  0.00  0.00    +0.158 A 
ATOM     17  C   UNL     1       9.749  -0.733  24.140  0.00  0.00    +0.159 A 
ATOM     18  C   UNL     1       8.558  -0.536  24.857  0.00  0.00    +0.060 A 
BRANCH  17  19
ATOM     19  O   UNL     1      10.932  -0.153  24.512  0.00  0.00    -0.503 OA
ATOM     20  H   UNL     1      10.939   0.756  24.166  0.00  0.00    +0.292 HD
ENDBRANCH  17  19
BRANCH  16  21
ATOM     21  O   UNL     1      10.979  -1.923  22.459  0.00  0.00    -0.503 OA
ATOM     22  H   UNL     1      10.788  -1.962  21.502  0.00  0.00    +0.292 HD
ENDBRANCH  16  21
ENDBRANCH  12  13
BRANCH  11  23
ATOM     23  O   UNL     1       2.178  -2.911  28.111  0.00  0.00    -0.506 OA
ATOM     24  H   UNL     1       1.551  -2.445  27.533  0.00  0.00    +0.292 HD
ENDBRANCH  11  23
BRANCH   8  25
ATOM     25  O   UNL     1       4.224  -7.004  26.475  0.00  0.00    -0.461 OA
BRANCH  25  26
ATOM     26  C   UNL     1       3.560  -7.624  25.355  0.00  0.00    +0.339 C 
ATOM     27  O   UNL     1       4.290  -7.419  24.140  0.00  0.00    -0.331 OA
ATOM     28  C   UNL     1       4.256  -6.055  23.679  0.00  0.00    +0.179 C 
ATOM     29  C   UNL     1       2.822  -5.668  23.302  0.00  0.00    +0.177 C 
ATOM     30  C   UNL     1       1.935  -5.795  24.542  0.00  0.00    +0.180 C 
ATOM     31  C   UNL     1       2.079  -7.185  25.184  0.00  0.00    +0.214 C 
BRANCH  31  32
ATOM     32  O   UNL     1       1.325  -7.264  26.399  0.00  0.00    -0.383 OA
ATOM     33  H   UNL     1       0.412  -6.981  26.208  0.00  0.00    +0.210 HD
ENDBRANCH  31  32
BRANCH  30  34
ATOM     34  O   UNL     1       0.575  -5.530  24.152  0.00  0.00    -0.386 OA
ATOM     35  H   UNL     1       0.291  -4.707  24.592  0.00  0.00    +0.210 HD
ENDBRANCH  30  34
BRANCH  29  36
ATOM     36  O   UNL     1       2.323  -6.535  22.273  0.00  0.00    -0.386 OA
ATOM     37  H   UNL     1       1.592  -7.045  22.671  0.00  0.00    +0.210 HD
ENDBRANCH  29  36
BRANCH  28  38
ATOM     38  C   UNL     1       5.204  -5.921  22.481  0.00  0.00    +0.190 C 
BRANCH  38  39
ATOM     39  O   UNL     1       5.201  -4.592  21.955  0.00  0.00    -0.392 OA
ATOM     40  H   UNL     1       4.666  -4.579  21.144  0.00  0.00    +0.210 HD
ENDBRANCH  38  39
ENDBRANCH  28  38
ENDBRANCH  25  26
ENDBRANCH   8  25
ENDBRANCH   1   2
BRANCH   1  42
ATOM     41  C   UNL     1       4.349   2.669  26.013  0.00  0.00    +0.221 C 
ATOM     42  C   UNL     1       5.347   1.725  25.238  0.00  0.00    +0.340 C 
ATOM     43  O   UNL     1       6.523   2.441  24.829  0.00  0.00    -0.331 OA
ATOM     44  C   UNL     1       6.311   3.599  24.012  0.00  0.00    +0.179 C 
ATOM     45  C   UNL     1       5.358   4.607  24.657  0.00  0.00    +0.177 C 
ATOM     46  C   UNL     1       4.076   3.960  25.195  0.00  0.00    +0.180 C 
BRANCH  46  47
ATOM     47  O   UNL     1       3.390   4.980  25.937  0.00  0.00    -0.386 OA
ATOM     48  H   UNL     1       3.685   5.873  25.661  0.00  0.00    +0.210 HD
ENDBRANCH  46  47
BRANCH  45  49
ATOM     49  O   UNL     1       5.041   5.642  23.711  0.00  0.00    -0.386 OA
ATOM     50  H   UNL     1       5.891   5.968  23.359  0.00  0.00    +0.210 HD
ENDBRANCH  45  49
BRANCH  41  51
ATOM     51  O   UNL     1       4.877   2.882  27.354  0.00  0.00    -0.336 OA
BRANCH  51  57
ATOM     52  C   UNL     1       5.629   5.007  28.508  0.00  0.00    +0.263 C 
ATOM     53  C   UNL     1       5.523   4.485  29.949  0.00  0.00    +0.191 C 
ATOM     54  C   UNL     1       6.775   3.703  30.347  0.00  0.00    +0.172 C 
ATOM     55  C   UNL     1       7.081   2.633  29.296  0.00  0.00    +0.197 C 
ATOM     56  O   UNL     1       7.137   3.171  27.972  0.00  0.00    -0.345 OA
ATOM     57  C   UNL     1       5.930   3.838  27.529  0.00  0.00    +0.294 C 
BRANCH  54  58
ATOM     58  O   UNL     1       7.902   4.574  30.485  0.00  0.00    -0.387 OA
ATOM     59  H   UNL     1       8.219   4.779  29.584  0.00  0.00    +0.210 HD
ENDBRANCH  54  58
BRANCH  53  60
ATOM     60  O   UNL     1       4.356   3.667  30.123  0.00  0.00    -0.385 OA
ATOM     61  H   UNL     1       3.967   3.850  31.004  0.00  0.00    +0.210 HD
ENDBRANCH  53  60
BRANCH  52  62
ATOM     62  O   UNL     1       6.710   5.987  28.425  0.00  0.00    -0.450 OA
BRANCH  62  63
ATOM     63  C   UNL     1       6.918   6.460  27.181  0.00  0.00    +0.332 C 
ATOM     64  O   UNL     1       6.114   7.105  26.527  0.00  0.00    -0.246 OA
BRANCH  63  66
ATOM     65  C   UNL     1       8.530   6.082  25.405  0.00  0.00    +0.015 C 
ATOM     66  C   UNL     1       8.270   6.083  26.723  0.00  0.00    +0.092 C 
BRANCH  65  69
ATOM     67  C   UNL     1      11.344   4.495  23.371  0.00  0.00    +0.162 A 
ATOM     68  C   UNL     1      10.071   4.724  23.922  0.00  0.00    +0.057 A 
ATOM     69  C   UNL     1       9.835   5.801  24.790  0.00  0.00    -0.021 A 
ATOM     70  C   UNL     1      10.892   6.681  25.065  0.00  0.00    +0.012 A 
ATOM     71  C   UNL     1      12.157   6.465  24.529  0.00  0.00    +0.050 A 
ATOM     72  C   UNL     1      12.386   5.360  23.710  0.00  0.00    +0.158 A 
BRANCH  72  73
ATOM     73  O   UNL     1      13.684   5.159  23.338  0.00  0.00    -0.503 OA
ATOM     74  H   UNL     1      13.644   4.686  22.489  0.00  0.00    +0.292 HD
ENDBRANCH  72  73
BRANCH  67  76
ATOM     75  C   UNL     1      10.294   2.513  22.551  0.00  0.00    +0.277 C 
ATOM     76  O   UNL     1      11.432   3.369  22.597  0.00  0.00    -0.491 OA
ENDBRANCH  67  76
ENDBRANCH  65  69
ENDBRANCH  63  66
ENDBRANCH  62  63
ENDBRANCH  52  62
ENDBRANCH  51  57
ENDBRANCH  41  51
BRANCH  44  77
ATOM     77  C   UNL     1       5.989   3.282  22.536  0.00  0.00    +0.190 C 
BRANCH  77  78
ATOM     78  O   UNL     1       6.846   4.005  21.650  0.00  0.00    -0.392 OA
ATOM     79  H   UNL     1       6.419   4.859  21.460  0.00  0.00    +0.210 HD
ENDBRANCH  77  78
ENDBRANCH  44  77
ENDBRANCH   1  42
TORSDOF 27
ENDMDL
MODEL 5
REMARK VINA RESULT:      -5.0      2.119      8.535
REMARK  Name = 
REMARK  28 active torsions:
REMARK  status: ('A' for Active; 'I' for Inactive)
REMARK    1  A    between atoms: C_1  and  O_2
REMARK    2  A    between atoms: O_2  and  C_3
REMARK    3  A    between atoms: C_4  and  O_74
REMARK    4  A    between atoms: C_7  and  C_9
REMARK    5  A    between atoms: C_10  and  C_11
REMARK    6  A    between atoms: C_11  and  O_13
REMARK    7  A    between atoms: O_13  and  C_14
REMARK    8  A    between atoms: C_15  and  O_24
REMARK    9  A    between atoms: C_19  and  O_23
REMARK   10  A    between atoms: C_21  and  O_22
REMARK   11  A    between atoms: O_24  and  C_25
REMARK   12  A    between atoms: C_26  and  O_73
REMARK   13  A    between atoms: C_28  and  O_72
REMARK   14  A    between atoms: C_30  and  C_70
REMARK   15  A    between atoms: C_32  and  O_34
REMARK   16  A    between atoms: O_34  and  C_35
REMARK   17  A    between atoms: C_36  and  C_62
REMARK   18  A    between atoms: C_40  and  O_47
REMARK   19  A    between atoms: C_42  and  O_46
REMARK   20  A    between atoms: O_47  and  C_48
REMARK   21  A    between atoms: C_50  and  O_61
REMARK   22  A    between atoms: C_51  and  O_60
REMARK   23  A    between atoms: C_52  and  O_59
REMARK   24  A    between atoms: C_54  and  C_57
REMARK   25  A    between atoms: C_57  and  O_58
REMARK   26  A    between atoms: C_64  and  O_69
REMARK   27  A    between atoms: C_65  and  O_68
REMARK   28  A    between atoms: C_70  and  O_71
REMARK                            x       y       z     vdW  Elec       q    Type
REMARK                         _______ _______ _______ _____ _____    ______ ____
ROOT
ATOM      1  O   UNL     1       7.716  -0.881  25.647  0.00  0.00    -0.453 OA
ENDROOT
BRANCH   1   2
ATOM      2  C   UNL     1       6.458  -1.388  25.942  0.00  0.00    +0.214 A 
ATOM      3  C   UNL     1       5.680  -0.962  27.173  0.00  0.00    +0.238 A 
ATOM      4  O   UNL     1       6.114  -0.085  27.913  0.00  0.00    -0.283 OA
ATOM      5  C   UNL     1       4.402  -1.680  27.474  0.00  0.00    +0.109 A 
ATOM      6  C   UNL     1       4.023  -2.707  26.625  0.00  0.00    +0.147 A 
ATOM      7  C   UNL     1       2.884  -3.502  26.862  0.00  0.00    +0.093 A 
ATOM      8  C   UNL     1       2.096  -3.298  27.989  0.00  0.00    +0.131 A 
ATOM      9  C   UNL     1       2.434  -2.230  28.828  0.00  0.00    +0.092 A 
ATOM     10  O   UNL     1       4.729  -3.030  25.513  0.00  0.00    -0.451 OA
ATOM     11  C   UNL     1       3.573  -1.435  28.577  0.00  0.00    +0.135 A 
ATOM     12  C   UNL     1       5.915  -2.382  25.199  0.00  0.00    +0.181 A 
BRANCH  12  13
ATOM     13  C   UNL     1       6.405  -3.004  23.934  0.00  0.00    +0.025 A 
ATOM     14  C   UNL     1       5.684  -2.633  22.775  0.00  0.00    +0.015 A 
ATOM     15  C   UNL     1       5.650  -3.444  21.641  0.00  0.00    +0.050 A 
ATOM     16  C   UNL     1       6.396  -4.605  21.631  0.00  0.00    +0.158 A 
ATOM     17  C   UNL     1       7.235  -4.914  22.699  0.00  0.00    +0.159 A 
ATOM     18  C   UNL     1       7.237  -4.132  23.865  0.00  0.00    +0.060 A 
BRANCH  17  19
ATOM     19  O   UNL     1       8.001  -6.042  22.573  0.00  0.00    -0.503 OA
ATOM     20  H   UNL     1       8.914  -5.811  22.815  0.00  0.00    +0.292 HD
ENDBRANCH  17  19
BRANCH  16  21
ATOM     21  O   UNL     1       6.263  -5.461  20.576  0.00  0.00    -0.503 OA
ATOM     22  H   UNL     1       5.307  -5.658  20.529  0.00  0.00    +0.292 HD
ENDBRANCH  16  21
ENDBRANCH  12  13
BRANCH  11  23
ATOM     23  O   UNL     1       3.849  -0.420  29.451  0.00  0.00    -0.506 OA
ATOM     24  H   UNL     1       3.312   0.362  29.240  0.00  0.00    +0.292 HD
ENDBRANCH  11  23
BRANCH   8  25
ATOM     25  O   UNL     1       1.061  -4.192  28.183  0.00  0.00    -0.461 OA
BRANCH  25  26
ATOM     26  C   UNL     1       1.420  -5.417  28.852  0.00  0.00    +0.339 C 
ATOM     27  O   UNL     1       2.608  -5.253  29.634  0.00  0.00    -0.331 OA
ATOM     28  C   UNL     1       3.796  -5.090  28.836  0.00  0.00    +0.179 C 
ATOM     29  C   UNL     1       4.069  -6.370  28.039  0.00  0.00    +0.177 C 
ATOM     30  C   UNL     1       2.881  -6.636  27.112  0.00  0.00    +0.180 C 
ATOM     31  C   UNL     1       1.558  -6.635  27.896  0.00  0.00    +0.214 C 
BRANCH  31  32
ATOM     32  O   UNL     1       0.443  -6.784  27.009  0.00  0.00    -0.383 OA
ATOM     33  H   UNL     1      -0.269  -6.194  27.316  0.00  0.00    +0.210 HD
ENDBRANCH  31  32
BRANCH  30  34
ATOM     34  O   UNL     1       3.101  -7.893  26.447  0.00  0.00    -0.386 OA
ATOM     35  H   UNL     1       2.240  -8.219  26.127  0.00  0.00    +0.210 HD
ENDBRANCH  30  34
BRANCH  29  36
ATOM     36  O   UNL     1       4.236  -7.487  28.926  0.00  0.00    -0.386 OA
ATOM     37  H   UNL     1       3.643  -8.190  28.599  0.00  0.00    +0.210 HD
ENDBRANCH  29  36
BRANCH  28  38
ATOM     38  C   UNL     1       4.967  -4.752  29.768  0.00  0.00    +0.190 C 
BRANCH  38  39
ATOM     39  O   UNL     1       6.109  -5.566  29.493  0.00  0.00    -0.392 OA
ATOM     40  H   UNL     1       6.771  -5.028  29.030  0.00  0.00    +0.210 HD
ENDBRANCH  38  39
ENDBRANCH  28  38
ENDBRANCH  25  26
ENDBRANCH   8  25
ENDBRANCH   1   2
BRANCH   1  42
ATOM     41  C   UNL     1       7.353   0.850  23.967  0.00  0.00    +0.221 C 
ATOM     42  C   UNL     1       8.139  -0.471  24.317  0.00  0.00    +0.340 C 
ATOM     43  O   UNL     1       9.554  -0.232  24.370  0.00  0.00    -0.331 OA
ATOM     44  C   UNL     1      10.152   0.320  23.190  0.00  0.00    +0.179 C 
ATOM     45  C   UNL     1       9.481   1.619  22.744  0.00  0.00    +0.177 C 
ATOM     46  C   UNL     1       7.951   1.519  22.699  0.00  0.00    +0.180 C 
BRANCH  46  47
ATOM     47  O   UNL     1       7.466   2.850  22.465  0.00  0.00    -0.386 OA
ATOM     48  H   UNL     1       6.550   2.953  22.797  0.00  0.00    +0.210 HD
ENDBRANCH  46  47
BRANCH  45  49
ATOM     49  O   UNL     1       9.997   2.010  21.460  0.00  0.00    -0.386 OA
ATOM     50  H   UNL     1      10.289   1.192  21.016  0.00  0.00    +0.210 HD
ENDBRANCH  45  49
BRANCH  41  51
ATOM     51  O   UNL     1       7.325   1.689  25.158  0.00  0.00    -0.336 OA
BRANCH  51  57
ATOM     52  C   UNL     1       5.621   2.829  26.645  0.00  0.00    +0.263 C 
ATOM     53  C   UNL     1       6.612   3.363  27.690  0.00  0.00    +0.191 C 
ATOM     54  C   UNL     1       7.245   4.677  27.232  0.00  0.00    +0.172 C 
ATOM     55  C   UNL     1       7.821   4.518  25.823  0.00  0.00    +0.197 C 
ATOM     56  O   UNL     1       6.863   3.989  24.900  0.00  0.00    -0.345 OA
ATOM     57  C   UNL     1       6.314   2.698  25.259  0.00  0.00    +0.294 C 
BRANCH  54  58
ATOM     58  O   UNL     1       6.285   5.739  27.240  0.00  0.00    -0.387 OA
ATOM     59  H   UNL     1       6.547   6.359  27.948  0.00  0.00    +0.210 HD
ENDBRANCH  54  58
BRANCH  53  60
ATOM     60  O   UNL     1       7.635   2.399  27.979  0.00  0.00    -0.385 OA
ATOM     61  H   UNL     1       8.142   2.696  28.764  0.00  0.00    +0.210 HD
ENDBRANCH  53  60
BRANCH  52  62
ATOM     62  O   UNL     1       4.494   3.752  26.528  0.00  0.00    -0.450 OA
BRANCH  62  63
ATOM     63  C   UNL     1       3.356   3.167  26.106  0.00  0.00    +0.332 C 
ATOM     64  O   UNL     1       2.876   2.143  26.566  0.00  0.00    -0.246 OA
BRANCH  63  66
ATOM     65  C   UNL     1       3.430   4.011  23.831  0.00  0.00    +0.015 C 
ATOM     66  C   UNL     1       2.772   3.952  25.000  0.00  0.00    +0.092 C 
BRANCH  65  69
ATOM     67  C   UNL     1       1.916   4.717  20.399  0.00  0.00    +0.162 A 
ATOM     68  C   UNL     1       2.340   4.022  21.544  0.00  0.00    +0.057 A 
ATOM     69  C   UNL     1       2.956   4.688  22.615  0.00  0.00    -0.021 A 
ATOM     70  C   UNL     1       3.100   6.081  22.542  0.00  0.00    +0.012 A 
ATOM     71  C   UNL     1       2.687   6.781  21.413  0.00  0.00    +0.050 A 
ATOM     72  C   UNL     1       2.125   6.096  20.336  0.00  0.00    +0.158 A 
BRANCH  72  73
ATOM     73  O   UNL     1       1.872   6.848  19.226  0.00  0.00    -0.503 OA
ATOM     74  H   UNL     1       2.722   7.252  18.982  0.00  0.00    +0.292 HD
ENDBRANCH  72  73
BRANCH  67  76
ATOM     75  C   UNL     1       0.814   2.683  19.809  0.00  0.00    +0.277 C 
ATOM     76  O   UNL     1       1.395   3.922  19.413  0.00  0.00    -0.491 OA
ENDBRANCH  67  76
ENDBRANCH  65  69
ENDBRANCH  63  66
ENDBRANCH  62  63
ENDBRANCH  52  62
ENDBRANCH  51  57
ENDBRANCH  41  51
BRANCH  44  77
ATOM     77  C   UNL     1      10.366  -0.703  22.054  0.00  0.00    +0.190 C 
BRANCH  77  78
ATOM     78  O   UNL     1      10.687  -1.996  22.571  0.00  0.00    -0.392 OA
ATOM     79  H   UNL     1      10.158  -2.129  23.378  0.00  0.00    +0.210 HD
ENDBRANCH  77  78
ENDBRANCH  44  77
ENDBRANCH   1  42
TORSDOF 27
ENDMDL
MODEL 6
REMARK VINA RESULT:      -5.0      2.561      9.061
REMARK  Name = 
REMARK  28 active torsions:
REMARK  status: ('A' for Active; 'I' for Inactive)
REMARK    1  A    between atoms: C_1  and  O_2
REMARK    2  A    between atoms: O_2  and  C_3
REMARK    3  A    between atoms: C_4  and  O_74
REMARK    4  A    between atoms: C_7  and  C_9
REMARK    5  A    between atoms: C_10  and  C_11
REMARK    6  A    between atoms: C_11  and  O_13
REMARK    7  A    between atoms: O_13  and  C_14
REMARK    8  A    between atoms: C_15  and  O_24
REMARK    9  A    between atoms: C_19  and  O_23
REMARK   10  A    between atoms: C_21  and  O_22
REMARK   11  A    between atoms: O_24  and  C_25
REMARK   12  A    between atoms: C_26  and  O_73
REMARK   13  A    between atoms: C_28  and  O_72
REMARK   14  A    between atoms: C_30  and  C_70
REMARK   15  A    between atoms: C_32  and  O_34
REMARK   16  A    between atoms: O_34  and  C_35
REMARK   17  A    between atoms: C_36  and  C_62
REMARK   18  A    between atoms: C_40  and  O_47
REMARK   19  A    between atoms: C_42  and  O_46
REMARK   20  A    between atoms: O_47  and  C_48
REMARK   21  A    between atoms: C_50  and  O_61
REMARK   22  A    between atoms: C_51  and  O_60
REMARK   23  A    between atoms: C_52  and  O_59
REMARK   24  A    between atoms: C_54  and  C_57
REMARK   25  A    between atoms: C_57  and  O_58
REMARK   26  A    between atoms: C_64  and  O_69
REMARK   27  A    between atoms: C_65  and  O_68
REMARK   28  A    between atoms: C_70  and  O_71
REMARK                            x       y       z     vdW  Elec       q    Type
REMARK                         _______ _______ _______ _____ _____    ______ ____
ROOT
ATOM      1  O   UNL     1       4.727   0.541  26.266  0.00  0.00    -0.453 OA
ENDROOT
BRANCH   1   2
ATOM      2  C   UNL     1       4.457  -0.716  26.787  0.00  0.00    +0.214 A 
ATOM      3  C   UNL     1       3.047  -1.179  27.099  0.00  0.00    +0.238 A 
ATOM      4  O   UNL     1       2.083  -0.472  26.822  0.00  0.00    -0.283 OA
ATOM      5  C   UNL     1       2.881  -2.493  27.797  0.00  0.00    +0.109 A 
ATOM      6  C   UNL     1       4.028  -3.192  28.138  0.00  0.00    +0.147 A 
ATOM      7  C   UNL     1       3.990  -4.396  28.868  0.00  0.00    +0.093 A 
ATOM      8  C   UNL     1       2.781  -4.926  29.303  0.00  0.00    +0.131 A 
ATOM      9  C   UNL     1       1.610  -4.261  28.921  0.00  0.00    +0.092 A 
ATOM     10  O   UNL     1       5.270  -2.760  27.804  0.00  0.00    -0.451 OA
ATOM     11  C   UNL     1       1.659  -3.059  28.182  0.00  0.00    +0.135 A 
ATOM     12  C   UNL     1       5.461  -1.550  27.152  0.00  0.00    +0.181 A 
BRANCH  12  13
ATOM     13  C   UNL     1       6.935  -1.407  26.966  0.00  0.00    +0.025 A 
ATOM     14  C   UNL     1       7.476  -0.193  27.448  0.00  0.00    +0.015 A 
ATOM     15  C   UNL     1       8.666   0.331  26.944  0.00  0.00    +0.050 A 
ATOM     16  C   UNL     1       9.364  -0.392  25.999  0.00  0.00    +0.158 A 
ATOM     17  C   UNL     1       8.932  -1.663  25.623  0.00  0.00    +0.159 A 
ATOM     18  C   UNL     1       7.710  -2.176  26.084  0.00  0.00    +0.060 A 
BRANCH  17  19
ATOM     19  O   UNL     1       9.726  -2.346  24.740  0.00  0.00    -0.503 OA
ATOM     20  H   UNL     1       9.267  -2.369  23.883  0.00  0.00    +0.292 HD
ENDBRANCH  17  19
BRANCH  16  21
ATOM     21  O   UNL     1      10.458   0.177  25.412  0.00  0.00    -0.503 OA
ATOM     22  H   UNL     1      10.313   0.070  24.452  0.00  0.00    +0.292 HD
ENDBRANCH  16  21
ENDBRANCH  12  13
BRANCH  11  23
ATOM     23  O   UNL     1       0.474  -2.458  27.861  0.00  0.00    -0.506 OA
ATOM     24  H   UNL     1       0.073  -2.060  28.652  0.00  0.00    +0.292 HD
ENDBRANCH  11  23
BRANCH   8  25
ATOM     25  O   UNL     1       2.856  -6.055  30.095  0.00  0.00    -0.461 OA
BRANCH  25  26
ATOM     26  C   UNL     1       2.929  -7.306  29.382  0.00  0.00    +0.339 C 
ATOM     27  O   UNL     1       4.085  -7.357  28.539  0.00  0.00    -0.331 OA
ATOM     28  C   UNL     1       4.003  -6.471  27.407  0.00  0.00    +0.179 C 
ATOM     29  C   UNL     1       2.867  -6.914  26.479  0.00  0.00    +0.177 C 
ATOM     30  C   UNL     1       1.548  -6.855  27.252  0.00  0.00    +0.180 C 
ATOM     31  C   UNL     1       1.646  -7.640  28.571  0.00  0.00    +0.214 C 
BRANCH  31  32
ATOM     32  O   UNL     1       0.443  -7.497  29.336  0.00  0.00    -0.383 OA
ATOM     33  H   UNL     1      -0.314  -7.664  28.746  0.00  0.00    +0.210 HD
ENDBRANCH  31  32
BRANCH  30  34
ATOM     34  O   UNL     1       0.506  -7.371  26.405  0.00  0.00    -0.386 OA
ATOM     35  H   UNL     1       0.459  -6.810  25.609  0.00  0.00    +0.210 HD
ENDBRANCH  30  34
BRANCH  29  36
ATOM     36  O   UNL     1       3.088  -8.258  26.023  0.00  0.00    -0.386 OA
ATOM     37  H   UNL     1       2.544  -8.369  25.220  0.00  0.00    +0.210 HD
ENDBRANCH  29  36
BRANCH  28  38
ATOM     38  C   UNL     1       5.354  -6.481  26.680  0.00  0.00    +0.190 C 
BRANCH  38  39
ATOM     39  O   UNL     1       6.445  -6.388  27.599  0.00  0.00    -0.392 OA
ATOM     40  H   UNL     1       6.089  -6.351  28.502  0.00  0.00    +0.210 HD
ENDBRANCH  38  39
ENDBRANCH  28  38
ENDBRANCH  25  26
ENDBRANCH   8  25
ENDBRANCH   1   2
BRANCH   1  42
ATOM     41  C   UNL     1       5.784   2.718  26.583  0.00  0.00    +0.221 C 
ATOM     42  C   UNL     1       4.591   1.781  27.015  0.00  0.00    +0.340 C 
ATOM     43  O   UNL     1       3.325   2.360  26.661  0.00  0.00    -0.331 OA
ATOM     44  C   UNL     1       3.053   3.666  27.186  0.00  0.00    +0.179 C 
ATOM     45  C   UNL     1       4.141   4.681  26.830  0.00  0.00    +0.177 C 
ATOM     46  C   UNL     1       5.558   4.162  27.106  0.00  0.00    +0.180 C 
BRANCH  46  47
ATOM     47  O   UNL     1       6.458   5.129  26.542  0.00  0.00    -0.386 OA
ATOM     48  H   UNL     1       6.540   5.008  25.573  0.00  0.00    +0.210 HD
ENDBRANCH  46  47
BRANCH  45  49
ATOM     49  O   UNL     1       3.906   5.907  27.543  0.00  0.00    -0.386 OA
ATOM     50  H   UNL     1       3.811   5.668  28.484  0.00  0.00    +0.210 HD
ENDBRANCH  45  49
BRANCH  41  51
ATOM     51  O   UNL     1       5.954   2.598  25.141  0.00  0.00    -0.336 OA
BRANCH  51  57
ATOM     52  C   UNL     1       7.121   1.184  23.393  0.00  0.00    +0.263 C 
ATOM     53  C   UNL     1       6.652   1.980  22.166  0.00  0.00    +0.191 C 
ATOM     54  C   UNL     1       7.542   3.199  21.923  0.00  0.00    +0.172 C 
ATOM     55  C   UNL     1       7.670   4.018  23.210  0.00  0.00    +0.197 C 
ATOM     56  O   UNL     1       8.079   3.220  24.325  0.00  0.00    -0.345 OA
ATOM     57  C   UNL     1       7.204   2.110  24.639  0.00  0.00    +0.294 C 
BRANCH  54  58
ATOM     58  O   UNL     1       8.843   2.803  21.476  0.00  0.00    -0.387 OA
ATOM     59  H   UNL     1       9.034   1.935  21.880  0.00  0.00    +0.210 HD
ENDBRANCH  54  58
BRANCH  53  60
ATOM     60  O   UNL     1       5.283   2.389  22.301  0.00  0.00    -0.385 OA
ATOM     61  H   UNL     1       5.173   3.275  21.897  0.00  0.00    +0.210 HD
ENDBRANCH  53  60
BRANCH  52  62
ATOM     62  O   UNL     1       8.443   0.620  23.130  0.00  0.00    -0.450 OA
BRANCH  62  63
ATOM     63  C   UNL     1       8.443  -0.347  22.192  0.00  0.00    +0.332 C 
ATOM     64  O   UNL     1       9.189  -0.394  21.227  0.00  0.00    -0.246 OA
BRANCH  63  66
ATOM     65  C   UNL     1       7.647  -2.640  22.231  0.00  0.00    +0.015 C 
ATOM     66  C   UNL     1       7.404  -1.348  22.507  0.00  0.00    +0.092 C 
BRANCH  65  69
ATOM     67  C   UNL     1       4.733  -4.740  23.525  0.00  0.00    +0.162 A 
ATOM     68  C   UNL     1       5.544  -3.627  23.242  0.00  0.00    +0.057 A 
ATOM     69  C   UNL     1       6.753  -3.765  22.543  0.00  0.00    -0.021 A 
ATOM     70  C   UNL     1       7.119  -5.038  22.085  0.00  0.00    +0.012 A 
ATOM     71  C   UNL     1       6.327  -6.148  22.360  0.00  0.00    +0.050 A 
ATOM     72  C   UNL     1       5.155  -6.001  23.101  0.00  0.00    +0.158 A 
BRANCH  72  73
ATOM     73  O   UNL     1       4.515  -7.161  23.431  0.00  0.00    -0.503 OA
ATOM     74  H   UNL     1       4.231  -7.554  22.587  0.00  0.00    +0.292 HD
ENDBRANCH  72  73
BRANCH  67  76
ATOM     75  C   UNL     1       2.351  -4.731  23.686  0.00  0.00    +0.277 C 
ATOM     76  O   UNL     1       3.621  -4.456  24.271  0.00  0.00    -0.491 OA
ENDBRANCH  67  76
ENDBRANCH  65  69
ENDBRANCH  63  66
ENDBRANCH  62  63
ENDBRANCH  52  62
ENDBRANCH  51  57
ENDBRANCH  41  51
BRANCH  44  77
ATOM     77  C   UNL     1       2.644   3.676  28.674  0.00  0.00    +0.190 C 
BRANCH  77  78
ATOM     78  O   UNL     1       1.703   4.717  28.947  0.00  0.00    -0.392 OA
ATOM     79  H   UNL     1       1.152   4.426  29.695  0.00  0.00    +0.210 HD
ENDBRANCH  77  78
ENDBRANCH  44  77
ENDBRANCH   1  42
TORSDOF 27
ENDMDL
MODEL 7
REMARK VINA RESULT:      -4.7      2.364      8.336
REMARK  Name = 
REMARK  28 active torsions:
REMARK  status: ('A' for Active; 'I' for Inactive)
REMARK    1  A    between atoms: C_1  and  O_2
REMARK    2  A    between atoms: O_2  and  C_3
REMARK    3  A    between atoms: C_4  and  O_74
REMARK    4  A    between atoms: C_7  and  C_9
REMARK    5  A    between atoms: C_10  and  C_11
REMARK    6  A    between atoms: C_11  and  O_13
REMARK    7  A    between atoms: O_13  and  C_14
REMARK    8  A    between atoms: C_15  and  O_24
REMARK    9  A    between atoms: C_19  and  O_23
REMARK   10  A    between atoms: C_21  and  O_22
REMARK   11  A    between atoms: O_24  and  C_25
REMARK   12  A    between atoms: C_26  and  O_73
REMARK   13  A    between atoms: C_28  and  O_72
REMARK   14  A    between atoms: C_30  and  C_70
REMARK   15  A    between atoms: C_32  and  O_34
REMARK   16  A    between atoms: O_34  and  C_35
REMARK   17  A    between atoms: C_36  and  C_62
REMARK   18  A    between atoms: C_40  and  O_47
REMARK   19  A    between atoms: C_42  and  O_46
REMARK   20  A    between atoms: O_47  and  C_48
REMARK   21  A    between atoms: C_50  and  O_61
REMARK   22  A    between atoms: C_51  and  O_60
REMARK   23  A    between atoms: C_52  and  O_59
REMARK   24  A    between atoms: C_54  and  C_57
REMARK   25  A    between atoms: C_57  and  O_58
REMARK   26  A    between atoms: C_64  and  O_69
REMARK   27  A    between atoms: C_65  and  O_68
REMARK   28  A    between atoms: C_70  and  O_71
REMARK                            x       y       z     vdW  Elec       q    Type
REMARK                         _______ _______ _______ _____ _____    ______ ____
ROOT
ATOM      1  O   UNL     1       7.224  -0.863  25.786  0.00  0.00    -0.453 OA
ENDROOT
BRANCH   1   2
ATOM      2  C   UNL     1       5.996  -1.471  26.007  0.00  0.00    +0.214 A 
ATOM      3  C   UNL     1       5.097  -1.084  27.166  0.00  0.00    +0.238 A 
ATOM      4  O   UNL     1       5.399  -0.154  27.906  0.00  0.00    -0.283 OA
ATOM      5  C   UNL     1       3.866  -1.904  27.399  0.00  0.00    +0.109 A 
ATOM      6  C   UNL     1       3.640  -2.982  26.559  0.00  0.00    +0.147 A 
ATOM      7  C   UNL     1       2.559  -3.868  26.740  0.00  0.00    +0.093 A 
ATOM      8  C   UNL     1       1.677  -3.704  27.802  0.00  0.00    +0.131 A 
ATOM      9  C   UNL     1       1.860  -2.590  28.628  0.00  0.00    +0.092 A 
ATOM     10  O   UNL     1       4.450  -3.270  25.510  0.00  0.00    -0.451 OA
ATOM     11  C   UNL     1       2.942  -1.704  28.432  0.00  0.00    +0.135 A 
ATOM     12  C   UNL     1       5.596  -2.528  25.260  0.00  0.00    +0.181 A 
BRANCH  12  13
ATOM     13  C   UNL     1       6.229  -3.136  24.052  0.00  0.00    +0.025 A 
ATOM     14  C   UNL     1       5.515  -2.938  22.847  0.00  0.00    +0.015 A 
ATOM     15  C   UNL     1       5.651  -3.804  21.763  0.00  0.00    +0.050 A 
ATOM     16  C   UNL     1       6.558  -4.840  21.849  0.00  0.00    +0.158 A 
ATOM     17  C   UNL     1       7.384  -4.964  22.964  0.00  0.00    +0.159 A 
ATOM     18  C   UNL     1       7.218  -4.131  24.081  0.00  0.00    +0.060 A 
BRANCH  17  19
ATOM     19  O   UNL     1       8.311  -5.972  22.934  0.00  0.00    -0.503 OA
ATOM     20  H   UNL     1       9.082  -5.653  22.434  0.00  0.00    +0.292 HD
ENDBRANCH  17  19
BRANCH  16  21
ATOM     21  O   UNL     1       6.600  -5.762  20.842  0.00  0.00    -0.503 OA
ATOM     22  H   UNL     1       7.158  -5.356  20.152  0.00  0.00    +0.292 HD
ENDBRANCH  16  21
ENDBRANCH  12  13
BRANCH  11  23
ATOM     23  O   UNL     1       3.065  -0.647  29.291  0.00  0.00    -0.506 OA
ATOM     24  H   UNL     1       2.678   0.153  28.898  0.00  0.00    +0.292 HD
ENDBRANCH  11  23
BRANCH   8  25
ATOM     25  O   UNL     1       0.711  -4.681  27.950  0.00  0.00    -0.461 OA
BRANCH  25  26
ATOM     26  C   UNL     1       1.155  -5.899  28.581  0.00  0.00    +0.339 C 
ATOM     27  O   UNL     1       2.195  -5.642  29.530  0.00  0.00    -0.331 OA
ATOM     28  C   UNL     1       3.440  -5.252  28.920  0.00  0.00    +0.179 C 
ATOM     29  C   UNL     1       3.998  -6.411  28.087  0.00  0.00    +0.177 C 
ATOM     30  C   UNL     1       2.992  -6.755  26.987  0.00  0.00    +0.180 C 
ATOM     31  C   UNL     1       1.592  -7.001  27.575  0.00  0.00    +0.214 C 
BRANCH  31  32
ATOM     32  O   UNL     1       0.636  -7.223  26.533  0.00  0.00    -0.383 OA
ATOM     33  H   UNL     1       1.037  -7.820  25.876  0.00  0.00    +0.210 HD
ENDBRANCH  31  32
BRANCH  30  34
ATOM     34  O   UNL     1       3.478  -7.909  26.277  0.00  0.00    -0.386 OA
ATOM     35  H   UNL     1       3.476  -8.664  26.894  0.00  0.00    +0.210 HD
ENDBRANCH  30  34
BRANCH  29  36
ATOM     36  O   UNL     1       4.209  -7.566  28.913  0.00  0.00    -0.386 OA
ATOM     37  H   UNL     1       5.018  -7.391  29.429  0.00  0.00    +0.210 HD
ENDBRANCH  29  36
BRANCH  28  38
ATOM     38  C   UNL     1       4.418  -4.838  30.027  0.00  0.00    +0.190 C 
BRANCH  38  39
ATOM     39  O   UNL     1       5.744  -5.297  29.754  0.00  0.00    -0.392 OA
ATOM     40  H   UNL     1       5.715  -6.253  29.589  0.00  0.00    +0.210 HD
ENDBRANCH  38  39
ENDBRANCH  28  38
ENDBRANCH  25  26
ENDBRANCH   8  25
ENDBRANCH   1   2
BRANCH   1  42
ATOM     41  C   UNL     1       6.446   0.418  23.861  0.00  0.00    +0.221 C 
ATOM     42  C   UNL     1       7.663  -0.358  24.494  0.00  0.00    +0.340 C 
ATOM     43  O   UNL     1       8.771   0.524  24.731  0.00  0.00    -0.331 OA
ATOM     44  C   UNL     1       9.268   1.243  23.595  0.00  0.00    +0.179 C 
ATOM     45  C   UNL     1       8.179   2.049  22.887  0.00  0.00    +0.177 C 
ATOM     46  C   UNL     1       6.906   1.235  22.623  0.00  0.00    +0.180 C 
BRANCH  46  47
ATOM     47  O   UNL     1       5.922   2.167  22.148  0.00  0.00    -0.386 OA
ATOM     48  H   UNL     1       6.229   2.615  21.332  0.00  0.00    +0.210 HD
ENDBRANCH  46  47
BRANCH  45  49
ATOM     49  O   UNL     1       8.698   2.583  21.658  0.00  0.00    -0.386 OA
ATOM     50  H   UNL     1       9.489   2.057  21.438  0.00  0.00    +0.210 HD
ENDBRANCH  45  49
BRANCH  41  51
ATOM     51  O   UNL     1       5.805   1.193  24.915  0.00  0.00    -0.336 OA
BRANCH  51  57
ATOM     52  C   UNL     1       4.731   3.482  25.065  0.00  0.00    +0.263 C 
ATOM     53  C   UNL     1       4.087   3.296  26.446  0.00  0.00    +0.191 C 
ATOM     54  C   UNL     1       5.088   3.578  27.567  0.00  0.00    +0.172 C 
ATOM     55  C   UNL     1       6.369   2.771  27.341  0.00  0.00    +0.197 C 
ATOM     56  O   UNL     1       6.906   2.959  26.028  0.00  0.00    -0.345 OA
ATOM     57  C   UNL     1       6.013   2.610  24.944  0.00  0.00    +0.294 C 
BRANCH  54  58
ATOM     58  O   UNL     1       5.407   4.972  27.630  0.00  0.00    -0.387 OA
ATOM     59  H   UNL     1       4.613   5.434  27.962  0.00  0.00    +0.210 HD
ENDBRANCH  54  58
BRANCH  53  60
ATOM     60  O   UNL     1       3.542   1.976  26.595  0.00  0.00    -0.385 OA
ATOM     61  H   UNL     1       3.061   1.923  27.448  0.00  0.00    +0.210 HD
ENDBRANCH  53  60
BRANCH  52  62
ATOM     62  O   UNL     1       5.092   4.885  24.882  0.00  0.00    -0.450 OA
BRANCH  62  63
ATOM     63  C   UNL     1       5.416   5.201  23.612  0.00  0.00    +0.332 C 
ATOM     64  O   UNL     1       4.683   5.075  22.644  0.00  0.00    -0.246 OA
BRANCH  63  66
ATOM     65  C   UNL     1       7.662   5.354  24.522  0.00  0.00    +0.015 C 
ATOM     66  C   UNL     1       6.795   5.726  23.565  0.00  0.00    +0.092 C 
BRANCH  65  69
ATOM     67  C   UNL     1      11.416   5.564  23.860  0.00  0.00    +0.162 A 
ATOM     68  C   UNL     1      10.068   5.177  23.751  0.00  0.00    +0.057 A 
ATOM     69  C   UNL     1       9.082   5.729  24.583  0.00  0.00    -0.021 A 
ATOM     70  C   UNL     1       9.460   6.717  25.503  0.00  0.00    +0.012 A 
ATOM     71  C   UNL     1      10.789   7.107  25.624  0.00  0.00    +0.050 A 
ATOM     72  C   UNL     1      11.765   6.510  24.825  0.00  0.00    +0.158 A 
BRANCH  72  73
ATOM     73  O   UNL     1      13.054   6.862  25.105  0.00  0.00    -0.503 OA
ATOM     74  H   UNL     1      13.607   6.163  24.715  0.00  0.00    +0.292 HD
ENDBRANCH  72  73
BRANCH  67  76
ATOM     75  C   UNL     1      13.144   5.668  22.216  0.00  0.00    +0.277 C 
ATOM     76  O   UNL     1      12.268   4.890  23.028  0.00  0.00    -0.491 OA
ENDBRANCH  67  76
ENDBRANCH  65  69
ENDBRANCH  63  66
ENDBRANCH  62  63
ENDBRANCH  52  62
ENDBRANCH  51  57
ENDBRANCH  41  51
BRANCH  44  77
ATOM     77  C   UNL     1      10.144   0.397  22.646  0.00  0.00    +0.190 C 
BRANCH  77  78
ATOM     78  O   UNL     1       9.384  -0.101  21.543  0.00  0.00    -0.392 OA
ATOM     79  H   UNL     1       9.950  -0.722  21.052  0.00  0.00    +0.210 HD
ENDBRANCH  77  78
ENDBRANCH  44  77
ENDBRANCH   1  42
TORSDOF 27
ENDMDL
MODEL 8
REMARK VINA RESULT:      -4.5      2.046      3.666
REMARK  Name = 
REMARK  28 active torsions:
REMARK  status: ('A' for Active; 'I' for Inactive)
REMARK    1  A    between atoms: C_1  and  O_2
REMARK    2  A    between atoms: O_2  and  C_3
REMARK    3  A    between atoms: C_4  and  O_74
REMARK    4  A    between atoms: C_7  and  C_9
REMARK    5  A    between atoms: C_10  and  C_11
REMARK    6  A    between atoms: C_11  and  O_13
REMARK    7  A    between atoms: O_13  and  C_14
REMARK    8  A    between atoms: C_15  and  O_24
REMARK    9  A    between atoms: C_19  and  O_23
REMARK   10  A    between atoms: C_21  and  O_22
REMARK   11  A    between atoms: O_24  and  C_25
REMARK   12  A    between atoms: C_26  and  O_73
REMARK   13  A    between atoms: C_28  and  O_72
REMARK   14  A    between atoms: C_30  and  C_70
REMARK   15  A    between atoms: C_32  and  O_34
REMARK   16  A    between atoms: O_34  and  C_35
REMARK   17  A    between atoms: C_36  and  C_62
REMARK   18  A    between atoms: C_40  and  O_47
REMARK   19  A    between atoms: C_42  and  O_46
REMARK   20  A    between atoms: O_47  and  C_48
REMARK   21  A    between atoms: C_50  and  O_61
REMARK   22  A    between atoms: C_51  and  O_60
REMARK   23  A    between atoms: C_52  and  O_59
REMARK   24  A    between atoms: C_54  and  C_57
REMARK   25  A    between atoms: C_57  and  O_58
REMARK   26  A    between atoms: C_64  and  O_69
REMARK   27  A    between atoms: C_65  and  O_68
REMARK   28  A    between atoms: C_70  and  O_71
REMARK                            x       y       z     vdW  Elec       q    Type
REMARK                         _______ _______ _______ _____ _____    ______ ____
ROOT
ATOM      1  O   UNL     1       5.854  -2.794  26.458  0.00  0.00    -0.453 OA
ENDROOT
BRANCH   1   2
ATOM      2  C   UNL     1       5.400  -1.493  26.623  0.00  0.00    +0.214 A 
ATOM      3  C   UNL     1       6.346  -0.310  26.713  0.00  0.00    +0.238 A 
ATOM      4  O   UNL     1       7.553  -0.463  26.562  0.00  0.00    -0.283 OA
ATOM      5  C   UNL     1       5.760   1.028  27.041  0.00  0.00    +0.109 A 
ATOM      6  C   UNL     1       4.395   1.097  27.268  0.00  0.00    +0.147 A 
ATOM      7  C   UNL     1       3.754   2.288  27.665  0.00  0.00    +0.093 A 
ATOM      8  C   UNL     1       4.483   3.453  27.869  0.00  0.00    +0.131 A 
ATOM      9  C   UNL     1       5.854   3.415  27.591  0.00  0.00    +0.092 A 
ATOM     10  O   UNL     1       3.580   0.021  27.140  0.00  0.00    -0.451 OA
ATOM     11  C   UNL     1       6.485   2.218  27.187  0.00  0.00    +0.135 A 
ATOM     12  C   UNL     1       4.087  -1.234  26.831  0.00  0.00    +0.181 A 
BRANCH  12  13
ATOM     13  C   UNL     1       2.914  -2.156  26.786  0.00  0.00    +0.025 A 
ATOM     14  C   UNL     1       2.512  -2.662  28.045  0.00  0.00    +0.015 A 
ATOM     15  C   UNL     1       1.812  -3.862  28.163  0.00  0.00    +0.050 A 
ATOM     16  C   UNL     1       1.446  -4.535  27.015  0.00  0.00    +0.158 A 
ATOM     17  C   UNL     1       1.693  -3.978  25.761  0.00  0.00    +0.159 A 
ATOM     18  C   UNL     1       2.443  -2.798  25.631  0.00  0.00    +0.060 A 
BRANCH  17  19
ATOM     19  O   UNL     1       1.226  -4.672  24.677  0.00  0.00    -0.503 OA
ATOM     20  H   UNL     1       0.974  -4.025  23.996  0.00  0.00    +0.292 HD
ENDBRANCH  17  19
BRANCH  16  21
ATOM     21  O   UNL     1       0.876  -5.770  27.131  0.00  0.00    -0.503 OA
ATOM     22  H   UNL     1       0.411  -5.914  26.283  0.00  0.00    +0.292 HD
ENDBRANCH  16  21
ENDBRANCH  12  13
BRANCH  11  23
ATOM     23  O   UNL     1       7.831   2.253  26.951  0.00  0.00    -0.506 OA
ATOM     24  H   UNL     1       8.145   3.173  26.930  0.00  0.00    +0.292 HD
ENDBRANCH  11  23
BRANCH   8  25
ATOM     25  O   UNL     1       3.778   4.540  28.351  0.00  0.00    -0.461 OA
BRANCH  25  26
ATOM     26  C   UNL     1       3.423   5.532  27.367  0.00  0.00    +0.339 C 
ATOM     27  O   UNL     1       2.764   4.937  26.244  0.00  0.00    -0.331 OA
ATOM     28  C   UNL     1       3.638   4.133  25.430  0.00  0.00    +0.179 C 
ATOM     29  C   UNL     1       4.709   5.019  24.784  0.00  0.00    +0.177 C 
ATOM     30  C   UNL     1       5.532   5.683  25.890  0.00  0.00    +0.180 C 
ATOM     31  C   UNL     1       4.621   6.405  26.898  0.00  0.00    +0.214 C 
BRANCH  31  32
ATOM     32  O   UNL     1       5.388   6.938  27.983  0.00  0.00    -0.383 OA
ATOM     33  H   UNL     1       5.985   6.239  28.306  0.00  0.00    +0.210 HD
ENDBRANCH  31  32
BRANCH  30  34
ATOM     34  O   UNL     1       6.464   6.590  25.275  0.00  0.00    -0.386 OA
ATOM     35  H   UNL     1       6.164   6.758  24.363  0.00  0.00    +0.210 HD
ENDBRANCH  30  34
BRANCH  29  36
ATOM     36  O   UNL     1       4.098   6.035  23.975  0.00  0.00    -0.386 OA
ATOM     37  H   UNL     1       4.261   5.782  23.046  0.00  0.00    +0.210 HD
ENDBRANCH  29  36
BRANCH  28  38
ATOM     38  C   UNL     1       2.794   3.414  24.370  0.00  0.00    +0.190 C 
BRANCH  38  39
ATOM     39  O   UNL     1       3.595   2.555  23.555  0.00  0.00    -0.392 OA
ATOM     40  H   UNL     1       4.308   2.185  24.101  0.00  0.00    +0.210 HD
ENDBRANCH  38  39
ENDBRANCH  28  38
ENDBRANCH  25  26
ENDBRANCH   8  25
ENDBRANCH   1   2
BRANCH   1  42
ATOM     41  C   UNL     1       5.031  -5.049  26.020  0.00  0.00    +0.221 C 
ATOM     42  C   UNL     1       5.275  -3.951  27.125  0.00  0.00    +0.340 C 
ATOM     43  O   UNL     1       6.225  -4.404  28.102  0.00  0.00    -0.331 OA
ATOM     44  C   UNL     1       5.908  -5.627  28.779  0.00  0.00    +0.179 C 
ATOM     45  C   UNL     1       5.652  -6.784  27.813  0.00  0.00    +0.177 C 
ATOM     46  C   UNL     1       4.691  -6.414  26.676  0.00  0.00    +0.180 C 
BRANCH  46  47
ATOM     47  O   UNL     1       4.710  -7.518  25.757  0.00  0.00    -0.386 OA
ATOM     48  H   UNL     1       4.760  -8.372  26.236  0.00  0.00    +0.210 HD
ENDBRANCH  46  47
BRANCH  45  49
ATOM     49  O   UNL     1       5.154  -7.919  28.543  0.00  0.00    -0.386 OA
ATOM     50  H   UNL     1       5.896  -8.249  29.084  0.00  0.00    +0.210 HD
ENDBRANCH  45  49
BRANCH  41  51
ATOM     51  O   UNL     1       6.182  -5.057  25.127  0.00  0.00    -0.336 OA
BRANCH  51  57
ATOM     52  C   UNL     1       7.475  -4.130  23.156  0.00  0.00    +0.263 C 
ATOM     53  C   UNL     1       7.130  -5.250  22.163  0.00  0.00    +0.191 C 
ATOM     54  C   UNL     1       5.766  -5.012  21.513  0.00  0.00    +0.172 C 
ATOM     55  C   UNL     1       4.709  -4.759  22.591  0.00  0.00    +0.197 C 
ATOM     56  O   UNL     1       5.098  -3.729  23.505  0.00  0.00    -0.345 OA
ATOM     57  C   UNL     1       6.341  -3.970  24.207  0.00  0.00    +0.294 C 
BRANCH  54  58
ATOM     58  O   UNL     1       5.813  -3.896  20.618  0.00  0.00    -0.387 OA
ATOM     59  H   UNL     1       4.889  -3.631  20.440  0.00  0.00    +0.210 HD
ENDBRANCH  54  58
BRANCH  53  60
ATOM     60  O   UNL     1       7.154  -6.537  22.798  0.00  0.00    -0.385 OA
ATOM     61  H   UNL     1       7.755  -6.501  23.571  0.00  0.00    +0.210 HD
ENDBRANCH  53  60
BRANCH  52  62
ATOM     62  O   UNL     1       7.634  -2.871  22.433  0.00  0.00    -0.450 OA
BRANCH  62  63
ATOM     63  C   UNL     1       8.401  -1.969  23.076  0.00  0.00    +0.332 C 
ATOM     64  O   UNL     1       9.402  -2.229  23.726  0.00  0.00    -0.246 OA
BRANCH  63  66
ATOM     65  C   UNL     1       8.596   0.446  23.236  0.00  0.00    +0.015 C 
ATOM     66  C   UNL     1       7.851  -0.613  22.876  0.00  0.00    +0.092 C 
BRANCH  65  69
ATOM     67  C   UNL     1       8.423   4.248  23.524  0.00  0.00    +0.162 A 
ATOM     68  C   UNL     1       8.822   2.918  23.741  0.00  0.00    +0.057 A 
ATOM     69  C   UNL     1       8.229   1.856  23.042  0.00  0.00    -0.021 A 
ATOM     70  C   UNL     1       7.253   2.151  22.078  0.00  0.00    +0.012 A 
ATOM     71  C   UNL     1       6.847   3.463  21.856  0.00  0.00    +0.050 A 
ATOM     72  C   UNL     1       7.410   4.501  22.597  0.00  0.00    +0.158 A 
BRANCH  72  73
ATOM     73  O   UNL     1       6.858   5.734  22.401  0.00  0.00    -0.503 OA
ATOM     74  H   UNL     1       7.575   6.372  22.561  0.00  0.00    +0.292 HD
ENDBRANCH  72  73
BRANCH  67  76
ATOM     75  C   UNL     1      10.167   5.858  23.785  0.00  0.00    +0.277 C 
ATOM     76  O   UNL     1       9.046   5.165  24.327  0.00  0.00    -0.491 OA
ENDBRANCH  67  76
ENDBRANCH  65  69
ENDBRANCH  63  66
ENDBRANCH  62  63
ENDBRANCH  52  62
ENDBRANCH  51  57
ENDBRANCH  41  51
BRANCH  44  77
ATOM     77  C   UNL     1       4.840  -5.479  29.884  0.00  0.00    +0.190 C 
BRANCH  77  78
ATOM     78  O   UNL     1       4.890  -4.184  30.485  0.00  0.00    -0.392 OA
ATOM     79  H   UNL     1       5.814  -3.880  30.453  0.00  0.00    +0.210 HD
ENDBRANCH  77  78
ENDBRANCH  44  77
ENDBRANCH   1  42
TORSDOF 27
ENDMDL
MODEL 9
REMARK VINA RESULT:      -4.5      2.158      9.488
REMARK  Name = 
REMARK  28 active torsions:
REMARK  status: ('A' for Active; 'I' for Inactive)
REMARK    1  A    between atoms: C_1  and  O_2
REMARK    2  A    between atoms: O_2  and  C_3
REMARK    3  A    between atoms: C_4  and  O_74
REMARK    4  A    between atoms: C_7  and  C_9
REMARK    5  A    between atoms: C_10  and  C_11
REMARK    6  A    between atoms: C_11  and  O_13
REMARK    7  A    between atoms: O_13  and  C_14
REMARK    8  A    between atoms: C_15  and  O_24
REMARK    9  A    between atoms: C_19  and  O_23
REMARK   10  A    between atoms: C_21  and  O_22
REMARK   11  A    between atoms: O_24  and  C_25
REMARK   12  A    between atoms: C_26  and  O_73
REMARK   13  A    between atoms: C_28  and  O_72
REMARK   14  A    between atoms: C_30  and  C_70
REMARK   15  A    between atoms: C_32  and  O_34
REMARK   16  A    between atoms: O_34  and  C_35
REMARK   17  A    between atoms: C_36  and  C_62
REMARK   18  A    between atoms: C_40  and  O_47
REMARK   19  A    between atoms: C_42  and  O_46
REMARK   20  A    between atoms: O_47  and  C_48
REMARK   21  A    between atoms: C_50  and  O_61
REMARK   22  A    between atoms: C_51  and  O_60
REMARK   23  A    between atoms: C_52  and  O_59
REMARK   24  A    between atoms: C_54  and  C_57
REMARK   25  A    between atoms: C_57  and  O_58
REMARK   26  A    between atoms: C_64  and  O_69
REMARK   27  A    between atoms: C_65  and  O_68
REMARK   28  A    between atoms: C_70  and  O_71
REMARK                            x       y       z     vdW  Elec       q    Type
REMARK                         _______ _______ _______ _____ _____    ______ ____
ROOT
ATOM      1  O   UNL     1       6.541   0.100  24.105  0.00  0.00    -0.453 OA
ENDROOT
BRANCH   1   2
ATOM      2  C   UNL     1       5.857  -1.064  24.427  0.00  0.00    +0.214 A 
ATOM      3  C   UNL     1       5.659  -2.191  23.432  0.00  0.00    +0.238 A 
ATOM      4  O   UNL     1       6.174  -2.139  22.320  0.00  0.00    -0.283 OA
ATOM      5  C   UNL     1       4.779  -3.333  23.835  0.00  0.00    +0.109 A 
ATOM      6  C   UNL     1       4.179  -3.276  25.083  0.00  0.00    +0.147 A 
ATOM      7  C   UNL     1       3.268  -4.254  25.529  0.00  0.00    +0.093 A 
ATOM      8  C   UNL     1       2.914  -5.320  24.711  0.00  0.00    +0.131 A 
ATOM      9  C   UNL     1       3.551  -5.422  23.470  0.00  0.00    +0.092 A 
ATOM     10  O   UNL     1       4.414  -2.266  25.958  0.00  0.00    -0.451 OA
ATOM     11  C   UNL     1       4.468  -4.440  23.036  0.00  0.00    +0.135 A 
ATOM     12  C   UNL     1       5.229  -1.195  25.621  0.00  0.00    +0.181 A 
BRANCH  12  13
ATOM     13  C   UNL     1       5.241  -0.292  26.810  0.00  0.00    +0.025 A 
ATOM     14  C   UNL     1       3.970   0.194  27.195  0.00  0.00    +0.015 A 
ATOM     15  C   UNL     1       3.825   1.381  27.913  0.00  0.00    +0.050 A 
ATOM     16  C   UNL     1       4.958   2.059  28.312  0.00  0.00    +0.158 A 
ATOM     17  C   UNL     1       6.222   1.520  28.079  0.00  0.00    +0.159 A 
ATOM     18  C   UNL     1       6.380   0.355  27.313  0.00  0.00    +0.060 A 
BRANCH  17  19
ATOM     19  O   UNL     1       7.289   2.218  28.579  0.00  0.00    -0.503 OA
ATOM     20  H   UNL     1       7.920   2.359  27.852  0.00  0.00    +0.292 HD
ENDBRANCH  17  19
BRANCH  16  21
ATOM     21  O   UNL     1       4.818   3.283  28.900  0.00  0.00    -0.503 OA
ATOM     22  H   UNL     1       5.565   3.349  29.526  0.00  0.00    +0.292 HD
ENDBRANCH  16  21
ENDBRANCH  12  13
BRANCH  11  23
ATOM     23  O   UNL     1       5.038  -4.599  21.803  0.00  0.00    -0.506 OA
ATOM     24  H   UNL     1       4.439  -4.274  21.111  0.00  0.00    +0.292 HD
ENDBRANCH  11  23
BRANCH   8  25
ATOM     25  O   UNL     1       1.940  -6.170  25.201  0.00  0.00    -0.461 OA
BRANCH  25  26
ATOM     26  C   UNL     1       2.424  -7.267  26.001  0.00  0.00    +0.339 C 
ATOM     27  O   UNL     1       1.923  -7.195  27.340  0.00  0.00    -0.331 OA
ATOM     28  C   UNL     1       2.489  -6.111  28.101  0.00  0.00    +0.179 C 
ATOM     29  C   UNL     1       3.991  -6.339  28.296  0.00  0.00    +0.177 C 
ATOM     30  C   UNL     1       4.664  -6.386  26.923  0.00  0.00    +0.180 C 
ATOM     31  C   UNL     1       3.972  -7.405  26.003  0.00  0.00    +0.214 C 
BRANCH  31  32
ATOM     32  O   UNL     1       4.542  -7.372  24.689  0.00  0.00    -0.383 OA
ATOM     33  H   UNL     1       4.810  -6.455  24.498  0.00  0.00    +0.210 HD
ENDBRANCH  31  32
BRANCH  30  34
ATOM     34  O   UNL     1       6.055  -6.703  27.114  0.00  0.00    -0.386 OA
ATOM     35  H   UNL     1       6.112  -7.615  27.455  0.00  0.00    +0.210 HD
ENDBRANCH  30  34
BRANCH  29  36
ATOM     36  O   UNL     1       4.225  -7.580  28.980  0.00  0.00    -0.386 OA
ATOM     37  H   UNL     1       3.363  -7.866  29.334  0.00  0.00    +0.210 HD
ENDBRANCH  29  36
BRANCH  28  38
ATOM     38  C   UNL     1       1.758  -6.026  29.447  0.00  0.00    +0.190 C 
BRANCH  38  39
ATOM     39  O   UNL     1       2.620  -5.554  30.484  0.00  0.00    -0.392 OA
ATOM     40  H   UNL     1       2.526  -6.136  31.256  0.00  0.00    +0.210 HD
ENDBRANCH  38  39
ENDBRANCH  28  38
ENDBRANCH  25  26
ENDBRANCH   8  25
ENDBRANCH   1   2
BRANCH   1  42
ATOM     41  C   UNL     1       8.339   1.661  23.571  0.00  0.00    +0.221 C 
ATOM     42  C   UNL     1       7.946   0.142  23.727  0.00  0.00    +0.340 C 
ATOM     43  O   UNL     1       8.695  -0.481  24.783  0.00  0.00    -0.331 OA
ATOM     44  C   UNL     1      10.122  -0.419  24.673  0.00  0.00    +0.179 C 
ATOM     45  C   UNL     1      10.639   1.012  24.522  0.00  0.00    +0.177 C 
ATOM     46  C   UNL     1       9.880   1.815  23.457  0.00  0.00    +0.180 C 
BRANCH  46  47
ATOM     47  O   UNL     1      10.336   3.172  23.574  0.00  0.00    -0.386 OA
ATOM     48  H   UNL     1      11.104   3.335  22.987  0.00  0.00    +0.210 HD
ENDBRANCH  46  47
BRANCH  45  49
ATOM     49  O   UNL     1      12.045   0.987  24.225  0.00  0.00    -0.386 OA
ATOM     50  H   UNL     1      12.130   1.134  23.264  0.00  0.00    +0.210 HD
ENDBRANCH  45  49
BRANCH  41  51
ATOM     51  O   UNL     1       7.719   2.402  24.661  0.00  0.00    -0.336 OA
BRANCH  51  57
ATOM     52  C   UNL     1       6.621   4.623  25.191  0.00  0.00    +0.263 C 
ATOM     53  C   UNL     1       7.826   5.512  24.851  0.00  0.00    +0.191 C 
ATOM     54  C   UNL     1       7.902   5.791  23.349  0.00  0.00    +0.172 C 
ATOM     55  C   UNL     1       7.834   4.476  22.569  0.00  0.00    +0.197 C 
ATOM     56  O   UNL     1       6.710   3.675  22.949  0.00  0.00    -0.345 OA
ATOM     57  C   UNL     1       6.660   3.315  24.350  0.00  0.00    +0.294 C 
BRANCH  54  58
ATOM     58  O   UNL     1       6.837   6.651  22.932  0.00  0.00    -0.387 OA
ATOM     59  H   UNL     1       7.236   7.365  22.399  0.00  0.00    +0.210 HD
ENDBRANCH  54  58
BRANCH  53  60
ATOM     60  O   UNL     1       9.054   4.925  25.305  0.00  0.00    -0.385 OA
ATOM     61  H   UNL     1       9.392   4.317  24.614  0.00  0.00    +0.210 HD
ENDBRANCH  53  60
BRANCH  52  62
ATOM     62  O   UNL     1       5.385   5.343  24.893  0.00  0.00    -0.450 OA
BRANCH  62  63
ATOM     63  C   UNL     1       4.269   4.647  25.184  0.00  0.00    +0.332 C 
ATOM     64  O   UNL     1       3.965   4.230  26.290  0.00  0.00    -0.246 OA
BRANCH  63  66
ATOM     65  C   UNL     1       3.453   5.444  23.041  0.00  0.00    +0.015 C 
ATOM     66  C   UNL     1       3.461   4.466  23.961  0.00  0.00    +0.092 C 
BRANCH  65  69
ATOM     67  C   UNL     1       1.553   4.234  19.959  0.00  0.00    +0.162 A 
ATOM     68  C   UNL     1       2.192   4.228  21.211  0.00  0.00    +0.057 A 
ATOM     69  C   UNL     1       2.762   5.394  21.744  0.00  0.00    -0.021 A 
ATOM     70  C   UNL     1       2.640   6.589  21.020  0.00  0.00    +0.012 A 
ATOM     71  C   UNL     1       2.012   6.609  19.779  0.00  0.00    +0.050 A 
ATOM     72  C   UNL     1       1.498   5.430  19.241  0.00  0.00    +0.158 A 
BRANCH  72  73
ATOM     73  O   UNL     1       1.018   5.522  17.966  0.00  0.00    -0.503 OA
ATOM     74  H   UNL     1       0.087   5.792  18.054  0.00  0.00    +0.292 HD
ENDBRANCH  72  73
BRANCH  67  76
ATOM     75  C   UNL     1       0.914   2.008  20.541  0.00  0.00    +0.277 C 
ATOM     76  O   UNL     1       1.106   3.008  19.544  0.00  0.00    -0.491 OA
ENDBRANCH  67  76
ENDBRANCH  65  69
ENDBRANCH  63  66
ENDBRANCH  62  63
ENDBRANCH  52  62
ENDBRANCH  51  57
ENDBRANCH  41  51
BRANCH  44  77
ATOM     77  C   UNL     1      10.722  -1.416  23.659  0.00  0.00    +0.190 C 
BRANCH  77  78
ATOM     78  O   UNL     1      10.070  -2.686  23.731  0.00  0.00    -0.392 OA
ATOM     79  H   UNL     1      10.760  -3.373  23.709  0.00  0.00    +0.210 HD
ENDBRANCH  77  78
ENDBRANCH  44  77
ENDBRANCH   1  42
TORSDOF 27
ENDMDL
