MODEL 1
REMARK VINA RESULT:      -8.0      0.000      0.000
REMARK  Name = 
REMARK  17 active torsions:
REMARK  status: ('A' for Active; 'I' for Inactive)
REMARK    1  A    between atoms: C_3  and  O_48
REMARK    2  A    between atoms: C_4  and  O_47
REMARK    3  A    between atoms: C_6  and  C_7
REMARK    4  A    between atoms: C_8  and  C_9
REMARK    5  A    between atoms: C_9  and  O_11
REMARK    6  A    between atoms: O_11  and  C_12
REMARK    7  A    between atoms: C_12  and  C_13
REMARK    8  A    between atoms: C_15  and  O_46
REMARK    9  A    between atoms: C_17  and  O_45
REMARK   10  A    between atoms: C_18  and  O_44
REMARK   11  A    between atoms: C_19  and  O_22
REMARK   12  A    between atoms: O_22  and  C_23
REMARK   13  A    between atoms: C_24  and  C_36
REMARK   14  A    between atoms: C_28  and  O_35
REMARK   15  A    between atoms: C_30  and  O_34
REMARK   16  A    between atoms: C_38  and  O_43
REMARK   17  A    between atoms: C_39  and  O_42
REMARK                            x       y       z     vdW  Elec       q    Type
REMARK                         _______ _______ _______ _____ _____    ______ ____
ROOT
ATOM      1  C   UNL     1       6.643  -4.973  27.619  0.00  0.00    +0.191 C 
ATOM      2  O   UNL     1       5.989  -4.197  26.574  0.00  0.00    -0.330 OA
ATOM      3  C   UNL     1       4.795  -3.504  27.050  0.00  0.00    +0.340 C 
ATOM      4  C   UNL     1       3.784  -4.562  27.542  0.00  0.00    +0.214 C 
ATOM      5  C   UNL     1       4.408  -5.415  28.641  0.00  0.00    +0.180 C 
ATOM      6  C   UNL     1       5.696  -6.071  28.138  0.00  0.00    +0.178 C 
ENDROOT
BRANCH   6   7
ATOM      7  O   UNL     1       5.394  -7.018  27.095  0.00  0.00    -0.386 OA
ATOM      8  H   UNL     1       6.087  -6.920  26.408  0.00  0.00    +0.210 HD
ENDBRANCH   6   7
BRANCH   5   9
ATOM      9  O   UNL     1       3.473  -6.417  29.051  0.00  0.00    -0.386 OA
ATOM     10  H   UNL     1       3.941  -7.267  28.929  0.00  0.00    +0.210 HD
ENDBRANCH   5   9
BRANCH   4  11
ATOM     11  O   UNL     1       3.403  -5.416  26.428  0.00  0.00    -0.383 OA
ATOM     12  H   UNL     1       3.416  -4.841  25.634  0.00  0.00    +0.210 HD
ENDBRANCH   4  11
BRANCH   3  13
ATOM     13  O   UNL     1       4.189  -2.760  25.958  0.00  0.00    -0.453 OA
BRANCH  13  14
ATOM     14  C   UNL     1       4.919  -1.700  25.397  0.00  0.00    +0.214 A 
ATOM     15  C   UNL     1       4.925  -0.325  26.004  0.00  0.00    +0.238 A 
ATOM     16  O   UNL     1       4.436  -0.126  27.107  0.00  0.00    -0.283 OA
ATOM     17  C   UNL     1       5.497   0.773  25.190  0.00  0.00    +0.109 A 
ATOM     18  C   UNL     1       6.232   0.426  24.059  0.00  0.00    +0.147 A 
ATOM     19  C   UNL     1       6.858   1.405  23.281  0.00  0.00    +0.092 A 
ATOM     20  C   UNL     1       6.715   2.743  23.628  0.00  0.00    +0.124 A 
ATOM     21  C   UNL     1       5.946   3.115  24.724  0.00  0.00    +0.091 A 
ATOM     22  O   UNL     1       6.370  -0.868  23.634  0.00  0.00    -0.451 OA
ATOM     23  C   UNL     1       5.333   2.131  25.501  0.00  0.00    +0.135 A 
ATOM     24  C   UNL     1       5.618  -1.850  24.252  0.00  0.00    +0.181 A 
BRANCH  24  25
ATOM     25  C   UNL     1       5.612  -3.098  23.475  0.00  0.00    +0.025 A 
ATOM     26  C   UNL     1       6.742  -3.442  22.711  0.00  0.00    +0.015 A 
ATOM     27  C   UNL     1       6.751  -4.605  21.941  0.00  0.00    +0.050 A 
ATOM     28  C   UNL     1       5.635  -5.426  21.949  0.00  0.00    +0.158 A 
ATOM     29  C   UNL     1       4.534  -5.128  22.749  0.00  0.00    +0.159 A 
ATOM     30  C   UNL     1       4.512  -3.967  23.516  0.00  0.00    +0.060 A 
BRANCH  29  31
ATOM     31  O   UNL     1       3.489  -6.011  22.743  0.00  0.00    -0.503 OA
ATOM     32  H   UNL     1       2.952  -5.853  23.538  0.00  0.00    +0.292 HD
ENDBRANCH  29  31
BRANCH  28  33
ATOM     33  O   UNL     1       5.621  -6.531  21.148  0.00  0.00    -0.503 OA
ATOM     34  H   UNL     1       5.269  -7.245  21.717  0.00  0.00    +0.292 HD
ENDBRANCH  28  33
ENDBRANCH  24  25
BRANCH  23  35
ATOM     35  O   UNL     1       4.544   2.518  26.548  0.00  0.00    -0.506 OA
ATOM     36  H   UNL     1       5.094   2.748  27.315  0.00  0.00    +0.292 HD
ENDBRANCH  23  35
BRANCH  20  37
ATOM     37  O   UNL     1       7.307   3.737  22.907  0.00  0.00    -0.507 OA
ATOM     38  H   UNL     1       8.063   3.374  22.415  0.00  0.00    +0.292 HD
ENDBRANCH  20  37
ENDBRANCH  13  14
ENDBRANCH   3  13
BRANCH   1  39
ATOM     39  C   UNL     1       7.957  -5.599  27.104  0.00  0.00    +0.266 C 
BRANCH  39  40
ATOM     40  O   UNL     1       8.940  -4.605  26.717  0.00  0.00    -0.459 OA
BRANCH  40  41
ATOM     41  C   UNL     1       9.354  -4.611  25.423  0.00  0.00    +0.332 C 
ATOM     42  O   UNL     1       9.733  -5.589  24.801  0.00  0.00    -0.246 OA
BRANCH  41  44
ATOM     43  C   UNL     1      10.029  -2.835  23.853  0.00  0.00    +0.015 C 
ATOM     44  C   UNL     1       9.254  -3.234  24.876  0.00  0.00    +0.092 C 
BRANCH  43  46
ATOM     45  C   UNL     1       9.536  -1.284  21.916  0.00  0.00    +0.012 A 
ATOM     46  C   UNL     1       9.998  -1.495  23.228  0.00  0.00    -0.021 A 
ATOM     47  C   UNL     1      10.389  -0.380  23.986  0.00  0.00    +0.057 A 
ATOM     48  C   UNL     1      10.348   0.895  23.422  0.00  0.00    +0.159 A 
ATOM     49  C   UNL     1       9.907   1.086  22.117  0.00  0.00    +0.158 A 
ATOM     50  C   UNL     1       9.495   0.002  21.358  0.00  0.00    +0.050 A 
BRANCH  49  51
ATOM     51  O   UNL     1       9.894   2.364  21.628  0.00  0.00    -0.503 OA
ATOM     52  H   UNL     1      10.243   2.952  22.318  0.00  0.00    +0.292 HD
ENDBRANCH  49  51
BRANCH  48  53
ATOM     53  O   UNL     1      10.739   1.972  24.167  0.00  0.00    -0.503 OA
ATOM     54  H   UNL     1      11.620   2.206  23.815  0.00  0.00    +0.292 HD
ENDBRANCH  48  53
ENDBRANCH  43  46
ENDBRANCH  41  44
ENDBRANCH  40  41
ENDBRANCH  39  40
ENDBRANCH   1  39
TORSDOF 17
ENDMDL
MODEL 2
REMARK VINA RESULT:      -7.8      3.092      7.324
REMARK  Name = 
REMARK  17 active torsions:
REMARK  status: ('A' for Active; 'I' for Inactive)
REMARK    1  A    between atoms: C_3  and  O_48
REMARK    2  A    between atoms: C_4  and  O_47
REMARK    3  A    between atoms: C_6  and  C_7
REMARK    4  A    between atoms: C_8  and  C_9
REMARK    5  A    between atoms: C_9  and  O_11
REMARK    6  A    between atoms: O_11  and  C_12
REMARK    7  A    between atoms: C_12  and  C_13
REMARK    8  A    between atoms: C_15  and  O_46
REMARK    9  A    between atoms: C_17  and  O_45
REMARK   10  A    between atoms: C_18  and  O_44
REMARK   11  A    between atoms: C_19  and  O_22
REMARK   12  A    between atoms: O_22  and  C_23
REMARK   13  A    between atoms: C_24  and  C_36
REMARK   14  A    between atoms: C_28  and  O_35
REMARK   15  A    between atoms: C_30  and  O_34
REMARK   16  A    between atoms: C_38  and  O_43
REMARK   17  A    between atoms: C_39  and  O_42
REMARK                            x       y       z     vdW  Elec       q    Type
REMARK                         _______ _______ _______ _____ _____    ______ ____
ROOT
ATOM      1  C   UNL     1       6.654   3.221  27.370  0.00  0.00    +0.191 C 
ATOM      2  O   UNL     1       7.579   2.407  26.593  0.00  0.00    -0.330 OA
ATOM      3  C   UNL     1       7.117   1.032  26.426  0.00  0.00    +0.340 C 
ATOM      4  C   UNL     1       6.996   0.388  27.825  0.00  0.00    +0.214 C 
ATOM      5  C   UNL     1       6.041   1.196  28.695  0.00  0.00    +0.180 C 
ATOM      6  C   UNL     1       6.509   2.650  28.793  0.00  0.00    +0.178 C 
ENDROOT
BRANCH   6   7
ATOM      7  O   UNL     1       7.762   2.719  29.500  0.00  0.00    -0.386 OA
ATOM      8  H   UNL     1       7.922   1.833  29.889  0.00  0.00    +0.210 HD
ENDBRANCH   6   7
BRANCH   5   9
ATOM      9  O   UNL     1       5.978   0.610  29.999  0.00  0.00    -0.386 OA
ATOM     10  H   UNL     1       6.281  -0.313  29.877  0.00  0.00    +0.210 HD
ENDBRANCH   5   9
BRANCH   4  11
ATOM     11  O   UNL     1       8.309   0.357  28.452  0.00  0.00    -0.383 OA
ATOM     12  H   UNL     1       8.907   0.839  27.843  0.00  0.00    +0.210 HD
ENDBRANCH   4  11
BRANCH   3  13
ATOM     13  O   UNL     1       8.088   0.276  25.652  0.00  0.00    -0.453 OA
BRANCH  13  14
ATOM     14  C   UNL     1       7.612  -0.742  24.810  0.00  0.00    +0.214 A 
ATOM     15  C   UNL     1       7.840  -2.197  25.108  0.00  0.00    +0.238 A 
ATOM     16  O   UNL     1       8.295  -2.550  26.187  0.00  0.00    -0.283 OA
ATOM     17  C   UNL     1       7.541  -3.165  24.027  0.00  0.00    +0.109 A 
ATOM     18  C   UNL     1       6.818  -2.707  22.929  0.00  0.00    +0.147 A 
ATOM     19  C   UNL     1       6.440  -3.579  21.903  0.00  0.00    +0.092 A 
ATOM     20  C   UNL     1       6.822  -4.914  21.971  0.00  0.00    +0.124 A 
ATOM     21  C   UNL     1       7.585  -5.382  23.033  0.00  0.00    +0.091 A 
ATOM     22  O   UNL     1       6.454  -1.396  22.777  0.00  0.00    -0.451 OA
ATOM     23  C   UNL     1       7.949  -4.507  24.058  0.00  0.00    +0.135 A 
ATOM     24  C   UNL     1       6.963  -0.463  23.659  0.00  0.00    +0.181 A 
BRANCH  24  25
ATOM     25  C   UNL     1       6.770   0.911  23.169  0.00  0.00    +0.025 A 
ATOM     26  C   UNL     1       7.702   1.460  22.270  0.00  0.00    +0.015 A 
ATOM     27  C   UNL     1       7.559   2.771  21.814  0.00  0.00    +0.050 A 
ATOM     28  C   UNL     1       6.478   3.520  22.247  0.00  0.00    +0.158 A 
ATOM     29  C   UNL     1       5.515   2.966  23.088  0.00  0.00    +0.159 A 
ATOM     30  C   UNL     1       5.651   1.662  23.556  0.00  0.00    +0.060 A 
BRANCH  29  31
ATOM     31  O   UNL     1       4.449   3.751  23.435  0.00  0.00    -0.503 OA
ATOM     32  H   UNL     1       4.378   3.758  24.405  0.00  0.00    +0.292 HD
ENDBRANCH  29  31
BRANCH  28  33
ATOM     33  O   UNL     1       6.372   4.822  21.849  0.00  0.00    -0.503 OA
ATOM     34  H   UNL     1       5.485   5.102  22.151  0.00  0.00    +0.292 HD
ENDBRANCH  28  33
ENDBRANCH  24  25
BRANCH  23  35
ATOM     35  O   UNL     1       8.737  -4.975  25.072  0.00  0.00    -0.506 OA
ATOM     36  H   UNL     1       9.597  -4.523  25.065  0.00  0.00    +0.292 HD
ENDBRANCH  23  35
BRANCH  20  37
ATOM     37  O   UNL     1       6.478  -5.807  21.001  0.00  0.00    -0.507 OA
ATOM     38  H   UNL     1       5.955  -5.356  20.316  0.00  0.00    +0.292 HD
ENDBRANCH  20  37
ENDBRANCH  13  14
ENDBRANCH   3  13
BRANCH   1  39
ATOM     39  C   UNL     1       7.126   4.691  27.429  0.00  0.00    +0.266 C 
BRANCH  39  40
ATOM     40  O   UNL     1       6.202   5.604  26.783  0.00  0.00    -0.459 OA
BRANCH  40  41
ATOM     41  C   UNL     1       6.416   5.877  25.470  0.00  0.00    +0.332 C 
ATOM     42  O   UNL     1       5.551   6.065  24.630  0.00  0.00    -0.246 OA
BRANCH  41  44
ATOM     43  C   UNL     1       8.488   4.985  24.478  0.00  0.00    +0.015 C 
ATOM     44  C   UNL     1       7.879   5.927  25.218  0.00  0.00    +0.092 C 
BRANCH  43  46
ATOM     45  C   UNL     1      10.524   3.891  23.449  0.00  0.00    +0.012 A 
ATOM     46  C   UNL     1       9.932   4.952  24.156  0.00  0.00    -0.021 A 
ATOM     47  C   UNL     1      10.736   6.045  24.518  0.00  0.00    +0.057 A 
ATOM     48  C   UNL     1      12.096   6.043  24.206  0.00  0.00    +0.159 A 
ATOM     49  C   UNL     1      12.671   4.977  23.523  0.00  0.00    +0.158 A 
ATOM     50  C   UNL     1      11.892   3.898  23.136  0.00  0.00    +0.050 A 
BRANCH  49  51
ATOM     51  O   UNL     1      14.011   5.042  23.250  0.00  0.00    -0.503 OA
ATOM     52  H   UNL     1      14.464   5.355  24.051  0.00  0.00    +0.292 HD
ENDBRANCH  49  51
BRANCH  48  53
ATOM     53  O   UNL     1      12.870   7.108  24.570  0.00  0.00    -0.503 OA
ATOM     54  H   UNL     1      12.438   7.879  24.152  0.00  0.00    +0.292 HD
ENDBRANCH  48  53
ENDBRANCH  43  46
ENDBRANCH  41  44
ENDBRANCH  40  41
ENDBRANCH  39  40
ENDBRANCH   1  39
TORSDOF 17
ENDMDL
MODEL 3
REMARK VINA RESULT:      -7.6      1.946      7.786
REMARK  Name = 
REMARK  17 active torsions:
REMARK  status: ('A' for Active; 'I' for Inactive)
REMARK    1  A    between atoms: C_3  and  O_48
REMARK    2  A    between atoms: C_4  and  O_47
REMARK    3  A    between atoms: C_6  and  C_7
REMARK    4  A    between atoms: C_8  and  C_9
REMARK    5  A    between atoms: C_9  and  O_11
REMARK    6  A    between atoms: O_11  and  C_12
REMARK    7  A    between atoms: C_12  and  C_13
REMARK    8  A    between atoms: C_15  and  O_46
REMARK    9  A    between atoms: C_17  and  O_45
REMARK   10  A    between atoms: C_18  and  O_44
REMARK   11  A    between atoms: C_19  and  O_22
REMARK   12  A    between atoms: O_22  and  C_23
REMARK   13  A    between atoms: C_24  and  C_36
REMARK   14  A    between atoms: C_28  and  O_35
REMARK   15  A    between atoms: C_30  and  O_34
REMARK   16  A    between atoms: C_38  and  O_43
REMARK   17  A    between atoms: C_39  and  O_42
REMARK                            x       y       z     vdW  Elec       q    Type
REMARK                         _______ _______ _______ _____ _____    ______ ____
ROOT
ATOM      1  C   UNL     1       8.041   1.593  22.557  0.00  0.00    +0.191 C 
ATOM      2  O   UNL     1       8.346   1.104  23.896  0.00  0.00    -0.330 OA
ATOM      3  C   UNL     1       7.274   1.371  24.851  0.00  0.00    +0.340 C 
ATOM      4  C   UNL     1       7.081   2.900  24.949  0.00  0.00    +0.214 C 
ATOM      5  C   UNL     1       6.760   3.479  23.575  0.00  0.00    +0.180 C 
ATOM      6  C   UNL     1       7.865   3.122  22.577  0.00  0.00    +0.178 C 
ENDROOT
BRANCH   6   7
ATOM      7  O   UNL     1       9.095   3.773  22.947  0.00  0.00    -0.386 OA
ATOM      8  H   UNL     1       9.616   3.892  22.125  0.00  0.00    +0.210 HD
ENDBRANCH   6   7
BRANCH   5   9
ATOM      9  O   UNL     1       6.631   4.900  23.679  0.00  0.00    -0.386 OA
ATOM     10  H   UNL     1       7.023   5.128  24.546  0.00  0.00    +0.210 HD
ENDBRANCH   5   9
BRANCH   4  11
ATOM     11  O   UNL     1       8.303   3.506  25.453  0.00  0.00    -0.383 OA
ATOM     12  H   UNL     1       9.039   3.012  25.032  0.00  0.00    +0.210 HD
ENDBRANCH   4  11
BRANCH   3  13
ATOM     13  O   UNL     1       7.646   0.868  26.163  0.00  0.00    -0.453 OA
BRANCH  13  14
ATOM     14  C   UNL     1       7.268  -0.442  26.498  0.00  0.00    +0.214 A 
ATOM     15  C   UNL     1       8.120  -1.631  26.154  0.00  0.00    +0.238 A 
ATOM     16  O   UNL     1       9.258  -1.483  25.728  0.00  0.00    -0.283 OA
ATOM     17  C   UNL     1       7.507  -2.971  26.305  0.00  0.00    +0.109 A 
ATOM     18  C   UNL     1       6.307  -3.059  27.006  0.00  0.00    +0.147 A 
ATOM     19  C   UNL     1       5.705  -4.298  27.246  0.00  0.00    +0.092 A 
ATOM     20  C   UNL     1       6.301  -5.451  26.748  0.00  0.00    +0.124 A 
ATOM     21  C   UNL     1       7.472  -5.382  26.005  0.00  0.00    +0.091 A 
ATOM     22  O   UNL     1       5.644  -1.959  27.479  0.00  0.00    -0.451 OA
ATOM     23  C   UNL     1       8.072  -4.142  25.778  0.00  0.00    +0.135 A 
ATOM     24  C   UNL     1       6.092  -0.706  27.106  0.00  0.00    +0.181 A 
BRANCH  24  25
ATOM     25  C   UNL     1       5.097   0.336  27.397  0.00  0.00    +0.025 A 
ATOM     26  C   UNL     1       5.211   1.088  28.581  0.00  0.00    +0.015 A 
ATOM     27  C   UNL     1       4.263   2.062  28.897  0.00  0.00    +0.050 A 
ATOM     28  C   UNL     1       3.213   2.289  28.021  0.00  0.00    +0.158 A 
ATOM     29  C   UNL     1       3.125   1.593  26.817  0.00  0.00    +0.159 A 
ATOM     30  C   UNL     1       4.061   0.615  26.495  0.00  0.00    +0.060 A 
BRANCH  29  31
ATOM     31  O   UNL     1       2.088   1.906  25.980  0.00  0.00    -0.503 OA
ATOM     32  H   UNL     1       2.440   1.986  25.077  0.00  0.00    +0.292 HD
ENDBRANCH  29  31
BRANCH  28  33
ATOM     33  O   UNL     1       2.253   3.198  28.359  0.00  0.00    -0.503 OA
ATOM     34  H   UNL     1       1.426   2.679  28.406  0.00  0.00    +0.292 HD
ENDBRANCH  28  33
ENDBRANCH  24  25
BRANCH  23  35
ATOM     35  O   UNL     1       9.198  -4.090  25.006  0.00  0.00    -0.506 OA
ATOM     36  H   UNL     1       9.952  -3.776  25.533  0.00  0.00    +0.292 HD
ENDBRANCH  23  35
BRANCH  20  37
ATOM     37  O   UNL     1       5.758  -6.684  26.957  0.00  0.00    -0.507 OA
ATOM     38  H   UNL     1       5.220  -6.669  27.767  0.00  0.00    +0.292 HD
ENDBRANCH  20  37
ENDBRANCH  13  14
ENDBRANCH   3  13
BRANCH   1  39
ATOM     39  C   UNL     1       9.149   1.195  21.557  0.00  0.00    +0.266 C 
BRANCH  39  40
ATOM     40  O   UNL     1       9.120  -0.216  21.218  0.00  0.00    -0.459 OA
BRANCH  40  41
ATOM     41  C   UNL     1       9.692  -1.078  22.097  0.00  0.00    +0.332 C 
ATOM     42  O   UNL     1      10.748  -0.903  22.683  0.00  0.00    -0.246 OA
BRANCH  41  44
ATOM     43  C   UNL     1       7.519  -2.138  22.570  0.00  0.00    +0.015 C 
ATOM     44  C   UNL     1       8.817  -2.268  22.248  0.00  0.00    +0.092 C 
BRANCH  43  46
ATOM     45  C   UNL     1       5.299  -3.088  23.328  0.00  0.00    +0.012 A 
ATOM     46  C   UNL     1       6.561  -3.254  22.730  0.00  0.00    -0.021 A 
ATOM     47  C   UNL     1       6.895  -4.517  22.215  0.00  0.00    +0.057 A 
ATOM     48  C   UNL     1       5.998  -5.579  22.336  0.00  0.00    +0.159 A 
ATOM     49  C   UNL     1       4.762  -5.403  22.948  0.00  0.00    +0.158 A 
ATOM     50  C   UNL     1       4.401  -4.160  23.443  0.00  0.00    +0.050 A 
BRANCH  49  51
ATOM     51  O   UNL     1       3.932  -6.489  23.033  0.00  0.00    -0.503 OA
ATOM     52  H   UNL     1       4.255  -7.161  22.411  0.00  0.00    +0.292 HD
ENDBRANCH  49  51
BRANCH  48  53
ATOM     53  O   UNL     1       6.337  -6.805  21.839  0.00  0.00    -0.503 OA
ATOM     54  H   UNL     1       7.131  -6.637  21.295  0.00  0.00    +0.292 HD
ENDBRANCH  48  53
ENDBRANCH  43  46
ENDBRANCH  41  44
ENDBRANCH  40  41
ENDBRANCH  39  40
ENDBRANCH   1  39
TORSDOF 17
ENDMDL
MODEL 4
REMARK VINA RESULT:      -7.5      2.143      4.269
REMARK  Name = 
REMARK  17 active torsions:
REMARK  status: ('A' for Active; 'I' for Inactive)
REMARK    1  A    between atoms: C_3  and  O_48
REMARK    2  A    between atoms: C_4  and  O_47
REMARK    3  A    between atoms: C_6  and  C_7
REMARK    4  A    between atoms: C_8  and  C_9
REMARK    5  A    between atoms: C_9  and  O_11
REMARK    6  A    between atoms: O_11  and  C_12
REMARK    7  A    between atoms: C_12  and  C_13
REMARK    8  A    between atoms: C_15  and  O_46
REMARK    9  A    between atoms: C_17  and  O_45
REMARK   10  A    between atoms: C_18  and  O_44
REMARK   11  A    between atoms: C_19  and  O_22
REMARK   12  A    between atoms: O_22  and  C_23
REMARK   13  A    between atoms: C_24  and  C_36
REMARK   14  A    between atoms: C_28  and  O_35
REMARK   15  A    between atoms: C_30  and  O_34
REMARK   16  A    between atoms: C_38  and  O_43
REMARK   17  A    between atoms: C_39  and  O_42
REMARK                            x       y       z     vdW  Elec       q    Type
REMARK                         _______ _______ _______ _____ _____    ______ ____
ROOT
ATOM      1  C   UNL     1       9.784  -2.834  24.531  0.00  0.00    +0.191 C 
ATOM      2  O   UNL     1       8.545  -2.302  25.082  0.00  0.00    -0.330 OA
ATOM      3  C   UNL     1       8.309  -2.734  26.458  0.00  0.00    +0.340 C 
ATOM      4  C   UNL     1       8.198  -4.275  26.470  0.00  0.00    +0.214 C 
ATOM      5  C   UNL     1       9.467  -4.898  25.899  0.00  0.00    +0.180 C 
ATOM      6  C   UNL     1       9.730  -4.372  24.486  0.00  0.00    +0.178 C 
ENDROOT
BRANCH   6   7
ATOM      7  O   UNL     1       8.693  -4.819  23.592  0.00  0.00    -0.386 OA
ATOM      8  H   UNL     1       7.846  -4.766  24.083  0.00  0.00    +0.210 HD
ENDBRANCH   6   7
BRANCH   5   9
ATOM      9  O   UNL     1       9.326  -6.321  25.877  0.00  0.00    -0.386 OA
ATOM     10  H   UNL     1       8.957  -6.526  24.994  0.00  0.00    +0.210 HD
ENDBRANCH   5   9
BRANCH   4  11
ATOM     11  O   UNL     1       7.059  -4.679  25.661  0.00  0.00    -0.383 OA
ATOM     12  H   UNL     1       7.434  -5.010  24.818  0.00  0.00    +0.210 HD
ENDBRANCH   4  11
BRANCH   3  13
ATOM     13  O   UNL     1       7.057  -2.178  26.941  0.00  0.00    -0.453 OA
BRANCH  13  14
ATOM     14  C   UNL     1       6.644  -0.938  26.427  0.00  0.00    +0.214 A 
ATOM     15  C   UNL     1       7.104   0.365  27.020  0.00  0.00    +0.238 A 
ATOM     16  O   UNL     1       7.995   0.390  27.858  0.00  0.00    -0.283 OA
ATOM     17  C   UNL     1       6.401   1.594  26.584  0.00  0.00    +0.109 A 
ATOM     18  C   UNL     1       5.569   1.504  25.470  0.00  0.00    +0.147 A 
ATOM     19  C   UNL     1       4.926   2.636  24.960  0.00  0.00    +0.092 A 
ATOM     20  C   UNL     1       5.099   3.860  25.597  0.00  0.00    +0.124 A 
ATOM     21  C   UNL     1       5.885   3.963  26.737  0.00  0.00    +0.091 A 
ATOM     22  O   UNL     1       5.317   0.321  24.828  0.00  0.00    -0.451 OA
ATOM     23  C   UNL     1       6.532   2.829  27.234  0.00  0.00    +0.135 A 
ATOM     24  C   UNL     1       5.771  -0.852  25.402  0.00  0.00    +0.181 A 
BRANCH  24  25
ATOM     25  C   UNL     1       5.137  -2.033  24.796  0.00  0.00    +0.025 A 
ATOM     26  C   UNL     1       4.064  -2.656  25.458  0.00  0.00    +0.015 A 
ATOM     27  C   UNL     1       3.465  -3.796  24.922  0.00  0.00    +0.050 A 
ATOM     28  C   UNL     1       3.933  -4.299  23.718  0.00  0.00    +0.158 A 
ATOM     29  C   UNL     1       4.954  -3.654  23.023  0.00  0.00    +0.159 A 
ATOM     30  C   UNL     1       5.563  -2.520  23.552  0.00  0.00    +0.060 A 
BRANCH  29  31
ATOM     31  O   UNL     1       5.329  -4.181  21.817  0.00  0.00    -0.503 OA
ATOM     32  H   UNL     1       5.002  -5.095  21.769  0.00  0.00    +0.292 HD
ENDBRANCH  29  31
BRANCH  28  33
ATOM     33  O   UNL     1       3.388  -5.449  23.224  0.00  0.00    -0.503 OA
ATOM     34  H   UNL     1       2.494  -5.488  23.619  0.00  0.00    +0.292 HD
ENDBRANCH  28  33
ENDBRANCH  24  25
BRANCH  23  35
ATOM     35  O   UNL     1       7.264   2.942  28.382  0.00  0.00    -0.506 OA
ATOM     36  H   UNL     1       6.715   2.726  29.153  0.00  0.00    +0.292 HD
ENDBRANCH  23  35
BRANCH  20  37
ATOM     37  O   UNL     1       4.499   4.995  25.140  0.00  0.00    -0.507 OA
ATOM     38  H   UNL     1       3.783   4.759  24.526  0.00  0.00    +0.292 HD
ENDBRANCH  20  37
ENDBRANCH  13  14
ENDBRANCH   3  13
BRANCH   1  39
ATOM     39  C   UNL     1      10.050  -2.267  23.119  0.00  0.00    +0.266 C 
BRANCH  39  40
ATOM     40  O   UNL     1       9.898  -0.825  23.054  0.00  0.00    -0.459 OA
BRANCH  40  41
ATOM     41  C   UNL     1       9.546  -0.291  21.856  0.00  0.00    +0.332 C 
ATOM     42  O   UNL     1       9.444  -0.903  20.805  0.00  0.00    -0.246 OA
BRANCH  41  44
ATOM     43  C   UNL     1       8.652   1.628  23.117  0.00  0.00    +0.015 C 
ATOM     44  C   UNL     1       9.288   1.161  22.029  0.00  0.00    +0.092 C 
BRANCH  43  46
ATOM     45  C   UNL     1       8.917   3.740  24.485  0.00  0.00    +0.012 A 
ATOM     46  C   UNL     1       8.360   3.051  23.392  0.00  0.00    -0.021 A 
ATOM     47  C   UNL     1       7.542   3.764  22.501  0.00  0.00    +0.057 A 
ATOM     48  C   UNL     1       7.270   5.113  22.730  0.00  0.00    +0.159 A 
ATOM     49  C   UNL     1       7.812   5.775  23.826  0.00  0.00    +0.158 A 
ATOM     50  C   UNL     1       8.641   5.098  24.707  0.00  0.00    +0.050 A 
BRANCH  49  51
ATOM     51  O   UNL     1       7.503   7.098  23.990  0.00  0.00    -0.503 OA
ATOM     52  H   UNL     1       7.510   7.517  23.113  0.00  0.00    +0.292 HD
ENDBRANCH  49  51
BRANCH  48  53
ATOM     53  O   UNL     1       6.466   5.793  21.860  0.00  0.00    -0.503 OA
ATOM     54  H   UNL     1       6.952   6.621  21.674  0.00  0.00    +0.292 HD
ENDBRANCH  48  53
ENDBRANCH  43  46
ENDBRANCH  41  44
ENDBRANCH  40  41
ENDBRANCH  39  40
ENDBRANCH   1  39
TORSDOF 17
ENDMDL
MODEL 5
REMARK VINA RESULT:      -7.4      2.033      5.490
REMARK  Name = 
REMARK  17 active torsions:
REMARK  status: ('A' for Active; 'I' for Inactive)
REMARK    1  A    between atoms: C_3  and  O_48
REMARK    2  A    between atoms: C_4  and  O_47
REMARK    3  A    between atoms: C_6  and  C_7
REMARK    4  A    between atoms: C_8  and  C_9
REMARK    5  A    between atoms: C_9  and  O_11
REMARK    6  A    between atoms: O_11  and  C_12
REMARK    7  A    between atoms: C_12  and  C_13
REMARK    8  A    between atoms: C_15  and  O_46
REMARK    9  A    between atoms: C_17  and  O_45
REMARK   10  A    between atoms: C_18  and  O_44
REMARK   11  A    between atoms: C_19  and  O_22
REMARK   12  A    between atoms: O_22  and  C_23
REMARK   13  A    between atoms: C_24  and  C_36
REMARK   14  A    between atoms: C_28  and  O_35
REMARK   15  A    between atoms: C_30  and  O_34
REMARK   16  A    between atoms: C_38  and  O_43
REMARK   17  A    between atoms: C_39  and  O_42
REMARK                            x       y       z     vdW  Elec       q    Type
REMARK                         _______ _______ _______ _____ _____    ______ ____
ROOT
ATOM      1  C   UNL     1       2.531  -4.298  24.541  0.00  0.00    +0.191 C 
ATOM      2  O   UNL     1       3.931  -4.484  24.899  0.00  0.00    -0.330 OA
ATOM      3  C   UNL     1       4.732  -5.001  23.792  0.00  0.00    +0.340 C 
ATOM      4  C   UNL     1       4.169  -6.382  23.390  0.00  0.00    +0.214 C 
ATOM      5  C   UNL     1       2.699  -6.259  23.005  0.00  0.00    +0.180 C 
ATOM      6  C   UNL     1       1.897  -5.647  24.155  0.00  0.00    +0.178 C 
ENDROOT
BRANCH   6   7
ATOM      7  O   UNL     1       1.885  -6.545  25.281  0.00  0.00    -0.386 OA
ATOM      8  H   UNL     1       1.173  -7.200  25.120  0.00  0.00    +0.210 HD
ENDBRANCH   6   7
BRANCH   5   9
ATOM      9  O   UNL     1       2.186  -7.554  22.680  0.00  0.00    -0.386 OA
ATOM     10  H   UNL     1       2.491  -8.137  23.405  0.00  0.00    +0.210 HD
ENDBRANCH   5   9
BRANCH   4  11
ATOM     11  O   UNL     1       4.297  -7.297  24.514  0.00  0.00    -0.383 OA
ATOM     12  H   UNL     1       3.417  -7.717  24.617  0.00  0.00    +0.210 HD
ENDBRANCH   4  11
BRANCH   3  13
ATOM     13  O   UNL     1       6.111  -5.171  24.219  0.00  0.00    -0.453 OA
BRANCH  13  14
ATOM     14  C   UNL     1       6.861  -4.018  24.500  0.00  0.00    +0.214 A 
ATOM     15  C   UNL     1       7.505  -3.200  23.415  0.00  0.00    +0.238 A 
ATOM     16  O   UNL     1       7.248  -3.411  22.238  0.00  0.00    -0.283 OA
ATOM     17  C   UNL     1       8.490  -2.176  23.832  0.00  0.00    +0.109 A 
ATOM     18  C   UNL     1       8.550  -1.847  25.184  0.00  0.00    +0.147 A 
ATOM     19  C   UNL     1       9.408  -0.842  25.642  0.00  0.00    +0.092 A 
ATOM     20  C   UNL     1      10.233  -0.187  24.734  0.00  0.00    +0.124 A 
ATOM     21  C   UNL     1      10.224  -0.533  23.389  0.00  0.00    +0.091 A 
ATOM     22  O   UNL     1       7.802  -2.487  26.135  0.00  0.00    -0.451 OA
ATOM     23  C   UNL     1       9.358  -1.531  22.939  0.00  0.00    +0.135 A 
ATOM     24  C   UNL     1       7.085  -3.610  25.767  0.00  0.00    +0.181 A 
BRANCH  24  25
ATOM     25  C   UNL     1       6.626  -4.370  26.939  0.00  0.00    +0.025 A 
ATOM     26  C   UNL     1       7.282  -5.565  27.287  0.00  0.00    +0.015 A 
ATOM     27  C   UNL     1       6.847  -6.322  28.376  0.00  0.00    +0.050 A 
ATOM     28  C   UNL     1       5.769  -5.872  29.120  0.00  0.00    +0.158 A 
ATOM     29  C   UNL     1       5.151  -4.659  28.823  0.00  0.00    +0.159 A 
ATOM     30  C   UNL     1       5.572  -3.899  27.735  0.00  0.00    +0.060 A 
BRANCH  29  31
ATOM     31  O   UNL     1       4.125  -4.256  29.633  0.00  0.00    -0.503 OA
ATOM     32  H   UNL     1       4.167  -4.770  30.457  0.00  0.00    +0.292 HD
ENDBRANCH  29  31
BRANCH  28  33
ATOM     33  O   UNL     1       5.306  -6.643  30.147  0.00  0.00    -0.503 OA
ATOM     34  H   UNL     1       6.077  -6.758  30.737  0.00  0.00    +0.292 HD
ENDBRANCH  28  33
ENDBRANCH  24  25
BRANCH  23  35
ATOM     35  O   UNL     1       9.397  -1.888  21.620  0.00  0.00    -0.506 OA
ATOM     36  H   UNL     1       8.496  -2.024  21.283  0.00  0.00    +0.292 HD
ENDBRANCH  23  35
BRANCH  20  37
ATOM     37  O   UNL     1      11.084   0.802  25.126  0.00  0.00    -0.507 OA
ATOM     38  H   UNL     1      10.595   1.639  25.202  0.00  0.00    +0.292 HD
ENDBRANCH  20  37
ENDBRANCH  13  14
ENDBRANCH   3  13
BRANCH   1  39
ATOM     39  C   UNL     1       1.744  -3.649  25.701  0.00  0.00    +0.266 C 
BRANCH  39  40
ATOM     40  O   UNL     1       2.112  -2.263  25.924  0.00  0.00    -0.459 OA
BRANCH  40  41
ATOM     41  C   UNL     1       2.607  -1.942  27.147  0.00  0.00    +0.332 C 
ATOM     42  O   UNL     1       2.312  -2.482  28.200  0.00  0.00    -0.246 OA
BRANCH  41  44
ATOM     43  C   UNL     1       4.546  -0.877  26.059  0.00  0.00    +0.015 C 
ATOM     44  C   UNL     1       3.585  -0.834  26.998  0.00  0.00    +0.092 C 
BRANCH  43  46
ATOM     45  C   UNL     1       5.967   0.548  24.527  0.00  0.00    +0.012 A 
ATOM     46  C   UNL     1       5.555   0.177  25.819  0.00  0.00    -0.021 A 
ATOM     47  C   UNL     1       6.084   0.877  26.916  0.00  0.00    +0.057 A 
ATOM     48  C   UNL     1       7.022   1.888  26.710  0.00  0.00    +0.159 A 
ATOM     49  C   UNL     1       7.435   2.231  25.427  0.00  0.00    +0.158 A 
ATOM     50  C   UNL     1       6.909   1.569  24.328  0.00  0.00    +0.050 A 
BRANCH  49  51
ATOM     51  O   UNL     1       8.358   3.233  25.300  0.00  0.00    -0.503 OA
ATOM     52  H   UNL     1       8.092   3.792  24.551  0.00  0.00    +0.292 HD
ENDBRANCH  49  51
BRANCH  48  53
ATOM     53  O   UNL     1       7.536   2.556  27.785  0.00  0.00    -0.503 OA
ATOM     54  H   UNL     1       8.275   1.995  28.092  0.00  0.00    +0.292 HD
ENDBRANCH  48  53
ENDBRANCH  43  46
ENDBRANCH  41  44
ENDBRANCH  40  41
ENDBRANCH  39  40
ENDBRANCH   1  39
TORSDOF 17
ENDMDL
MODEL 6
REMARK VINA RESULT:      -7.4      2.784      6.544
REMARK  Name = 
REMARK  17 active torsions:
REMARK  status: ('A' for Active; 'I' for Inactive)
REMARK    1  A    between atoms: C_3  and  O_48
REMARK    2  A    between atoms: C_4  and  O_47
REMARK    3  A    between atoms: C_6  and  C_7
REMARK    4  A    between atoms: C_8  and  C_9
REMARK    5  A    between atoms: C_9  and  O_11
REMARK    6  A    between atoms: O_11  and  C_12
REMARK    7  A    between atoms: C_12  and  C_13
REMARK    8  A    between atoms: C_15  and  O_46
REMARK    9  A    between atoms: C_17  and  O_45
REMARK   10  A    between atoms: C_18  and  O_44
REMARK   11  A    between atoms: C_19  and  O_22
REMARK   12  A    between atoms: O_22  and  C_23
REMARK   13  A    between atoms: C_24  and  C_36
REMARK   14  A    between atoms: C_28  and  O_35
REMARK   15  A    between atoms: C_30  and  O_34
REMARK   16  A    between atoms: C_38  and  O_43
REMARK   17  A    between atoms: C_39  and  O_42
REMARK                            x       y       z     vdW  Elec       q    Type
REMARK                         _______ _______ _______ _____ _____    ______ ____
ROOT
ATOM      1  C   UNL     1       6.027   1.578  25.412  0.00  0.00    +0.191 C 
ATOM      2  O   UNL     1       6.387   0.169  25.320  0.00  0.00    -0.330 OA
ATOM      3  C   UNL     1       6.164  -0.552  26.571  0.00  0.00    +0.340 C 
ATOM      4  C   UNL     1       7.055   0.083  27.662  0.00  0.00    +0.214 C 
ATOM      5  C   UNL     1       6.731   1.566  27.808  0.00  0.00    +0.180 C 
ATOM      6  C   UNL     1       6.901   2.282  26.466  0.00  0.00    +0.178 C 
ENDROOT
BRANCH   6   7
ATOM      7  O   UNL     1       8.286   2.269  26.071  0.00  0.00    -0.386 OA
ATOM      8  H   UNL     1       8.813   2.069  26.874  0.00  0.00    +0.210 HD
ENDBRANCH   6   7
BRANCH   5   9
ATOM      9  O   UNL     1       7.596   2.144  28.789  0.00  0.00    -0.386 OA
ATOM     10  H   UNL     1       7.986   2.928  28.353  0.00  0.00    +0.210 HD
ENDBRANCH   5   9
BRANCH   4  11
ATOM     11  O   UNL     1       8.452  -0.069  27.288  0.00  0.00    -0.383 OA
ATOM     12  H   UNL     1       8.959  -0.029  28.126  0.00  0.00    +0.210 HD
ENDBRANCH   4  11
BRANCH   3  13
ATOM     13  O   UNL     1       6.551  -1.944  26.413  0.00  0.00    -0.453 OA
BRANCH  13  14
ATOM     14  C   UNL     1       5.767  -2.756  25.577  0.00  0.00    +0.214 A 
ATOM     15  C   UNL     1       4.440  -3.307  26.016  0.00  0.00    +0.238 A 
ATOM     16  O   UNL     1       3.915  -2.921  27.052  0.00  0.00    -0.283 OA
ATOM     17  C   UNL     1       3.831  -4.362  25.174  0.00  0.00    +0.109 A 
ATOM     18  C   UNL     1       4.374  -4.574  23.909  0.00  0.00    +0.147 A 
ATOM     19  C   UNL     1       3.810  -5.506  23.032  0.00  0.00    +0.092 A 
ATOM     20  C   UNL     1       2.711  -6.251  23.447  0.00  0.00    +0.124 A 
ATOM     21  C   UNL     1       2.184  -6.090  24.721  0.00  0.00    +0.091 A 
ATOM     22  O   UNL     1       5.484  -3.910  23.458  0.00  0.00    -0.451 OA
ATOM     23  C   UNL     1       2.747  -5.150  25.587  0.00  0.00    +0.135 A 
ATOM     24  C   UNL     1       6.189  -3.124  24.349  0.00  0.00    +0.181 A 
BRANCH  24  25
ATOM     25  C   UNL     1       7.517  -2.768  23.825  0.00  0.00    +0.025 A 
ATOM     26  C   UNL     1       8.667  -3.162  24.532  0.00  0.00    +0.015 A 
ATOM     27  C   UNL     1       9.937  -2.810  24.074  0.00  0.00    +0.050 A 
ATOM     28  C   UNL     1      10.051  -2.079  22.903  0.00  0.00    +0.158 A 
ATOM     29  C   UNL     1       8.922  -1.737  22.161  0.00  0.00    +0.159 A 
ATOM     30  C   UNL     1       7.650  -2.076  22.613  0.00  0.00    +0.060 A 
BRANCH  29  31
ATOM     31  O   UNL     1       9.117  -1.057  20.990  0.00  0.00    -0.503 OA
ATOM     32  H   UNL     1       9.582  -0.227  21.193  0.00  0.00    +0.292 HD
ENDBRANCH  29  31
BRANCH  28  33
ATOM     33  O   UNL     1      11.289  -1.683  22.488  0.00  0.00    -0.503 OA
ATOM     34  H   UNL     1      11.912  -2.212  23.025  0.00  0.00    +0.292 HD
ENDBRANCH  28  33
ENDBRANCH  24  25
BRANCH  23  35
ATOM     35  O   UNL     1       2.243  -5.039  26.852  0.00  0.00    -0.506 OA
ATOM     36  H   UNL     1       1.287  -4.874  26.819  0.00  0.00    +0.292 HD
ENDBRANCH  23  35
BRANCH  20  37
ATOM     37  O   UNL     1       2.120  -7.169  22.631  0.00  0.00    -0.507 OA
ATOM     38  H   UNL     1       1.154  -7.106  22.719  0.00  0.00    +0.292 HD
ENDBRANCH  20  37
ENDBRANCH  13  14
ENDBRANCH   3  13
BRANCH   1  39
ATOM     39  C   UNL     1       6.173   2.277  24.042  0.00  0.00    +0.266 C 
BRANCH  39  40
ATOM     40  O   UNL     1       6.615   1.375  22.995  0.00  0.00    -0.459 OA
BRANCH  40  41
ATOM     41  C   UNL     1       7.581   1.827  22.154  0.00  0.00    +0.332 C 
ATOM     42  O   UNL     1       7.814   1.393  21.038  0.00  0.00    -0.246 OA
BRANCH  41  44
ATOM     43  C   UNL     1       9.638   3.064  22.711  0.00  0.00    +0.015 C 
ATOM     44  C   UNL     1       8.302   2.950  22.805  0.00  0.00    +0.092 C 
BRANCH  43  46
ATOM     45  C   UNL     1       9.893   5.137  24.139  0.00  0.00    +0.012 A 
ATOM     46  C   UNL     1      10.448   4.149  23.307  0.00  0.00    -0.021 A 
ATOM     47  C   UNL     1      11.834   4.166  23.083  0.00  0.00    +0.057 A 
ATOM     48  C   UNL     1      12.620   5.168  23.653  0.00  0.00    +0.159 A 
ATOM     49  C   UNL     1      12.053   6.150  24.458  0.00  0.00    +0.158 A 
ATOM     50  C   UNL     1      10.691   6.140  24.711  0.00  0.00    +0.050 A 
BRANCH  49  51
ATOM     51  O   UNL     1      12.884   7.103  24.983  0.00  0.00    -0.503 OA
ATOM     52  H   UNL     1      13.794   6.769  24.928  0.00  0.00    +0.292 HD
ENDBRANCH  49  51
BRANCH  48  53
ATOM     53  O   UNL     1      13.966   5.179  23.421  0.00  0.00    -0.503 OA
ATOM     54  H   UNL     1      14.110   5.960  22.851  0.00  0.00    +0.292 HD
ENDBRANCH  48  53
ENDBRANCH  43  46
ENDBRANCH  41  44
ENDBRANCH  40  41
ENDBRANCH  39  40
ENDBRANCH   1  39
TORSDOF 17
ENDMDL
MODEL 7
REMARK VINA RESULT:      -7.3      1.805      4.835
REMARK  Name = 
REMARK  17 active torsions:
REMARK  status: ('A' for Active; 'I' for Inactive)
REMARK    1  A    between atoms: C_3  and  O_48
REMARK    2  A    between atoms: C_4  and  O_47
REMARK    3  A    between atoms: C_6  and  C_7
REMARK    4  A    between atoms: C_8  and  C_9
REMARK    5  A    between atoms: C_9  and  O_11
REMARK    6  A    between atoms: O_11  and  C_12
REMARK    7  A    between atoms: C_12  and  C_13
REMARK    8  A    between atoms: C_15  and  O_46
REMARK    9  A    between atoms: C_17  and  O_45
REMARK   10  A    between atoms: C_18  and  O_44
REMARK   11  A    between atoms: C_19  and  O_22
REMARK   12  A    between atoms: O_22  and  C_23
REMARK   13  A    between atoms: C_24  and  C_36
REMARK   14  A    between atoms: C_28  and  O_35
REMARK   15  A    between atoms: C_30  and  O_34
REMARK   16  A    between atoms: C_38  and  O_43
REMARK   17  A    between atoms: C_39  and  O_42
REMARK                            x       y       z     vdW  Elec       q    Type
REMARK                         _______ _______ _______ _____ _____    ______ ____
ROOT
ATOM      1  C   UNL     1       4.579  -2.898  28.343  0.00  0.00    +0.191 C 
ATOM      2  O   UNL     1       4.975  -2.584  26.976  0.00  0.00    -0.330 OA
ATOM      3  C   UNL     1       5.659  -1.297  26.870  0.00  0.00    +0.340 C 
ATOM      4  C   UNL     1       4.687  -0.191  27.338  0.00  0.00    +0.214 C 
ATOM      5  C   UNL     1       4.229  -0.463  28.766  0.00  0.00    +0.180 C 
ATOM      6  C   UNL     1       3.582  -1.847  28.863  0.00  0.00    +0.178 C 
ENDROOT
BRANCH   6   7
ATOM      7  O   UNL     1       2.363  -1.877  28.098  0.00  0.00    -0.386 OA
ATOM      8  H   UNL     1       1.809  -2.597  28.468  0.00  0.00    +0.210 HD
ENDBRANCH   6   7
BRANCH   5   9
ATOM      9  O   UNL     1       3.296   0.546  29.163  0.00  0.00    -0.386 OA
ATOM     10  H   UNL     1       3.040   0.996  28.333  0.00  0.00    +0.210 HD
ENDBRANCH   5   9
BRANCH   4  11
ATOM     11  O   UNL     1       3.529  -0.168  26.457  0.00  0.00    -0.383 OA
ATOM     12  H   UNL     1       3.111   0.709  26.591  0.00  0.00    +0.210 HD
ENDBRANCH   4  11
BRANCH   3  13
ATOM     13  O   UNL     1       6.016  -1.042  25.484  0.00  0.00    -0.453 OA
BRANCH  13  14
ATOM     14  C   UNL     1       7.052  -0.129  25.228  0.00  0.00    +0.214 A 
ATOM     15  C   UNL     1       6.791   1.336  25.016  0.00  0.00    +0.238 A 
ATOM     16  O   UNL     1       5.685   1.812  25.237  0.00  0.00    -0.283 OA
ATOM     17  C   UNL     1       7.906   2.154  24.486  0.00  0.00    +0.109 A 
ATOM     18  C   UNL     1       9.179   1.589  24.483  0.00  0.00    +0.147 A 
ATOM     19  C   UNL     1      10.290   2.325  24.060  0.00  0.00    +0.092 A 
ATOM     20  C   UNL     1      10.111   3.628  23.608  0.00  0.00    +0.124 A 
ATOM     21  C   UNL     1       8.844   4.194  23.557  0.00  0.00    +0.091 A 
ATOM     22  O   UNL     1       9.416   0.296  24.867  0.00  0.00    -0.451 OA
ATOM     23  C   UNL     1       7.741   3.455  23.991  0.00  0.00    +0.135 A 
ATOM     24  C   UNL     1       8.335  -0.530  25.109  0.00  0.00    +0.181 A 
BRANCH  24  25
ATOM     25  C   UNL     1       8.735  -1.944  25.169  0.00  0.00    +0.025 A 
ATOM     26  C   UNL     1       9.344  -2.536  24.047  0.00  0.00    +0.015 A 
ATOM     27  C   UNL     1       9.705  -3.884  24.066  0.00  0.00    +0.050 A 
ATOM     28  C   UNL     1       9.469  -4.628  25.210  0.00  0.00    +0.158 A 
ATOM     29  C   UNL     1       8.923  -4.037  26.348  0.00  0.00    +0.159 A 
ATOM     30  C   UNL     1       8.553  -2.695  26.338  0.00  0.00    +0.060 A 
BRANCH  29  31
ATOM     31  O   UNL     1       8.765  -4.823  27.456  0.00  0.00    -0.503 OA
ATOM     32  H   UNL     1       8.934  -4.278  28.243  0.00  0.00    +0.292 HD
ENDBRANCH  29  31
BRANCH  28  33
ATOM     33  O   UNL     1       9.766  -5.961  25.206  0.00  0.00    -0.503 OA
ATOM     34  H   UNL     1      10.533  -6.042  24.606  0.00  0.00    +0.292 HD
ENDBRANCH  28  33
ENDBRANCH  24  25
BRANCH  23  35
ATOM     35  O   UNL     1       6.497   4.014  23.891  0.00  0.00    -0.506 OA
ATOM     36  H   UNL     1       6.357   4.363  22.995  0.00  0.00    +0.292 HD
ENDBRANCH  23  35
BRANCH  20  37
ATOM     37  O   UNL     1      11.160   4.390  23.189  0.00  0.00    -0.507 OA
ATOM     38  H   UNL     1      11.734   3.861  22.609  0.00  0.00    +0.292 HD
ENDBRANCH  20  37
ENDBRANCH  13  14
ENDBRANCH   3  13
BRANCH   1  39
ATOM     39  C   UNL     1       3.959  -4.311  28.427  0.00  0.00    +0.266 C 
BRANCH  39  40
ATOM     40  O   UNL     1       4.921  -5.325  28.818  0.00  0.00    -0.459 OA
BRANCH  40  41
ATOM     41  C   UNL     1       5.109  -6.364  27.963  0.00  0.00    +0.332 C 
ATOM     42  O   UNL     1       5.355  -7.515  28.284  0.00  0.00    -0.246 OA
BRANCH  41  44
ATOM     43  C   UNL     1       6.005  -5.787  25.741  0.00  0.00    +0.015 C 
ATOM     44  C   UNL     1       4.950  -5.878  26.568  0.00  0.00    +0.092 C 
BRANCH  43  46
ATOM     45  C   UNL     1       5.876  -6.227  23.253  0.00  0.00    +0.012 A 
ATOM     46  C   UNL     1       5.953  -5.332  24.335  0.00  0.00    -0.021 A 
ATOM     47  C   UNL     1       5.921  -3.954  24.065  0.00  0.00    +0.057 A 
ATOM     48  C   UNL     1       5.850  -3.504  22.746  0.00  0.00    +0.159 A 
ATOM     49  C   UNL     1       5.795  -4.402  21.686  0.00  0.00    +0.158 A 
ATOM     50  C   UNL     1       5.802  -5.766  21.930  0.00  0.00    +0.050 A 
BRANCH  49  51
ATOM     51  O   UNL     1       5.728  -3.889  20.419  0.00  0.00    -0.503 OA
ATOM     52  H   UNL     1       5.530  -4.621  19.811  0.00  0.00    +0.292 HD
ENDBRANCH  49  51
BRANCH  48  53
ATOM     53  O   UNL     1       5.828  -2.161  22.496  0.00  0.00    -0.503 OA
ATOM     54  H   UNL     1       5.306  -1.783  23.231  0.00  0.00    +0.292 HD
ENDBRANCH  48  53
ENDBRANCH  43  46
ENDBRANCH  41  44
ENDBRANCH  40  41
ENDBRANCH  39  40
ENDBRANCH   1  39
TORSDOF 17
ENDMDL
MODEL 8
REMARK VINA RESULT:      -7.1      2.038      4.418
REMARK  Name = 
REMARK  17 active torsions:
REMARK  status: ('A' for Active; 'I' for Inactive)
REMARK    1  A    between atoms: C_3  and  O_48
REMARK    2  A    between atoms: C_4  and  O_47
REMARK    3  A    between atoms: C_6  and  C_7
REMARK    4  A    between atoms: C_8  and  C_9
REMARK    5  A    between atoms: C_9  and  O_11
REMARK    6  A    between atoms: O_11  and  C_12
REMARK    7  A    between atoms: C_12  and  C_13
REMARK    8  A    between atoms: C_15  and  O_46
REMARK    9  A    between atoms: C_17  and  O_45
REMARK   10  A    between atoms: C_18  and  O_44
REMARK   11  A    between atoms: C_19  and  O_22
REMARK   12  A    between atoms: O_22  and  C_23
REMARK   13  A    between atoms: C_24  and  C_36
REMARK   14  A    between atoms: C_28  and  O_35
REMARK   15  A    between atoms: C_30  and  O_34
REMARK   16  A    between atoms: C_38  and  O_43
REMARK   17  A    between atoms: C_39  and  O_42
REMARK                            x       y       z     vdW  Elec       q    Type
REMARK                         _______ _______ _______ _____ _____    ______ ____
ROOT
ATOM      1  C   UNL     1       3.486  -2.167  28.187  0.00  0.00    +0.191 C 
ATOM      2  O   UNL     1       4.693  -2.890  27.809  0.00  0.00    -0.330 OA
ATOM      3  C   UNL     1       4.408  -4.207  27.245  0.00  0.00    +0.340 C 
ATOM      4  C   UNL     1       3.681  -5.047  28.319  0.00  0.00    +0.214 C 
ATOM      5  C   UNL     1       2.405  -4.342  28.763  0.00  0.00    +0.180 C 
ATOM      6  C   UNL     1       2.724  -2.938  29.281  0.00  0.00    +0.178 C 
ENDROOT
BRANCH   6   7
ATOM      7  O   UNL     1       3.509  -3.022  30.485  0.00  0.00    -0.386 OA
ATOM      8  H   UNL     1       2.989  -3.545  31.132  0.00  0.00    +0.210 HD
ENDBRANCH   6   7
BRANCH   5   9
ATOM      9  O   UNL     1       1.771  -5.113  29.788  0.00  0.00    -0.386 OA
ATOM     10  H   UNL     1       1.475  -4.458  30.452  0.00  0.00    +0.210 HD
ENDBRANCH   5   9
BRANCH   4  11
ATOM     11  O   UNL     1       4.559  -5.220  29.466  0.00  0.00    -0.383 OA
ATOM     12  H   UNL     1       5.224  -4.503  29.404  0.00  0.00    +0.210 HD
ENDBRANCH   4  11
BRANCH   3  13
ATOM     13  O   UNL     1       5.652  -4.875  26.901  0.00  0.00    -0.453 OA
BRANCH  13  14
ATOM     14  C   UNL     1       6.361  -4.412  25.780  0.00  0.00    +0.214 A 
ATOM     15  C   UNL     1       7.564  -3.521  25.909  0.00  0.00    +0.238 A 
ATOM     16  O   UNL     1       8.075  -3.314  27.002  0.00  0.00    -0.283 OA
ATOM     17  C   UNL     1       8.064  -2.874  24.674  0.00  0.00    +0.109 A 
ATOM     18  C   UNL     1       7.577  -3.340  23.456  0.00  0.00    +0.147 A 
ATOM     19  C   UNL     1       8.053  -2.823  22.246  0.00  0.00    +0.092 A 
ATOM     20  C   UNL     1       9.003  -1.809  22.268  0.00  0.00    +0.124 A 
ATOM     21  C   UNL     1       9.468  -1.296  23.472  0.00  0.00    +0.091 A 
ATOM     22  O   UNL     1       6.605  -4.300  23.366  0.00  0.00    -0.451 OA
ATOM     23  C   UNL     1       8.995  -1.824  24.675  0.00  0.00    +0.135 A 
ATOM     24  C   UNL     1       5.967  -4.704  24.523  0.00  0.00    +0.181 A 
BRANCH  24  25
ATOM     25  C   UNL     1       4.740  -5.462  24.230  0.00  0.00    +0.025 A 
ATOM     26  C   UNL     1       3.778  -4.910  23.365  0.00  0.00    +0.015 A 
ATOM     27  C   UNL     1       2.592  -5.594  23.095  0.00  0.00    +0.050 A 
ATOM     28  C   UNL     1       2.381  -6.832  23.680  0.00  0.00    +0.158 A 
ATOM     29  C   UNL     1       3.354  -7.416  24.489  0.00  0.00    +0.159 A 
ATOM     30  C   UNL     1       4.538  -6.740  24.771  0.00  0.00    +0.060 A 
BRANCH  29  31
ATOM     31  O   UNL     1       3.095  -8.662  24.991  0.00  0.00    -0.503 OA
ATOM     32  H   UNL     1       3.514  -8.730  25.866  0.00  0.00    +0.292 HD
ENDBRANCH  29  31
BRANCH  28  33
ATOM     33  O   UNL     1       1.195  -7.473  23.464  0.00  0.00    -0.503 OA
ATOM     34  H   UNL     1       0.519  -6.769  23.522  0.00  0.00    +0.292 HD
ENDBRANCH  28  33
ENDBRANCH  24  25
BRANCH  23  35
ATOM     35  O   UNL     1       9.430  -1.276  25.849  0.00  0.00    -0.506 OA
ATOM     36  H   UNL     1       9.006  -0.414  25.994  0.00  0.00    +0.292 HD
ENDBRANCH  23  35
BRANCH  20  37
ATOM     37  O   UNL     1       9.504  -1.274  21.119  0.00  0.00    -0.507 OA
ATOM     38  H   UNL     1       9.526  -1.955  20.426  0.00  0.00    +0.292 HD
ENDBRANCH  20  37
ENDBRANCH  13  14
ENDBRANCH   3  13
BRANCH   1  39
ATOM     39  C   UNL     1       3.825  -0.741  28.675  0.00  0.00    +0.266 C 
BRANCH  39  40
ATOM     40  O   UNL     1       4.927  -0.143  27.944  0.00  0.00    -0.459 OA
BRANCH  40  41
ATOM     41  C   UNL     1       4.639   0.430  26.747  0.00  0.00    +0.332 C 
ATOM     42  O   UNL     1       3.527   0.747  26.357  0.00  0.00    -0.246 OA
BRANCH  41  44
ATOM     43  C   UNL     1       5.985   1.545  25.010  0.00  0.00    +0.015 C 
ATOM     44  C   UNL     1       5.901   0.628  25.989  0.00  0.00    +0.092 C 
BRANCH  43  46
ATOM     45  C   UNL     1       8.378   2.334  24.777  0.00  0.00    +0.012 A 
ATOM     46  C   UNL     1       7.195   1.831  24.208  0.00  0.00    -0.021 A 
ATOM     47  C   UNL     1       7.187   1.536  22.835  0.00  0.00    +0.057 A 
ATOM     48  C   UNL     1       8.324   1.778  22.063  0.00  0.00    +0.159 A 
ATOM     49  C   UNL     1       9.480   2.296  22.637  0.00  0.00    +0.158 A 
ATOM     50  C   UNL     1       9.518   2.572  23.995  0.00  0.00    +0.050 A 
BRANCH  49  51
ATOM     51  O   UNL     1      10.558   2.509  21.821  0.00  0.00    -0.503 OA
ATOM     52  H   UNL     1      10.232   2.892  20.990  0.00  0.00    +0.292 HD
ENDBRANCH  49  51
BRANCH  48  53
ATOM     53  O   UNL     1       8.302   1.496  20.727  0.00  0.00    -0.503 OA
ATOM     54  H   UNL     1       8.692   2.285  20.303  0.00  0.00    +0.292 HD
ENDBRANCH  48  53
ENDBRANCH  43  46
ENDBRANCH  41  44
ENDBRANCH  40  41
ENDBRANCH  39  40
ENDBRANCH   1  39
TORSDOF 17
ENDMDL
MODEL 9
REMARK VINA RESULT:      -7.1      2.421      6.621
REMARK  Name = 
REMARK  17 active torsions:
REMARK  status: ('A' for Active; 'I' for Inactive)
REMARK    1  A    between atoms: C_3  and  O_48
REMARK    2  A    between atoms: C_4  and  O_47
REMARK    3  A    between atoms: C_6  and  C_7
REMARK    4  A    between atoms: C_8  and  C_9
REMARK    5  A    between atoms: C_9  and  O_11
REMARK    6  A    between atoms: O_11  and  C_12
REMARK    7  A    between atoms: C_12  and  C_13
REMARK    8  A    between atoms: C_15  and  O_46
REMARK    9  A    between atoms: C_17  and  O_45
REMARK   10  A    between atoms: C_18  and  O_44
REMARK   11  A    between atoms: C_19  and  O_22
REMARK   12  A    between atoms: O_22  and  C_23
REMARK   13  A    between atoms: C_24  and  C_36
REMARK   14  A    between atoms: C_28  and  O_35
REMARK   15  A    between atoms: C_30  and  O_34
REMARK   16  A    between atoms: C_38  and  O_43
REMARK   17  A    between atoms: C_39  and  O_42
REMARK                            x       y       z     vdW  Elec       q    Type
REMARK                         _______ _______ _______ _____ _____    ______ ____
ROOT
ATOM      1  C   UNL     1       5.643   0.659  27.277  0.00  0.00    +0.191 C 
ATOM      2  O   UNL     1       6.270   0.781  25.967  0.00  0.00    -0.330 OA
ATOM      3  C   UNL     1       6.340   2.164  25.502  0.00  0.00    +0.340 C 
ATOM      4  C   UNL     1       4.899   2.707  25.380  0.00  0.00    +0.214 C 
ATOM      5  C   UNL     1       4.183   2.606  26.721  0.00  0.00    +0.180 C 
ATOM      6  C   UNL     1       4.188   1.158  27.219  0.00  0.00    +0.178 C 
ENDROOT
BRANCH   6   7
ATOM      7  O   UNL     1       3.400   0.331  26.343  0.00  0.00    -0.386 OA
ATOM      8  H   UNL     1       2.458   0.551  26.509  0.00  0.00    +0.210 HD
ENDBRANCH   6   7
BRANCH   5   9
ATOM      9  O   UNL     1       2.838   3.071  26.575  0.00  0.00    -0.386 OA
ATOM     10  H   UNL     1       2.492   3.141  27.488  0.00  0.00    +0.210 HD
ENDBRANCH   5   9
BRANCH   4  11
ATOM     11  O   UNL     1       4.176   1.927  24.387  0.00  0.00    -0.383 OA
ATOM     12  H   UNL     1       3.466   2.515  24.052  0.00  0.00    +0.210 HD
ENDBRANCH   4  11
BRANCH   3  13
ATOM     13  O   UNL     1       6.964   2.212  24.191  0.00  0.00    -0.453 OA
BRANCH  13  14
ATOM     14  C   UNL     1       8.304   2.625  24.113  0.00  0.00    +0.214 A 
ATOM     15  C   UNL     1       8.701   4.071  24.211  0.00  0.00    +0.238 A 
ATOM     16  O   UNL     1       7.885   4.922  24.540  0.00  0.00    -0.283 OA
ATOM     17  C   UNL     1      10.093   4.419  23.844  0.00  0.00    +0.109 A 
ATOM     18  C   UNL     1      11.006   3.376  23.708  0.00  0.00    +0.147 A 
ATOM     19  C   UNL     1      12.353   3.632  23.430  0.00  0.00    +0.092 A 
ATOM     20  C   UNL     1      12.773   4.946  23.258  0.00  0.00    +0.124 A 
ATOM     21  C   UNL     1      11.870   5.998  23.342  0.00  0.00    +0.091 A 
ATOM     22  O   UNL     1      10.648   2.059  23.815  0.00  0.00    -0.451 OA
ATOM     23  C   UNL     1      10.529   5.734  23.630  0.00  0.00    +0.135 A 
ATOM     24  C   UNL     1       9.305   1.745  23.897  0.00  0.00    +0.181 A 
BRANCH  24  25
ATOM     25  C   UNL     1       9.066   0.313  23.659  0.00  0.00    +0.025 A 
ATOM     26  C   UNL     1       8.866  -0.144  22.343  0.00  0.00    +0.015 A 
ATOM     27  C   UNL     1       8.607  -1.491  22.092  0.00  0.00    +0.050 A 
ATOM     28  C   UNL     1       8.565  -2.378  23.156  0.00  0.00    +0.158 A 
ATOM     29  C   UNL     1       8.824  -1.948  24.456  0.00  0.00    +0.159 A 
ATOM     30  C   UNL     1       9.076  -0.604  24.719  0.00  0.00    +0.060 A 
BRANCH  29  31
ATOM     31  O   UNL     1       8.813  -2.890  25.448  0.00  0.00    -0.503 OA
ATOM     32  H   UNL     1       7.905  -2.965  25.787  0.00  0.00    +0.292 HD
ENDBRANCH  29  31
BRANCH  28  33
ATOM     33  O   UNL     1       8.251  -3.685  22.916  0.00  0.00    -0.503 OA
ATOM     34  H   UNL     1       8.980  -4.193  23.325  0.00  0.00    +0.292 HD
ENDBRANCH  28  33
ENDBRANCH  24  25
BRANCH  23  35
ATOM     35  O   UNL     1       9.648   6.778  23.664  0.00  0.00    -0.506 OA
ATOM     36  H   UNL     1       9.695   7.229  24.523  0.00  0.00    +0.292 HD
ENDBRANCH  23  35
BRANCH  20  37
ATOM     37  O   UNL     1      14.074   5.252  22.990  0.00  0.00    -0.507 OA
ATOM     38  H   UNL     1      14.110   5.968  22.333  0.00  0.00    +0.292 HD
ENDBRANCH  20  37
ENDBRANCH  13  14
ENDBRANCH   3  13
BRANCH   1  39
ATOM     39  C   UNL     1       5.689  -0.801  27.778  0.00  0.00    +0.266 C 
BRANCH  39  40
ATOM     40  O   UNL     1       4.511  -1.171  28.541  0.00  0.00    -0.459 OA
BRANCH  40  41
ATOM     41  C   UNL     1       4.135  -2.476  28.509  0.00  0.00    +0.332 C 
ATOM     42  O   UNL     1       3.471  -3.048  29.358  0.00  0.00    -0.246 OA
BRANCH  41  44
ATOM     43  C   UNL     1       3.842  -3.809  26.457  0.00  0.00    +0.015 C 
ATOM     44  C   UNL     1       4.649  -3.097  27.261  0.00  0.00    +0.092 C 
BRANCH  43  46
ATOM     45  C   UNL     1       4.247  -5.849  25.017  0.00  0.00    +0.012 A 
ATOM     46  C   UNL     1       4.249  -4.454  25.190  0.00  0.00    -0.021 A 
ATOM     47  C   UNL     1       4.597  -3.646  24.096  0.00  0.00    +0.057 A 
ATOM     48  C   UNL     1       4.965  -4.233  22.885  0.00  0.00    +0.159 A 
ATOM     49  C   UNL     1       4.977  -5.615  22.735  0.00  0.00    +0.158 A 
ATOM     50  C   UNL     1       4.615  -6.432  23.794  0.00  0.00    +0.050 A 
BRANCH  49  51
ATOM     51  O   UNL     1       5.349  -6.122  21.519  0.00  0.00    -0.503 OA
ATOM     52  H   UNL     1       4.598  -6.021  20.911  0.00  0.00    +0.292 HD
ENDBRANCH  49  51
BRANCH  48  53
ATOM     53  O   UNL     1       5.310  -3.436  21.830  0.00  0.00    -0.503 OA
ATOM     54  H   UNL     1       4.506  -2.912  21.646  0.00  0.00    +0.292 HD
ENDBRANCH  48  53
ENDBRANCH  43  46
ENDBRANCH  41  44
ENDBRANCH  40  41
ENDBRANCH  39  40
ENDBRANCH   1  39
TORSDOF 17
ENDMDL
