MODEL 1
REMARK VINA RESULT:      -7.7      0.000      0.000
REMARK  Name = 
REMARK  10 active torsions:
REMARK  status: ('A' for Active; 'I' for Inactive)
REMARK    1  A    between atoms: C_3  and  O_26
REMARK    2  A    between atoms: C_4  and  O_25
REMARK    3  A    between atoms: C_6  and  C_7
REMARK    4  A    between atoms: C_8  and  O_20
REMARK    5  A    between atoms: C_12  and  O_19
REMARK    6  A    between atoms: C_14  and  O_18
REMARK    7  A    between atoms: O_20  and  S_21
REMARK    8  A    between atoms: S_21  and  O_24
REMARK    9  A    between atoms: O_26  and  S_27
REMARK   10  A    between atoms: S_27  and  O_30
REMARK                            x       y       z     vdW  Elec       q    Type
REMARK                         _______ _______ _______ _____ _____    ______ ____
ROOT
ATOM      1  C   UNL     1       6.682  -2.290  24.191  0.00  0.00    +0.184 A 
ATOM      2  O   UNL     1       6.939  -1.329  23.219  0.00  0.00    -0.451 OA
ATOM      3  C   UNL     1       8.035  -0.519  23.345  0.00  0.00    +0.147 A 
ATOM      4  C   UNL     1       8.825  -0.507  24.486  0.00  0.00    +0.109 A 
ATOM      5  C   UNL     1       9.902   0.382  24.576  0.00  0.00    +0.135 A 
ATOM      6  C   UNL     1      10.191   1.252  23.527  0.00  0.00    +0.091 A 
ATOM      7  C   UNL     1       9.406   1.213  22.380  0.00  0.00    +0.124 A 
ATOM      8  C   UNL     1       8.507  -1.462  25.556  0.00  0.00    +0.241 A 
ATOM      9  O   UNL     1       9.165  -1.458  26.594  0.00  0.00    -0.283 OA
ATOM     10  C   UNL     1       8.332   0.332  22.278  0.00  0.00    +0.092 A 
ATOM     11  C   UNL     1       7.401  -2.429  25.326  0.00  0.00    +0.248 A 
ENDROOT
BRANCH   1  13
ATOM     12  C   UNL     1       4.373  -3.161  24.441  0.00  0.00    +0.015 A 
ATOM     13  C   UNL     1       5.586  -3.164  23.742  0.00  0.00    +0.025 A 
ATOM     14  C   UNL     1       5.812  -4.149  22.770  0.00  0.00    +0.061 A 
ATOM     15  C   UNL     1       4.868  -5.159  22.580  0.00  0.00    +0.162 A 
ATOM     16  C   UNL     1       3.716  -5.226  23.367  0.00  0.00    +0.200 A 
ATOM     17  C   UNL     1       3.443  -4.188  24.256  0.00  0.00    +0.053 A 
BRANCH  15  18
ATOM     18  O   UNL     1       5.131  -6.107  21.629  0.00  0.00    -0.503 OA
ATOM     19  H   UNL     1       4.519  -6.847  21.785  0.00  0.00    +0.292 HD
ENDBRANCH  15  18
BRANCH  16  20
ATOM     20  O   UNL     1       2.918  -6.334  23.219  0.00  0.00    -0.321 OA
BRANCH  20  21
ATOM     21  S   UNL     1       2.771  -7.407  24.445  0.00  0.00    +0.251 S 
ATOM     22  O   UNL     1       1.707  -6.973  25.327  0.00  0.00    -0.108 OA
ATOM     23  O   UNL     1       4.078  -7.757  24.945  0.00  0.00    -0.108 OA
BRANCH  21  24
ATOM     24  O   UNL     1       2.257  -8.739  23.698  0.00  0.00    -0.222 OA
ATOM     25  H   UNL     1       2.996  -9.381  23.721  0.00  0.00    +0.248 HD
ENDBRANCH  21  24
ENDBRANCH  20  21
ENDBRANCH  16  20
ENDBRANCH   1  13
BRANCH   5  26
ATOM     26  O   UNL     1      10.719   0.454  25.672  0.00  0.00    -0.506 OA
ATOM     27  H   UNL     1      10.472   1.252  26.190  0.00  0.00    +0.292 HD
ENDBRANCH   5  26
BRANCH   7  28
ATOM     28  O   UNL     1       9.657   2.038  21.324  0.00  0.00    -0.507 OA
ATOM     29  H   UNL     1       8.923   2.673  21.237  0.00  0.00    +0.292 HD
ENDBRANCH   7  28
BRANCH  11  30
ATOM     30  O   UNL     1       7.322  -3.454  26.244  0.00  0.00    -0.317 OA
BRANCH  30  31
ATOM     31  S   UNL     1       8.118  -4.859  26.106  0.00  0.00    +0.252 S 
ATOM     32  O   UNL     1       8.626  -4.973  24.758  0.00  0.00    -0.108 OA
ATOM     33  O   UNL     1       7.359  -5.922  26.726  0.00  0.00    -0.108 OA
BRANCH  31  34
ATOM     34  O   UNL     1       9.397  -4.647  27.064  0.00  0.00    -0.222 OA
ATOM     35  H   UNL     1      10.104  -5.250  26.755  0.00  0.00    +0.248 HD
ENDBRANCH  31  34
ENDBRANCH  30  31
ENDBRANCH  11  30
TORSDOF 10
ENDMDL
MODEL 2
REMARK VINA RESULT:      -7.3      2.805      7.980
REMARK  Name = 
REMARK  10 active torsions:
REMARK  status: ('A' for Active; 'I' for Inactive)
REMARK    1  A    between atoms: C_3  and  O_26
REMARK    2  A    between atoms: C_4  and  O_25
REMARK    3  A    between atoms: C_6  and  C_7
REMARK    4  A    between atoms: C_8  and  O_20
REMARK    5  A    between atoms: C_12  and  O_19
REMARK    6  A    between atoms: C_14  and  O_18
REMARK    7  A    between atoms: O_20  and  S_21
REMARK    8  A    between atoms: S_21  and  O_24
REMARK    9  A    between atoms: O_26  and  S_27
REMARK   10  A    between atoms: S_27  and  O_30
REMARK                            x       y       z     vdW  Elec       q    Type
REMARK                         _______ _______ _______ _____ _____    ______ ____
ROOT
ATOM      1  C   UNL     1       8.604  -1.842  24.152  0.00  0.00    +0.184 A 
ATOM      2  O   UNL     1       8.237  -2.592  23.039  0.00  0.00    -0.451 OA
ATOM      3  C   UNL     1       7.394  -3.660  23.194  0.00  0.00    +0.147 A 
ATOM      4  C   UNL     1       7.006  -4.127  24.442  0.00  0.00    +0.109 A 
ATOM      5  C   UNL     1       6.185  -5.256  24.536  0.00  0.00    +0.135 A 
ATOM      6  C   UNL     1       5.747  -5.912  23.387  0.00  0.00    +0.091 A 
ATOM      7  C   UNL     1       6.124  -5.417  22.143  0.00  0.00    +0.124 A 
ATOM      8  C   UNL     1       7.462  -3.389  25.628  0.00  0.00    +0.241 A 
ATOM      9  O   UNL     1       7.165  -3.793  26.750  0.00  0.00    -0.283 OA
ATOM     10  C   UNL     1       6.941  -4.295  22.036  0.00  0.00    +0.092 A 
ATOM     11  C   UNL     1       8.254  -2.148  25.419  0.00  0.00    +0.248 A 
ENDROOT
BRANCH   1  13
ATOM     12  C   UNL     1      10.385  -0.152  24.504  0.00  0.00    +0.015 A 
ATOM     13  C   UNL     1       9.336  -0.642  23.715  0.00  0.00    +0.025 A 
ATOM     14  C   UNL     1       8.861   0.136  22.651  0.00  0.00    +0.061 A 
ATOM     15  C   UNL     1       9.376   1.417  22.449  0.00  0.00    +0.162 A 
ATOM     16  C   UNL     1      10.332   1.953  23.313  0.00  0.00    +0.200 A 
ATOM     17  C   UNL     1      10.880   1.141  24.305  0.00  0.00    +0.053 A 
BRANCH  15  18
ATOM     18  O   UNL     1       8.878   2.147  21.405  0.00  0.00    -0.503 OA
ATOM     19  H   UNL     1       8.148   2.689  21.755  0.00  0.00    +0.292 HD
ENDBRANCH  15  18
BRANCH  16  20
ATOM     20  O   UNL     1      10.672   3.272  23.135  0.00  0.00    -0.321 OA
BRANCH  20  21
ATOM     21  S   UNL     1       9.777   4.449  23.834  0.00  0.00    +0.251 S 
ATOM     22  O   UNL     1      10.622   5.599  24.085  0.00  0.00    -0.108 OA
ATOM     23  O   UNL     1       8.942   3.880  24.863  0.00  0.00    -0.108 OA
BRANCH  21  24
ATOM     24  O   UNL     1       8.748   4.862  22.664  0.00  0.00    -0.222 OA
ATOM     25  H   UNL     1       9.242   4.810  21.819  0.00  0.00    +0.248 HD
ENDBRANCH  21  24
ENDBRANCH  20  21
ENDBRANCH  16  20
ENDBRANCH   1  13
BRANCH   5  26
ATOM     26  O   UNL     1       5.769  -5.778  25.732  0.00  0.00    -0.506 OA
ATOM     27  H   UNL     1       4.786  -5.765  25.749  0.00  0.00    +0.292 HD
ENDBRANCH   5  26
BRANCH   7  28
ATOM     28  O   UNL     1       5.713  -6.019  20.991  0.00  0.00    -0.507 OA
ATOM     29  H   UNL     1       6.376  -5.861  20.296  0.00  0.00    +0.292 HD
ENDBRANCH   7  28
BRANCH  11  30
ATOM     30  O   UNL     1       8.428  -1.371  26.544  0.00  0.00    -0.317 OA
BRANCH  30  31
ATOM     31  S   UNL     1       7.432  -0.168  26.978  0.00  0.00    +0.252 S 
ATOM     32  O   UNL     1       6.162  -0.736  27.367  0.00  0.00    -0.108 OA
ATOM     33  O   UNL     1       7.522   0.917  26.027  0.00  0.00    -0.108 OA
BRANCH  31  34
ATOM     34  O   UNL     1       8.114   0.400  28.323  0.00  0.00    -0.222 OA
ATOM     35  H   UNL     1       8.057   1.378  28.297  0.00  0.00    +0.248 HD
ENDBRANCH  31  34
ENDBRANCH  30  31
ENDBRANCH  11  30
TORSDOF 10
ENDMDL
MODEL 3
REMARK VINA RESULT:      -7.2      3.034      7.923
REMARK  Name = 
REMARK  10 active torsions:
REMARK  status: ('A' for Active; 'I' for Inactive)
REMARK    1  A    between atoms: C_3  and  O_26
REMARK    2  A    between atoms: C_4  and  O_25
REMARK    3  A    between atoms: C_6  and  C_7
REMARK    4  A    between atoms: C_8  and  O_20
REMARK    5  A    between atoms: C_12  and  O_19
REMARK    6  A    between atoms: C_14  and  O_18
REMARK    7  A    between atoms: O_20  and  S_21
REMARK    8  A    between atoms: S_21  and  O_24
REMARK    9  A    between atoms: O_26  and  S_27
REMARK   10  A    between atoms: S_27  and  O_30
REMARK                            x       y       z     vdW  Elec       q    Type
REMARK                         _______ _______ _______ _____ _____    ______ ____
ROOT
ATOM      1  C   UNL     1       7.000  -3.839  25.089  0.00  0.00    +0.184 A 
ATOM      2  O   UNL     1       7.239  -4.230  26.402  0.00  0.00    -0.451 OA
ATOM      3  C   UNL     1       6.455  -5.198  26.970  0.00  0.00    +0.147 A 
ATOM      4  C   UNL     1       5.325  -5.703  26.344  0.00  0.00    +0.109 A 
ATOM      5  C   UNL     1       4.534  -6.654  27.000  0.00  0.00    +0.135 A 
ATOM      6  C   UNL     1       4.876  -7.102  28.273  0.00  0.00    +0.091 A 
ATOM      7  C   UNL     1       6.025  -6.606  28.879  0.00  0.00    +0.124 A 
ATOM      8  C   UNL     1       5.016  -5.229  24.988  0.00  0.00    +0.241 A 
ATOM      9  O   UNL     1       4.005  -5.630  24.416  0.00  0.00    -0.283 OA
ATOM     10  C   UNL     1       6.821  -5.660  28.237  0.00  0.00    +0.092 A 
ATOM     11  C   UNL     1       5.969  -4.289  24.341  0.00  0.00    +0.248 A 
ENDROOT
BRANCH   1  13
ATOM     12  C   UNL     1       8.579  -1.972  25.506  0.00  0.00    +0.015 A 
ATOM     13  C   UNL     1       8.082  -2.950  24.635  0.00  0.00    +0.025 A 
ATOM     14  C   UNL     1       8.466  -2.924  23.288  0.00  0.00    +0.061 A 
ATOM     15  C   UNL     1       9.260  -1.877  22.817  0.00  0.00    +0.162 A 
ATOM     16  C   UNL     1       9.649  -0.834  23.660  0.00  0.00    +0.200 A 
ATOM     17  C   UNL     1       9.358  -0.917  25.020  0.00  0.00    +0.053 A 
BRANCH  15  18
ATOM     18  O   UNL     1       9.603  -1.882  21.493  0.00  0.00    -0.503 OA
ATOM     19  H   UNL     1      10.401  -2.433  21.405  0.00  0.00    +0.292 HD
ENDBRANCH  15  18
BRANCH  16  20
ATOM     20  O   UNL     1      10.298   0.231  23.083  0.00  0.00    -0.321 OA
BRANCH  20  21
ATOM     21  S   UNL     1       9.521   1.657  22.891  0.00  0.00    +0.251 S 
ATOM     22  O   UNL     1       9.862   2.533  23.993  0.00  0.00    -0.108 OA
ATOM     23  O   UNL     1       8.151   1.417  22.506  0.00  0.00    -0.108 OA
BRANCH  21  24
ATOM     24  O   UNL     1      10.208   2.267  21.567  0.00  0.00    -0.222 OA
ATOM     25  H   UNL     1       9.857   1.761  20.805  0.00  0.00    +0.248 HD
ENDBRANCH  21  24
ENDBRANCH  20  21
ENDBRANCH  16  20
ENDBRANCH   1  13
BRANCH   5  26
ATOM     26  O   UNL     1       3.401  -7.190  26.447  0.00  0.00    -0.506 OA
ATOM     27  H   UNL     1       2.991  -7.792  27.107  0.00  0.00    +0.292 HD
ENDBRANCH   5  26
BRANCH   7  28
ATOM     28  O   UNL     1       6.405  -7.022  30.120  0.00  0.00    -0.507 OA
ATOM     29  H   UNL     1       5.661  -7.491  30.538  0.00  0.00    +0.292 HD
ENDBRANCH   7  28
BRANCH  11  30
ATOM     30  O   UNL     1       5.765  -4.086  22.994  0.00  0.00    -0.317 OA
BRANCH  30  31
ATOM     31  S   UNL     1       6.107  -5.182  21.849  0.00  0.00    +0.252 S 
ATOM     32  O   UNL     1       7.253  -5.954  22.276  0.00  0.00    -0.108 OA
ATOM     33  O   UNL     1       6.045  -4.570  20.542  0.00  0.00    -0.108 OA
BRANCH  31  34
ATOM     34  O   UNL     1       4.838  -6.174  21.906  0.00  0.00    -0.222 OA
ATOM     35  H   UNL     1       4.235  -5.848  22.606  0.00  0.00    +0.248 HD
ENDBRANCH  31  34
ENDBRANCH  30  31
ENDBRANCH  11  30
TORSDOF 10
ENDMDL
MODEL 4
REMARK VINA RESULT:      -7.2      2.731      4.132
REMARK  Name = 
REMARK  10 active torsions:
REMARK  status: ('A' for Active; 'I' for Inactive)
REMARK    1  A    between atoms: C_3  and  O_26
REMARK    2  A    between atoms: C_4  and  O_25
REMARK    3  A    between atoms: C_6  and  C_7
REMARK    4  A    between atoms: C_8  and  O_20
REMARK    5  A    between atoms: C_12  and  O_19
REMARK    6  A    between atoms: C_14  and  O_18
REMARK    7  A    between atoms: O_20  and  S_21
REMARK    8  A    between atoms: S_21  and  O_24
REMARK    9  A    between atoms: O_26  and  S_27
REMARK   10  A    between atoms: S_27  and  O_30
REMARK                            x       y       z     vdW  Elec       q    Type
REMARK                         _______ _______ _______ _____ _____    ______ ____
ROOT
ATOM      1  C   UNL     1       7.635  -2.276  24.697  0.00  0.00    +0.184 A 
ATOM      2  O   UNL     1       7.778  -1.038  25.316  0.00  0.00    -0.451 OA
ATOM      3  C   UNL     1       8.171   0.043  24.575  0.00  0.00    +0.147 A 
ATOM      4  C   UNL     1       8.587  -0.069  23.256  0.00  0.00    +0.109 A 
ATOM      5  C   UNL     1       9.029   1.068  22.569  0.00  0.00    +0.135 A 
ATOM      6  C   UNL     1       9.048   2.312  23.195  0.00  0.00    +0.091 A 
ATOM      7  C   UNL     1       8.605   2.413  24.509  0.00  0.00    +0.124 A 
ATOM      8  C   UNL     1       8.522  -1.392  22.621  0.00  0.00    +0.241 A 
ATOM      9  O   UNL     1       8.913  -1.534  21.465  0.00  0.00    -0.283 OA
ATOM     10  C   UNL     1       8.163   1.290  25.205  0.00  0.00    +0.092 A 
ATOM     11  C   UNL     1       7.950  -2.518  23.407  0.00  0.00    +0.248 A 
ENDROOT
BRANCH   1  13
ATOM     12  C   UNL     1       5.805  -2.885  26.257  0.00  0.00    +0.015 A 
ATOM     13  C   UNL     1       7.013  -3.226  25.635  0.00  0.00    +0.025 A 
ATOM     14  C   UNL     1       7.714  -4.356  26.076  0.00  0.00    +0.061 A 
ATOM     15  C   UNL     1       7.248  -5.068  27.182  0.00  0.00    +0.162 A 
ATOM     16  C   UNL     1       6.112  -4.652  27.879  0.00  0.00    +0.200 A 
ATOM     17  C   UNL     1       5.357  -3.594  27.376  0.00  0.00    +0.053 A 
BRANCH  15  18
ATOM     18  O   UNL     1       7.967  -6.159  27.588  0.00  0.00    -0.503 OA
ATOM     19  H   UNL     1       7.899  -6.826  26.883  0.00  0.00    +0.292 HD
ENDBRANCH  15  18
BRANCH  16  20
ATOM     20  O   UNL     1       5.810  -5.318  29.043  0.00  0.00    -0.321 OA
BRANCH  20  21
ATOM     21  S   UNL     1       4.765  -6.575  29.020  0.00  0.00    +0.251 S 
ATOM     22  O   UNL     1       3.755  -6.331  28.011  0.00  0.00    -0.108 OA
ATOM     23  O   UNL     1       4.417  -6.945  30.371  0.00  0.00    -0.108 OA
BRANCH  21  24
ATOM     24  O   UNL     1       5.679  -7.793  28.494  0.00  0.00    -0.222 OA
ATOM     25  H   UNL     1       6.286  -8.031  29.225  0.00  0.00    +0.248 HD
ENDBRANCH  21  24
ENDBRANCH  20  21
ENDBRANCH  16  20
ENDBRANCH   1  13
BRANCH   5  26
ATOM     26  O   UNL     1       9.461   1.031  21.269  0.00  0.00    -0.506 OA
ATOM     27  H   UNL     1       9.157   1.851  20.820  0.00  0.00    +0.292 HD
ENDBRANCH   5  26
BRANCH   7  28
ATOM     28  O   UNL     1       8.596   3.611  25.160  0.00  0.00    -0.507 OA
ATOM     29  H   UNL     1       9.071   3.516  26.005  0.00  0.00    +0.292 HD
ENDBRANCH   7  28
BRANCH  11  30
ATOM     30  O   UNL     1       7.678  -3.657  22.680  0.00  0.00    -0.317 OA
BRANCH  30  31
ATOM     31  S   UNL     1       6.187  -4.124  22.250  0.00  0.00    +0.252 S 
ATOM     32  O   UNL     1       5.457  -2.968  21.781  0.00  0.00    -0.108 OA
ATOM     33  O   UNL     1       5.641  -5.017  23.247  0.00  0.00    -0.108 OA
BRANCH  31  34
ATOM     34  O   UNL     1       6.456  -5.053  20.961  0.00  0.00    -0.222 OA
ATOM     35  H   UNL     1       5.910  -5.861  21.056  0.00  0.00    +0.248 HD
ENDBRANCH  31  34
ENDBRANCH  30  31
ENDBRANCH  11  30
TORSDOF 10
ENDMDL
MODEL 5
REMARK VINA RESULT:      -7.1      1.277      1.531
REMARK  Name = 
REMARK  10 active torsions:
REMARK  status: ('A' for Active; 'I' for Inactive)
REMARK    1  A    between atoms: C_3  and  O_26
REMARK    2  A    between atoms: C_4  and  O_25
REMARK    3  A    between atoms: C_6  and  C_7
REMARK    4  A    between atoms: C_8  and  O_20
REMARK    5  A    between atoms: C_12  and  O_19
REMARK    6  A    between atoms: C_14  and  O_18
REMARK    7  A    between atoms: O_20  and  S_21
REMARK    8  A    between atoms: S_21  and  O_24
REMARK    9  A    between atoms: O_26  and  S_27
REMARK   10  A    between atoms: S_27  and  O_30
REMARK                            x       y       z     vdW  Elec       q    Type
REMARK                         _______ _______ _______ _____ _____    ______ ____
ROOT
ATOM      1  C   UNL     1       6.563  -2.428  23.813  0.00  0.00    +0.184 A 
ATOM      2  O   UNL     1       6.310  -1.118  23.418  0.00  0.00    -0.451 OA
ATOM      3  C   UNL     1       7.358  -0.293  23.110  0.00  0.00    +0.147 A 
ATOM      4  C   UNL     1       8.680  -0.657  23.323  0.00  0.00    +0.109 A 
ATOM      5  C   UNL     1       9.705   0.253  23.038  0.00  0.00    +0.135 A 
ATOM      6  C   UNL     1       9.410   1.518  22.535  0.00  0.00    +0.091 A 
ATOM      7  C   UNL     1       8.082   1.860  22.303  0.00  0.00    +0.124 A 
ATOM      8  C   UNL     1       8.952  -2.011  23.824  0.00  0.00    +0.241 A 
ATOM      9  O   UNL     1      10.108  -2.356  24.055  0.00  0.00    -0.283 OA
ATOM     10  C   UNL     1       7.053   0.964  22.583  0.00  0.00    +0.092 A 
ATOM     11  C   UNL     1       7.800  -2.934  24.007  0.00  0.00    +0.248 A 
ENDROOT
BRANCH   1  13
ATOM     12  C   UNL     1       4.451  -2.983  24.989  0.00  0.00    +0.015 A 
ATOM     13  C   UNL     1       5.296  -3.173  23.888  0.00  0.00    +0.025 A 
ATOM     14  C   UNL     1       5.030  -4.220  22.996  0.00  0.00    +0.061 A 
ATOM     15  C   UNL     1       3.987  -5.108  23.265  0.00  0.00    +0.162 A 
ATOM     16  C   UNL     1       3.226  -4.991  24.430  0.00  0.00    +0.200 A 
ATOM     17  C   UNL     1       3.422  -3.889  25.260  0.00  0.00    +0.053 A 
BRANCH  15  18
ATOM     18  O   UNL     1       3.767  -6.123  22.375  0.00  0.00    -0.503 OA
ATOM     19  H   UNL     1       2.917  -6.534  22.612  0.00  0.00    +0.292 HD
ENDBRANCH  15  18
BRANCH  16  20
ATOM     20  O   UNL     1       2.323  -5.993  24.693  0.00  0.00    -0.321 OA
BRANCH  20  21
ATOM     21  S   UNL     1       2.822  -7.377  25.408  0.00  0.00    +0.251 S 
ATOM     22  O   UNL     1       1.738  -7.915  26.205  0.00  0.00    -0.108 OA
ATOM     23  O   UNL     1       4.146  -7.196  25.950  0.00  0.00    -0.108 OA
BRANCH  21  24
ATOM     24  O   UNL     1       3.032  -8.372  24.158  0.00  0.00    -0.222 OA
ATOM     25  H   UNL     1       2.232  -8.299  23.598  0.00  0.00    +0.248 HD
ENDBRANCH  21  24
ENDBRANCH  20  21
ENDBRANCH  16  20
ENDBRANCH   1  13
BRANCH   5  26
ATOM     26  O   UNL     1      11.031  -0.035  23.230  0.00  0.00    -0.506 OA
ATOM     27  H   UNL     1      11.524   0.235  22.424  0.00  0.00    +0.292 HD
ENDBRANCH   5  26
BRANCH   7  28
ATOM     28  O   UNL     1       7.746   3.082  21.804  0.00  0.00    -0.507 OA
ATOM     29  H   UNL     1       8.560   3.575  21.597  0.00  0.00    +0.292 HD
ENDBRANCH   7  28
BRANCH  11  30
ATOM     30  O   UNL     1       8.138  -4.252  24.226  0.00  0.00    -0.317 OA
BRANCH  30  31
ATOM     31  S   UNL     1       8.282  -4.919  25.696  0.00  0.00    +0.252 S 
ATOM     32  O   UNL     1       7.147  -5.785  25.924  0.00  0.00    -0.108 OA
ATOM     33  O   UNL     1       8.682  -3.918  26.659  0.00  0.00    -0.108 OA
BRANCH  31  34
ATOM     34  O   UNL     1       9.567  -5.879  25.535  0.00  0.00    -0.222 OA
ATOM     35  H   UNL     1       9.624  -6.438  26.337  0.00  0.00    +0.248 HD
ENDBRANCH  31  34
ENDBRANCH  30  31
ENDBRANCH  11  30
TORSDOF 10
ENDMDL
MODEL 6
REMARK VINA RESULT:      -7.0      2.457      7.695
REMARK  Name = 
REMARK  10 active torsions:
REMARK  status: ('A' for Active; 'I' for Inactive)
REMARK    1  A    between atoms: C_3  and  O_26
REMARK    2  A    between atoms: C_4  and  O_25
REMARK    3  A    between atoms: C_6  and  C_7
REMARK    4  A    between atoms: C_8  and  O_20
REMARK    5  A    between atoms: C_12  and  O_19
REMARK    6  A    between atoms: C_14  and  O_18
REMARK    7  A    between atoms: O_20  and  S_21
REMARK    8  A    between atoms: S_21  and  O_24
REMARK    9  A    between atoms: O_26  and  S_27
REMARK   10  A    between atoms: S_27  and  O_30
REMARK                            x       y       z     vdW  Elec       q    Type
REMARK                         _______ _______ _______ _____ _____    ______ ____
ROOT
ATOM      1  C   UNL     1       7.735  -2.813  23.908  0.00  0.00    +0.184 A 
ATOM      2  O   UNL     1       6.838  -3.545  23.135  0.00  0.00    -0.451 OA
ATOM      3  C   UNL     1       6.101  -4.539  23.719  0.00  0.00    +0.147 A 
ATOM      4  C   UNL     1       6.316  -4.958  25.024  0.00  0.00    +0.109 A 
ATOM      5  C   UNL     1       5.564  -6.017  25.546  0.00  0.00    +0.135 A 
ATOM      6  C   UNL     1       4.595  -6.648  24.770  0.00  0.00    +0.091 A 
ATOM      7  C   UNL     1       4.373  -6.201  23.472  0.00  0.00    +0.124 A 
ATOM      8  C   UNL     1       7.324  -4.246  25.821  0.00  0.00    +0.241 A 
ATOM      9  O   UNL     1       7.565  -4.611  26.969  0.00  0.00    -0.283 OA
ATOM     10  C   UNL     1       5.114  -5.149  22.940  0.00  0.00    +0.092 A 
ATOM     11  C   UNL     1       8.004  -3.075  25.205  0.00  0.00    +0.248 A 
ENDROOT
BRANCH   1  13
ATOM     12  C   UNL     1       9.623  -1.606  22.846  0.00  0.00    +0.015 A 
ATOM     13  C   UNL     1       8.252  -1.681  23.122  0.00  0.00    +0.025 A 
ATOM     14  C   UNL     1       7.436  -0.578  22.839  0.00  0.00    +0.061 A 
ATOM     15  C   UNL     1       8.012   0.605  22.373  0.00  0.00    +0.162 A 
ATOM     16  C   UNL     1       9.395   0.719  22.219  0.00  0.00    +0.200 A 
ATOM     17  C   UNL     1      10.193  -0.410  22.398  0.00  0.00    +0.053 A 
BRANCH  15  18
ATOM     18  O   UNL     1       7.182   1.662  22.119  0.00  0.00    -0.503 OA
ATOM     19  H   UNL     1       7.288   1.891  21.179  0.00  0.00    +0.292 HD
ENDBRANCH  15  18
BRANCH  16  20
ATOM     20  O   UNL     1       9.892   1.961  21.904  0.00  0.00    -0.321 OA
BRANCH  20  21
ATOM     21  S   UNL     1      10.133   3.069  23.082  0.00  0.00    +0.251 S 
ATOM     22  O   UNL     1       8.954   3.902  23.196  0.00  0.00    -0.108 OA
ATOM     23  O   UNL     1      11.455   3.635  22.957  0.00  0.00    -0.108 OA
BRANCH  21  24
ATOM     24  O   UNL     1      10.209   2.166  24.415  0.00  0.00    -0.222 OA
ATOM     25  H   UNL     1      10.800   1.412  24.215  0.00  0.00    +0.248 HD
ENDBRANCH  21  24
ENDBRANCH  20  21
ENDBRANCH  16  20
ENDBRANCH   1  13
BRANCH   5  26
ATOM     26  O   UNL     1       5.727  -6.488  26.822  0.00  0.00    -0.506 OA
ATOM     27  H   UNL     1       4.839  -6.587  27.230  0.00  0.00    +0.292 HD
ENDBRANCH   5  26
BRANCH   7  28
ATOM     28  O   UNL     1       3.429  -6.782  22.678  0.00  0.00    -0.507 OA
ATOM     29  H   UNL     1       3.822  -6.974  21.807  0.00  0.00    +0.292 HD
ENDBRANCH   7  28
BRANCH  11  30
ATOM     30  O   UNL     1       8.737  -2.301  26.078  0.00  0.00    -0.317 OA
BRANCH  30  31
ATOM     31  S   UNL     1       8.252  -0.860  26.639  0.00  0.00    +0.252 S 
ATOM     32  O   UNL     1       6.913  -0.995  27.167  0.00  0.00    -0.108 OA
ATOM     33  O   UNL     1       8.599   0.181  25.698  0.00  0.00    -0.108 OA
BRANCH  31  34
ATOM     34  O   UNL     1       9.222  -0.618  27.904  0.00  0.00    -0.222 OA
ATOM     35  H   UNL     1       9.678   0.239  27.771  0.00  0.00    +0.248 HD
ENDBRANCH  31  34
ENDBRANCH  30  31
ENDBRANCH  11  30
TORSDOF 10
ENDMDL
MODEL 7
REMARK VINA RESULT:      -6.9      3.140      7.672
REMARK  Name = 
REMARK  10 active torsions:
REMARK  status: ('A' for Active; 'I' for Inactive)
REMARK    1  A    between atoms: C_3  and  O_26
REMARK    2  A    between atoms: C_4  and  O_25
REMARK    3  A    between atoms: C_6  and  C_7
REMARK    4  A    between atoms: C_8  and  O_20
REMARK    5  A    between atoms: C_12  and  O_19
REMARK    6  A    between atoms: C_14  and  O_18
REMARK    7  A    between atoms: O_20  and  S_21
REMARK    8  A    between atoms: S_21  and  O_24
REMARK    9  A    between atoms: O_26  and  S_27
REMARK   10  A    between atoms: S_27  and  O_30
REMARK                            x       y       z     vdW  Elec       q    Type
REMARK                         _______ _______ _______ _____ _____    ______ ____
ROOT
ATOM      1  C   UNL     1       6.396  -3.096  26.145  0.00  0.00    +0.184 A 
ATOM      2  O   UNL     1       5.069  -3.142  26.560  0.00  0.00    -0.451 OA
ATOM      3  C   UNL     1       4.660  -4.143  27.398  0.00  0.00    +0.147 A 
ATOM      4  C   UNL     1       5.477  -5.213  27.736  0.00  0.00    +0.109 A 
ATOM      5  C   UNL     1       4.982  -6.234  28.555  0.00  0.00    +0.135 A 
ATOM      6  C   UNL     1       3.678  -6.182  29.042  0.00  0.00    +0.091 A 
ATOM      7  C   UNL     1       2.878  -5.092  28.716  0.00  0.00    +0.124 A 
ATOM      8  C   UNL     1       6.856  -5.215  27.230  0.00  0.00    +0.241 A 
ATOM      9  O   UNL     1       7.598  -6.162  27.481  0.00  0.00    -0.283 OA
ATOM     10  C   UNL     1       3.359  -4.070  27.901  0.00  0.00    +0.092 A 
ATOM     11  C   UNL     1       7.315  -4.039  26.444  0.00  0.00    +0.248 A 
ENDROOT
BRANCH   1  13
ATOM     12  C   UNL     1       6.496  -1.794  24.036  0.00  0.00    +0.015 A 
ATOM     13  C   UNL     1       6.644  -1.834  25.428  0.00  0.00    +0.025 A 
ATOM     14  C   UNL     1       7.232  -0.744  26.085  0.00  0.00    +0.061 A 
ATOM     15  C   UNL     1       7.741   0.319  25.337  0.00  0.00    +0.162 A 
ATOM     16  C   UNL     1       7.706   0.298  23.942  0.00  0.00    +0.200 A 
ATOM     17  C   UNL     1       7.027  -0.733  23.296  0.00  0.00    +0.053 A 
BRANCH  15  18
ATOM     18  O   UNL     1       8.316   1.358  26.016  0.00  0.00    -0.503 OA
ATOM     19  H   UNL     1       7.819   1.470  26.845  0.00  0.00    +0.292 HD
ENDBRANCH  15  18
BRANCH  16  20
ATOM     20  O   UNL     1       8.364   1.309  23.282  0.00  0.00    -0.321 OA
BRANCH  20  21
ATOM     21  S   UNL     1       9.953   1.157  22.928  0.00  0.00    +0.251 S 
ATOM     22  O   UNL     1      10.257   1.965  21.766  0.00  0.00    -0.108 OA
ATOM     23  O   UNL     1      10.340  -0.231  23.011  0.00  0.00    -0.108 OA
BRANCH  21  24
ATOM     24  O   UNL     1      10.671   1.850  24.192  0.00  0.00    -0.222 OA
ATOM     25  H   UNL     1      11.451   2.332  23.847  0.00  0.00    +0.248 HD
ENDBRANCH  21  24
ENDBRANCH  20  21
ENDBRANCH  16  20
ENDBRANCH   1  13
BRANCH   5  26
ATOM     26  O   UNL     1       5.728  -7.322  28.923  0.00  0.00    -0.506 OA
ATOM     27  H   UNL     1       5.778  -7.935  28.157  0.00  0.00    +0.292 HD
ENDBRANCH   5  26
BRANCH   7  28
ATOM     28  O   UNL     1       1.599  -4.993  29.176  0.00  0.00    -0.507 OA
ATOM     29  H   UNL     1       1.394  -5.778  29.715  0.00  0.00    +0.292 HD
ENDBRANCH   7  28
BRANCH  11  30
ATOM     30  O   UNL     1       8.674  -3.980  26.222  0.00  0.00    -0.317 OA
BRANCH  30  31
ATOM     31  S   UNL     1       9.393  -4.480  24.858  0.00  0.00    +0.252 S 
ATOM     32  O   UNL     1      10.068  -3.355  24.251  0.00  0.00    -0.108 OA
ATOM     33  O   UNL     1       8.494  -5.326  24.105  0.00  0.00    -0.108 OA
BRANCH  31  34
ATOM     34  O   UNL     1      10.544  -5.471  25.397  0.00  0.00    -0.222 OA
ATOM     35  H   UNL     1      11.256  -5.495  24.724  0.00  0.00    +0.248 HD
ENDBRANCH  31  34
ENDBRANCH  30  31
ENDBRANCH  11  30
TORSDOF 10
ENDMDL
MODEL 8
REMARK VINA RESULT:      -6.7      2.154      3.348
REMARK  Name = 
REMARK  10 active torsions:
REMARK  status: ('A' for Active; 'I' for Inactive)
REMARK    1  A    between atoms: C_3  and  O_26
REMARK    2  A    between atoms: C_4  and  O_25
REMARK    3  A    between atoms: C_6  and  C_7
REMARK    4  A    between atoms: C_8  and  O_20
REMARK    5  A    between atoms: C_12  and  O_19
REMARK    6  A    between atoms: C_14  and  O_18
REMARK    7  A    between atoms: O_20  and  S_21
REMARK    8  A    between atoms: S_21  and  O_24
REMARK    9  A    between atoms: O_26  and  S_27
REMARK   10  A    between atoms: S_27  and  O_30
REMARK                            x       y       z     vdW  Elec       q    Type
REMARK                         _______ _______ _______ _____ _____    ______ ____
ROOT
ATOM      1  C   UNL     1       6.752  -3.501  24.793  0.00  0.00    +0.184 A 
ATOM      2  O   UNL     1       6.816  -2.288  25.471  0.00  0.00    -0.451 OA
ATOM      3  C   UNL     1       7.582  -1.273  24.964  0.00  0.00    +0.147 A 
ATOM      4  C   UNL     1       8.427  -1.449  23.877  0.00  0.00    +0.109 A 
ATOM      5  C   UNL     1       9.225  -0.386  23.439  0.00  0.00    +0.135 A 
ATOM      6  C   UNL     1       9.174   0.850  24.080  0.00  0.00    +0.091 A 
ATOM      7  C   UNL     1       8.304   1.019  25.153  0.00  0.00    +0.124 A 
ATOM      8  C   UNL     1       8.429  -2.757  23.208  0.00  0.00    +0.241 A 
ATOM      9  O   UNL     1       9.188  -2.958  22.263  0.00  0.00    -0.283 OA
ATOM     10  C   UNL     1       7.505  -0.031  25.598  0.00  0.00    +0.092 A 
ATOM     11  C   UNL     1       7.476  -3.792  23.691  0.00  0.00    +0.248 A 
ENDROOT
BRANCH   1  13
ATOM     12  C   UNL     1       6.083  -5.595  25.942  0.00  0.00    +0.015 A 
ATOM     13  C   UNL     1       5.720  -4.353  25.407  0.00  0.00    +0.025 A 
ATOM     14  C   UNL     1       4.361  -4.040  25.267  0.00  0.00    +0.061 A 
ATOM     15  C   UNL     1       3.397  -5.000  25.577  0.00  0.00    +0.162 A 
ATOM     16  C   UNL     1       3.765  -6.282  25.991  0.00  0.00    +0.200 A 
ATOM     17  C   UNL     1       5.110  -6.557  26.231  0.00  0.00    +0.053 A 
BRANCH  15  18
ATOM     18  O   UNL     1       2.082  -4.659  25.417  0.00  0.00    -0.503 OA
ATOM     19  H   UNL     1       1.584  -5.087  26.136  0.00  0.00    +0.292 HD
ENDBRANCH  15  18
BRANCH  16  20
ATOM     20  O   UNL     1       2.761  -7.211  26.127  0.00  0.00    -0.321 OA
BRANCH  20  21
ATOM     21  S   UNL     1       2.191  -7.999  24.812  0.00  0.00    +0.251 S 
ATOM     22  O   UNL     1       1.073  -7.258  24.265  0.00  0.00    -0.108 OA
ATOM     23  O   UNL     1       2.102  -9.412  25.092  0.00  0.00    -0.108 OA
BRANCH  21  24
ATOM     24  O   UNL     1       3.406  -7.873  23.762  0.00  0.00    -0.222 OA
ATOM     25  H   UNL     1       3.351  -8.650  23.168  0.00  0.00    +0.248 HD
ENDBRANCH  21  24
ENDBRANCH  20  21
ENDBRANCH  16  20
ENDBRANCH   1  13
BRANCH   5  26
ATOM     26  O   UNL     1      10.087  -0.489  22.379  0.00  0.00    -0.506 OA
ATOM     27  H   UNL     1       9.883   0.235  21.745  0.00  0.00    +0.292 HD
ENDBRANCH   5  26
BRANCH   7  28
ATOM     28  O   UNL     1       8.213   2.212  25.805  0.00  0.00    -0.507 OA
ATOM     29  H   UNL     1       7.408   2.675  25.508  0.00  0.00    +0.292 HD
ENDBRANCH   7  28
BRANCH  11  30
ATOM     30  O   UNL     1       7.343  -4.891  22.871  0.00  0.00    -0.317 OA
BRANCH  30  31
ATOM     31  S   UNL     1       6.123  -5.098  21.824  0.00  0.00    +0.252 S 
ATOM     32  O   UNL     1       6.637  -5.745  20.637  0.00  0.00    -0.108 OA
ATOM     33  O   UNL     1       5.322  -3.898  21.751  0.00  0.00    -0.108 OA
BRANCH  31  34
ATOM     34  O   UNL     1       5.187  -6.179  22.568  0.00  0.00    -0.222 OA
ATOM     35  H   UNL     1       5.403  -6.153  23.523  0.00  0.00    +0.248 HD
ENDBRANCH  31  34
ENDBRANCH  30  31
ENDBRANCH  11  30
TORSDOF 10
ENDMDL
MODEL 9
REMARK VINA RESULT:      -6.6      3.440      8.041
REMARK  Name = 
REMARK  10 active torsions:
REMARK  status: ('A' for Active; 'I' for Inactive)
REMARK    1  A    between atoms: C_3  and  O_26
REMARK    2  A    between atoms: C_4  and  O_25
REMARK    3  A    between atoms: C_6  and  C_7
REMARK    4  A    between atoms: C_8  and  O_20
REMARK    5  A    between atoms: C_12  and  O_19
REMARK    6  A    between atoms: C_14  and  O_18
REMARK    7  A    between atoms: O_20  and  S_21
REMARK    8  A    between atoms: S_21  and  O_24
REMARK    9  A    between atoms: O_26  and  S_27
REMARK   10  A    between atoms: S_27  and  O_30
REMARK                            x       y       z     vdW  Elec       q    Type
REMARK                         _______ _______ _______ _____ _____    ______ ____
ROOT
ATOM      1  C   UNL     1       7.830  -0.491  23.821  0.00  0.00    +0.184 A 
ATOM      2  O   UNL     1       7.337  -1.247  22.762  0.00  0.00    -0.451 OA
ATOM      3  C   UNL     1       7.220  -2.604  22.900  0.00  0.00    +0.147 A 
ATOM      4  C   UNL     1       7.718  -3.286  24.001  0.00  0.00    +0.109 A 
ATOM      5  C   UNL     1       7.615  -4.680  24.059  0.00  0.00    +0.135 A 
ATOM      6  C   UNL     1       7.010  -5.390  23.024  0.00  0.00    +0.091 A 
ATOM      7  C   UNL     1       6.494  -4.691  21.937  0.00  0.00    +0.124 A 
ATOM      8  C   UNL     1       8.319  -2.500  25.087  0.00  0.00    +0.241 A 
ATOM      9  O   UNL     1       8.799  -3.072  26.063  0.00  0.00    -0.283 OA
ATOM     10  C   UNL     1       6.591  -3.303  21.868  0.00  0.00    +0.092 A 
ATOM     11  C   UNL     1       8.297  -1.017  24.973  0.00  0.00    +0.248 A 
ENDROOT
BRANCH   1  13
ATOM     12  C   UNL     1       6.444   1.408  23.029  0.00  0.00    +0.015 A 
ATOM     13  C   UNL     1       7.671   0.941  23.518  0.00  0.00    +0.025 A 
ATOM     14  C   UNL     1       8.783   1.794  23.502  0.00  0.00    +0.061 A 
ATOM     15  C   UNL     1       8.674   3.058  22.920  0.00  0.00    +0.162 A 
ATOM     16  C   UNL     1       7.484   3.474  22.320  0.00  0.00    +0.200 A 
ATOM     17  C   UNL     1       6.352   2.669  22.430  0.00  0.00    +0.053 A 
BRANCH  15  18
ATOM     18  O   UNL     1       9.785   3.856  22.915  0.00  0.00    -0.503 OA
ATOM     19  H   UNL     1      10.221   3.738  22.053  0.00  0.00    +0.292 HD
ENDBRANCH  15  18
BRANCH  16  20
ATOM     20  O   UNL     1       7.508   4.666  21.637  0.00  0.00    -0.321 OA
BRANCH  20  21
ATOM     21  S   UNL     1       7.219   6.068  22.428  0.00  0.00    +0.251 S 
ATOM     22  O   UNL     1       8.465   6.572  22.967  0.00  0.00    -0.108 OA
ATOM     23  O   UNL     1       6.037   5.932  23.244  0.00  0.00    -0.108 OA
BRANCH  21  24
ATOM     24  O   UNL     1       6.775   7.065  21.242  0.00  0.00    -0.222 OA
ATOM     25  H   UNL     1       7.356   6.874  20.477  0.00  0.00    +0.248 HD
ENDBRANCH  21  24
ENDBRANCH  20  21
ENDBRANCH  16  20
ENDBRANCH   1  13
BRANCH   5  26
ATOM     26  O   UNL     1       8.089  -5.420  25.110  0.00  0.00    -0.506 OA
ATOM     27  H   UNL     1       7.326  -5.684  25.671  0.00  0.00    +0.292 HD
ENDBRANCH   5  26
BRANCH   7  28
ATOM     28  O   UNL     1       5.886  -5.340  20.906  0.00  0.00    -0.507 OA
ATOM     29  H   UNL     1       4.985  -4.987  20.795  0.00  0.00    +0.292 HD
ENDBRANCH   7  28
BRANCH  11  30
ATOM     30  O   UNL     1       8.635  -0.339  26.124  0.00  0.00    -0.317 OA
BRANCH  30  31
ATOM     31  S   UNL     1       7.555   0.269  27.170  0.00  0.00    +0.252 S 
ATOM     32  O   UNL     1       6.510  -0.708  27.374  0.00  0.00    -0.108 OA
ATOM     33  O   UNL     1       7.259   1.643  26.835  0.00  0.00    -0.108 OA
BRANCH  31  34
ATOM     34  O   UNL     1       8.388   0.345  28.547  0.00  0.00    -0.222 OA
ATOM     35  H   UNL     1       8.733   1.258  28.637  0.00  0.00    +0.248 HD
ENDBRANCH  31  34
ENDBRANCH  30  31
ENDBRANCH  11  30
TORSDOF 10
ENDMDL
