MODEL 1
REMARK VINA RESULT:      -7.3      0.000      0.000
REMARK  Name = 
REMARK  10 active torsions:
REMARK  status: ('A' for Active; 'I' for Inactive)
REMARK    1  A    between atoms: C_1  and  C_2
REMARK    2  A    between atoms: C_2  and  C_3
REMARK    3  A    between atoms: C_2  and  C_4
REMARK    4  A    between atoms: C_4  and  O_6
REMARK    5  A    between atoms: O_6  and  C_7
REMARK    6  A    between atoms: C_8  and  O_27
REMARK    7  A    between atoms: C_11  and  C_13
REMARK    8  A    between atoms: C_14  and  O_26
REMARK    9  A    between atoms: C_18  and  O_25
REMARK   10  A    between atoms: C_20  and  O_24
REMARK                            x       y       z     vdW  Elec       q    Type
REMARK                         _______ _______ _______ _____ _____    ______ ____
ROOT
ATOM      1  C   UNL     1       6.936  -2.657  23.239  0.00  0.00    +0.181 A 
ATOM      2  O   UNL     1       7.277  -2.970  24.553  0.00  0.00    -0.451 OA
ATOM      3  C   UNL     1       6.700  -4.064  25.147  0.00  0.00    +0.147 A 
ATOM      4  C   UNL     1       5.848  -4.929  24.470  0.00  0.00    +0.109 A 
ATOM      5  C   UNL     1       5.310  -6.044  25.124  0.00  0.00    +0.135 A 
ATOM      6  C   UNL     1       5.607  -6.287  26.460  0.00  0.00    +0.091 A 
ATOM      7  C   UNL     1       6.448  -5.408  27.134  0.00  0.00    +0.124 A 
ATOM      8  C   UNL     1       5.521  -4.637  23.075  0.00  0.00    +0.238 A 
ATOM      9  O   UNL     1       4.811  -5.413  22.441  0.00  0.00    -0.283 OA
ATOM     10  C   UNL     1       6.999  -4.301  26.490  0.00  0.00    +0.092 A 
ATOM     11  C   UNL     1       6.065  -3.380  22.496  0.00  0.00    +0.208 A 
ENDROOT
BRANCH   1  14
ATOM     12  C   UNL     1       7.859   0.972  22.620  0.00  0.00    +0.173 A 
ATOM     13  C   UNL     1       7.147  -0.173  22.991  0.00  0.00    +0.061 A 
ATOM     14  C   UNL     1       7.646  -1.456  22.729  0.00  0.00    +0.025 A 
ATOM     15  C   UNL     1       8.804  -1.554  21.941  0.00  0.00    +0.015 A 
ATOM     16  C   UNL     1       9.467  -0.403  21.484  0.00  0.00    +0.050 A 
ATOM     17  C   UNL     1       8.997   0.858  21.834  0.00  0.00    +0.159 A 
BRANCH  17  18
ATOM     18  O   UNL     1       9.668   1.949  21.367  0.00  0.00    -0.503 OA
ATOM     19  H   UNL     1       9.931   2.481  22.138  0.00  0.00    +0.292 HD
ENDBRANCH  17  18
BRANCH  12  20
ATOM     20  O   UNL     1       7.371   2.244  22.958  0.00  0.00    -0.422 OA
BRANCH  20  21
ATOM     21  C   UNL     1       7.950   2.802  24.105  0.00  0.00    +0.315 C 
ATOM     22  O   UNL     1       8.217   2.189  25.133  0.00  0.00    -0.250 OA
BRANCH  21  24
ATOM     23  C   UNL     1       9.679   4.589  23.841  0.00  0.00    +0.019 C 
ATOM     24  C   UNL     1       8.179   4.291  23.885  0.00  0.00    +0.092 C 
ATOM     25  C   UNL     1       7.535   4.758  22.578  0.00  0.00    +0.019 C 
ENDBRANCH  21  24
ENDBRANCH  20  21
ENDBRANCH  12  20
ENDBRANCH   1  14
BRANCH   5  26
ATOM     26  O   UNL     1       4.479  -6.942  24.508  0.00  0.00    -0.506 OA
ATOM     27  H   UNL     1       3.721  -6.442  24.123  0.00  0.00    +0.292 HD
ENDBRANCH   5  26
BRANCH   7  28
ATOM     28  O   UNL     1       6.757  -5.603  28.448  0.00  0.00    -0.507 OA
ATOM     29  H   UNL     1       6.529  -6.517  28.691  0.00  0.00    +0.292 HD
ENDBRANCH   7  28
BRANCH  11  30
ATOM     30  O   UNL     1       5.630  -3.065  21.221  0.00  0.00    -0.501 OA
ATOM     31  H   UNL     1       5.968  -3.714  20.578  0.00  0.00    +0.292 HD
ENDBRANCH  11  30
TORSDOF 8
ENDMDL
MODEL 2
REMARK VINA RESULT:      -7.2      2.427      2.889
REMARK  Name = 
REMARK  10 active torsions:
REMARK  status: ('A' for Active; 'I' for Inactive)
REMARK    1  A    between atoms: C_1  and  C_2
REMARK    2  A    between atoms: C_2  and  C_3
REMARK    3  A    between atoms: C_2  and  C_4
REMARK    4  A    between atoms: C_4  and  O_6
REMARK    5  A    between atoms: O_6  and  C_7
REMARK    6  A    between atoms: C_8  and  O_27
REMARK    7  A    between atoms: C_11  and  C_13
REMARK    8  A    between atoms: C_14  and  O_26
REMARK    9  A    between atoms: C_18  and  O_25
REMARK   10  A    between atoms: C_20  and  O_24
REMARK                            x       y       z     vdW  Elec       q    Type
REMARK                         _______ _______ _______ _____ _____    ______ ____
ROOT
ATOM      1  C   UNL     1       8.470  -2.034  24.681  0.00  0.00    +0.181 A 
ATOM      2  O   UNL     1       7.288  -1.788  25.374  0.00  0.00    -0.451 OA
ATOM      3  C   UNL     1       6.801  -2.751  26.221  0.00  0.00    +0.147 A 
ATOM      4  C   UNL     1       7.480  -3.935  26.487  0.00  0.00    +0.109 A 
ATOM      5  C   UNL     1       6.944  -4.869  27.382  0.00  0.00    +0.135 A 
ATOM      6  C   UNL     1       5.722  -4.631  28.000  0.00  0.00    +0.091 A 
ATOM      7  C   UNL     1       5.042  -3.451  27.716  0.00  0.00    +0.124 A 
ATOM      8  C   UNL     1       8.748  -4.182  25.801  0.00  0.00    +0.238 A 
ATOM      9  O   UNL     1       9.390  -5.197  26.057  0.00  0.00    -0.283 OA
ATOM     10  C   UNL     1       5.571  -2.508  26.836  0.00  0.00    +0.092 A 
ATOM     11  C   UNL     1       9.187  -3.175  24.799  0.00  0.00    +0.208 A 
ENDROOT
BRANCH   1  14
ATOM     12  C   UNL     1       9.754   1.366  23.585  0.00  0.00    +0.173 A 
ATOM     13  C   UNL     1       9.259   0.325  24.376  0.00  0.00    +0.061 A 
ATOM     14  C   UNL     1       8.876  -0.899  23.812  0.00  0.00    +0.025 A 
ATOM     15  C   UNL     1       8.854  -0.989  22.410  0.00  0.00    +0.015 A 
ATOM     16  C   UNL     1       9.258   0.093  21.610  0.00  0.00    +0.050 A 
ATOM     17  C   UNL     1       9.717   1.264  22.201  0.00  0.00    +0.159 A 
BRANCH  17  18
ATOM     18  O   UNL     1      10.096   2.291  21.388  0.00  0.00    -0.503 OA
ATOM     19  H   UNL     1      10.898   2.686  21.774  0.00  0.00    +0.292 HD
ENDBRANCH  17  18
BRANCH  12  20
ATOM     20  O   UNL     1      10.198   2.555  24.184  0.00  0.00    -0.422 OA
BRANCH  20  21
ATOM     21  C   UNL     1       9.197   3.516  24.379  0.00  0.00    +0.315 C 
ATOM     22  O   UNL     1       8.084   3.294  24.840  0.00  0.00    -0.250 OA
BRANCH  21  24
ATOM     23  C   UNL     1       9.466   5.923  25.001  0.00  0.00    +0.019 C 
ATOM     24  C   UNL     1       9.701   4.875  23.911  0.00  0.00    +0.092 C 
ATOM     25  C   UNL     1      11.193   4.822  23.578  0.00  0.00    +0.019 C 
ENDBRANCH  21  24
ENDBRANCH  20  21
ENDBRANCH  12  20
ENDBRANCH   1  14
BRANCH   5  26
ATOM     26  O   UNL     1       7.571  -6.045  27.698  0.00  0.00    -0.506 OA
ATOM     27  H   UNL     1       7.705  -6.067  28.675  0.00  0.00    +0.292 HD
ENDBRANCH   5  26
BRANCH   7  28
ATOM     28  O   UNL     1       3.835  -3.182  28.292  0.00  0.00    -0.507 OA
ATOM     29  H   UNL     1       3.413  -4.022  28.543  0.00  0.00    +0.292 HD
ENDBRANCH   7  28
BRANCH  11  30
ATOM     30  O   UNL     1      10.319  -3.502  24.073  0.00  0.00    -0.501 OA
ATOM     31  H   UNL     1      11.121  -3.315  24.593  0.00  0.00    +0.292 HD
ENDBRANCH  11  30
TORSDOF 8
ENDMDL
MODEL 3
REMARK VINA RESULT:      -7.2      2.668      3.344
REMARK  Name = 
REMARK  10 active torsions:
REMARK  status: ('A' for Active; 'I' for Inactive)
REMARK    1  A    between atoms: C_1  and  C_2
REMARK    2  A    between atoms: C_2  and  C_3
REMARK    3  A    between atoms: C_2  and  C_4
REMARK    4  A    between atoms: C_4  and  O_6
REMARK    5  A    between atoms: O_6  and  C_7
REMARK    6  A    between atoms: C_8  and  O_27
REMARK    7  A    between atoms: C_11  and  C_13
REMARK    8  A    between atoms: C_14  and  O_26
REMARK    9  A    between atoms: C_18  and  O_25
REMARK   10  A    between atoms: C_20  and  O_24
REMARK                            x       y       z     vdW  Elec       q    Type
REMARK                         _______ _______ _______ _____ _____    ______ ____
ROOT
ATOM      1  C   UNL     1       8.277  -0.832  24.155  0.00  0.00    +0.181 A 
ATOM      2  O   UNL     1       7.335  -1.138  25.135  0.00  0.00    -0.451 OA
ATOM      3  C   UNL     1       7.372  -2.373  25.731  0.00  0.00    +0.147 A 
ATOM      4  C   UNL     1       8.363  -3.311  25.462  0.00  0.00    +0.109 A 
ATOM      5  C   UNL     1       8.362  -4.546  26.123  0.00  0.00    +0.135 A 
ATOM      6  C   UNL     1       7.363  -4.853  27.039  0.00  0.00    +0.091 A 
ATOM      7  C   UNL     1       6.366  -3.915  27.290  0.00  0.00    +0.124 A 
ATOM      8  C   UNL     1       9.386  -2.982  24.470  0.00  0.00    +0.238 A 
ATOM      9  O   UNL     1      10.299  -3.773  24.252  0.00  0.00    -0.283 OA
ATOM     10  C   UNL     1       6.364  -2.677  26.647  0.00  0.00    +0.092 A 
ATOM     11  C   UNL     1       9.248  -1.686  23.755  0.00  0.00    +0.208 A 
ENDROOT
BRANCH   1  14
ATOM     12  C   UNL     1       8.701   2.908  23.674  0.00  0.00    +0.173 A 
ATOM     13  C   UNL     1       8.742   1.628  24.234  0.00  0.00    +0.061 A 
ATOM     14  C   UNL     1       8.118   0.540  23.610  0.00  0.00    +0.025 A 
ATOM     15  C   UNL     1       7.315   0.808  22.488  0.00  0.00    +0.015 A 
ATOM     16  C   UNL     1       7.194   2.112  21.982  0.00  0.00    +0.050 A 
ATOM     17  C   UNL     1       7.896   3.158  22.570  0.00  0.00    +0.159 A 
BRANCH  17  18
ATOM     18  O   UNL     1       7.747   4.409  22.050  0.00  0.00    -0.503 OA
ATOM     19  H   UNL     1       6.793   4.566  21.938  0.00  0.00    +0.292 HD
ENDBRANCH  17  18
BRANCH  12  20
ATOM     20  O   UNL     1       9.395   3.965  24.282  0.00  0.00    -0.422 OA
BRANCH  20  21
ATOM     21  C   UNL     1      10.658   4.223  23.733  0.00  0.00    +0.315 C 
ATOM     22  O   UNL     1      11.470   3.369  23.396  0.00  0.00    -0.250 OA
BRANCH  21  24
ATOM     23  C   UNL     1       9.812   6.461  24.460  0.00  0.00    +0.019 C 
ATOM     24  C   UNL     1      10.874   5.728  23.639  0.00  0.00    +0.092 C 
ATOM     25  C   UNL     1      12.262   6.115  24.151  0.00  0.00    +0.019 C 
ENDBRANCH  21  24
ENDBRANCH  20  21
ENDBRANCH  12  20
ENDBRANCH   1  14
BRANCH   5  26
ATOM     26  O   UNL     1       9.318  -5.505  25.915  0.00  0.00    -0.506 OA
ATOM     27  H   UNL     1       9.316  -5.735  24.956  0.00  0.00    +0.292 HD
ENDBRANCH   5  26
BRANCH   7  28
ATOM     28  O   UNL     1       5.362  -4.180  28.173  0.00  0.00    -0.507 OA
ATOM     29  H   UNL     1       5.686  -4.814  28.836  0.00  0.00    +0.292 HD
ENDBRANCH   7  28
BRANCH  11  30
ATOM     30  O   UNL     1      10.153  -1.463  22.732  0.00  0.00    -0.501 OA
ATOM     31  H   UNL     1      10.628  -0.625  22.875  0.00  0.00    +0.292 HD
ENDBRANCH  11  30
TORSDOF 8
ENDMDL
MODEL 4
REMARK VINA RESULT:      -7.1      2.257      8.082
REMARK  Name = 
REMARK  10 active torsions:
REMARK  status: ('A' for Active; 'I' for Inactive)
REMARK    1  A    between atoms: C_1  and  C_2
REMARK    2  A    between atoms: C_2  and  C_3
REMARK    3  A    between atoms: C_2  and  C_4
REMARK    4  A    between atoms: C_4  and  O_6
REMARK    5  A    between atoms: O_6  and  C_7
REMARK    6  A    between atoms: C_8  and  O_27
REMARK    7  A    between atoms: C_11  and  C_13
REMARK    8  A    between atoms: C_14  and  O_26
REMARK    9  A    between atoms: C_18  and  O_25
REMARK   10  A    between atoms: C_20  and  O_24
REMARK                            x       y       z     vdW  Elec       q    Type
REMARK                         _______ _______ _______ _____ _____    ______ ____
ROOT
ATOM      1  C   UNL     1       8.545  -0.003  24.556  0.00  0.00    +0.181 A 
ATOM      2  O   UNL     1       7.345   0.401  23.977  0.00  0.00    -0.451 OA
ATOM      3  C   UNL     1       7.239   1.679  23.489  0.00  0.00    +0.147 A 
ATOM      4  C   UNL     1       8.306   2.570  23.468  0.00  0.00    +0.109 A 
ATOM      5  C   UNL     1       8.143   3.853  22.932  0.00  0.00    +0.135 A 
ATOM      6  C   UNL     1       6.909   4.255  22.432  0.00  0.00    +0.091 A 
ATOM      7  C   UNL     1       5.843   3.363  22.471  0.00  0.00    +0.124 A 
ATOM      8  C   UNL     1       9.586   2.139  24.029  0.00  0.00    +0.238 A 
ATOM      9  O   UNL     1      10.556   2.890  23.977  0.00  0.00    -0.283 OA
ATOM     10  C   UNL     1       5.997   2.078  22.992  0.00  0.00    +0.092 A 
ATOM     11  C   UNL     1       9.635   0.793  24.660  0.00  0.00    +0.208 A 
ENDROOT
BRANCH   1  14
ATOM     12  C   UNL     1       8.459  -3.797  24.526  0.00  0.00    +0.173 A 
ATOM     13  C   UNL     1       8.377  -2.463  24.115  0.00  0.00    +0.061 A 
ATOM     14  C   UNL     1       8.513  -1.411  25.030  0.00  0.00    +0.025 A 
ATOM     15  C   UNL     1       8.574  -1.739  26.394  0.00  0.00    +0.015 A 
ATOM     16  C   UNL     1       8.558  -3.079  26.816  0.00  0.00    +0.050 A 
ATOM     17  C   UNL     1       8.511  -4.105  25.879  0.00  0.00    +0.159 A 
BRANCH  17  18
ATOM     18  O   UNL     1       8.493  -5.391  26.330  0.00  0.00    -0.503 OA
ATOM     19  H   UNL     1       7.622  -5.545  26.737  0.00  0.00    +0.292 HD
ENDBRANCH  17  18
BRANCH  12  20
ATOM     20  O   UNL     1       8.392  -4.830  23.579  0.00  0.00    -0.422 OA
BRANCH  20  21
ATOM     21  C   UNL     1       7.091  -5.191  23.204  0.00  0.00    +0.315 C 
ATOM     22  O   UNL     1       6.283  -5.770  23.921  0.00  0.00    -0.250 OA
BRANCH  21  24
ATOM     23  C   UNL     1       6.204  -5.920  20.983  0.00  0.00    +0.019 C 
ATOM     24  C   UNL     1       6.842  -4.769  21.762  0.00  0.00    +0.092 C 
ATOM     25  C   UNL     1       5.923  -3.548  21.699  0.00  0.00    +0.019 C 
ENDBRANCH  21  24
ENDBRANCH  20  21
ENDBRANCH  12  20
ENDBRANCH   1  14
BRANCH   5  26
ATOM     26  O   UNL     1       9.159   4.770  22.867  0.00  0.00    -0.506 OA
ATOM     27  H   UNL     1       9.973   4.303  22.566  0.00  0.00    +0.292 HD
ENDBRANCH   5  26
BRANCH   7  28
ATOM     28  O   UNL     1       4.613   3.720  22.001  0.00  0.00    -0.507 OA
ATOM     29  H   UNL     1       4.130   4.182  22.708  0.00  0.00    +0.292 HD
ENDBRANCH   7  28
BRANCH  11  30
ATOM     30  O   UNL     1      10.819   0.469  25.298  0.00  0.00    -0.501 OA
ATOM     31  H   UNL     1      11.095   1.193  25.888  0.00  0.00    +0.292 HD
ENDBRANCH  11  30
TORSDOF 8
ENDMDL
MODEL 5
REMARK VINA RESULT:      -7.1      1.097      2.594
REMARK  Name = 
REMARK  10 active torsions:
REMARK  status: ('A' for Active; 'I' for Inactive)
REMARK    1  A    between atoms: C_1  and  C_2
REMARK    2  A    between atoms: C_2  and  C_3
REMARK    3  A    between atoms: C_2  and  C_4
REMARK    4  A    between atoms: C_4  and  O_6
REMARK    5  A    between atoms: O_6  and  C_7
REMARK    6  A    between atoms: C_8  and  O_27
REMARK    7  A    between atoms: C_11  and  C_13
REMARK    8  A    between atoms: C_14  and  O_26
REMARK    9  A    between atoms: C_18  and  O_25
REMARK   10  A    between atoms: C_20  and  O_24
REMARK                            x       y       z     vdW  Elec       q    Type
REMARK                         _______ _______ _______ _____ _____    ______ ____
ROOT
ATOM      1  C   UNL     1       7.435  -2.647  23.844  0.00  0.00    +0.181 A 
ATOM      2  O   UNL     1       6.381  -3.247  23.160  0.00  0.00    -0.451 OA
ATOM      3  C   UNL     1       5.795  -4.369  23.691  0.00  0.00    +0.147 A 
ATOM      4  C   UNL     1       6.151  -4.891  24.930  0.00  0.00    +0.109 A 
ATOM      5  C   UNL     1       5.498  -6.023  25.431  0.00  0.00    +0.135 A 
ATOM      6  C   UNL     1       4.502  -6.648  24.689  0.00  0.00    +0.091 A 
ATOM      7  C   UNL     1       4.164  -6.129  23.443  0.00  0.00    +0.124 A 
ATOM      8  C   UNL     1       7.224  -4.239  25.680  0.00  0.00    +0.238 A 
ATOM      9  O   UNL     1       7.522  -4.651  26.797  0.00  0.00    -0.283 OA
ATOM     10  C   UNL     1       4.798  -4.993  22.939  0.00  0.00    +0.092 A 
ATOM     11  C   UNL     1       7.920  -3.100  25.023  0.00  0.00    +0.208 A 
ENDROOT
BRANCH   1  14
ATOM     12  C   UNL     1       7.941   0.979  22.845  0.00  0.00    +0.173 A 
ATOM     13  C   UNL     1       7.391  -0.183  23.394  0.00  0.00    +0.061 A 
ATOM     14  C   UNL     1       7.959  -1.441  23.153  0.00  0.00    +0.025 A 
ATOM     15  C   UNL     1       9.001  -1.514  22.214  0.00  0.00    +0.015 A 
ATOM     16  C   UNL     1       9.490  -0.356  21.586  0.00  0.00    +0.050 A 
ATOM     17  C   UNL     1       8.965   0.889  21.912  0.00  0.00    +0.159 A 
BRANCH  17  18
ATOM     18  O   UNL     1       9.465   1.986  21.277  0.00  0.00    -0.503 OA
ATOM     19  H   UNL     1       8.742   2.633  21.200  0.00  0.00    +0.292 HD
ENDBRANCH  17  18
BRANCH  12  20
ATOM     20  O   UNL     1       7.395   2.233  23.160  0.00  0.00    -0.422 OA
BRANCH  20  21
ATOM     21  C   UNL     1       8.021   2.887  24.229  0.00  0.00    +0.315 C 
ATOM     22  O   UNL     1       8.389   2.350  25.269  0.00  0.00    -0.250 OA
BRANCH  21  24
ATOM     23  C   UNL     1       9.636   4.753  23.828  0.00  0.00    +0.019 C 
ATOM     24  C   UNL     1       8.158   4.369  23.909  0.00  0.00    +0.092 C 
ATOM     25  C   UNL     1       7.477   4.707  22.581  0.00  0.00    +0.019 C 
ENDBRANCH  21  24
ENDBRANCH  20  21
ENDBRANCH  12  20
ENDBRANCH   1  14
BRANCH   5  26
ATOM     26  O   UNL     1       5.791  -6.575  26.650  0.00  0.00    -0.506 OA
ATOM     27  H   UNL     1       6.235  -5.887  27.198  0.00  0.00    +0.292 HD
ENDBRANCH   5  26
BRANCH   7  28
ATOM     28  O   UNL     1       3.200  -6.716  22.678  0.00  0.00    -0.507 OA
ATOM     29  H   UNL     1       2.557  -6.037  22.408  0.00  0.00    +0.292 HD
ENDBRANCH   7  28
BRANCH  11  30
ATOM     30  O   UNL     1       9.015  -2.592  25.700  0.00  0.00    -0.501 OA
ATOM     31  H   UNL     1       9.403  -3.274  26.277  0.00  0.00    +0.292 HD
ENDBRANCH  11  30
TORSDOF 8
ENDMDL
MODEL 6
REMARK VINA RESULT:      -6.8      1.774      3.293
REMARK  Name = 
REMARK  10 active torsions:
REMARK  status: ('A' for Active; 'I' for Inactive)
REMARK    1  A    between atoms: C_1  and  C_2
REMARK    2  A    between atoms: C_2  and  C_3
REMARK    3  A    between atoms: C_2  and  C_4
REMARK    4  A    between atoms: C_4  and  O_6
REMARK    5  A    between atoms: O_6  and  C_7
REMARK    6  A    between atoms: C_8  and  O_27
REMARK    7  A    between atoms: C_11  and  C_13
REMARK    8  A    between atoms: C_14  and  O_26
REMARK    9  A    between atoms: C_18  and  O_25
REMARK   10  A    between atoms: C_20  and  O_24
REMARK                            x       y       z     vdW  Elec       q    Type
REMARK                         _______ _______ _______ _____ _____    ______ ____
ROOT
ATOM      1  C   UNL     1       8.268  -1.722  24.191  0.00  0.00    +0.181 A 
ATOM      2  O   UNL     1       7.762  -2.384  23.076  0.00  0.00    -0.451 OA
ATOM      3  C   UNL     1       7.094  -3.570  23.251  0.00  0.00    +0.147 A 
ATOM      4  C   UNL     1       6.824  -4.104  24.506  0.00  0.00    +0.109 A 
ATOM      5  C   UNL     1       6.115  -5.306  24.622  0.00  0.00    +0.135 A 
ATOM      6  C   UNL     1       5.690  -5.985  23.485  0.00  0.00    +0.091 A 
ATOM      7  C   UNL     1       5.979  -5.451  22.234  0.00  0.00    +0.124 A 
ATOM      8  C   UNL     1       7.308  -3.392  25.688  0.00  0.00    +0.238 A 
ATOM      9  O   UNL     1       7.039  -3.818  26.808  0.00  0.00    -0.283 OA
ATOM     10  C   UNL     1       6.674  -4.248  22.106  0.00  0.00    +0.092 A 
ATOM     11  C   UNL     1       8.132  -2.175  25.460  0.00  0.00    +0.208 A 
ENDROOT
BRANCH   1  14
ATOM     12  C   UNL     1       8.968   1.673  22.646  0.00  0.00    +0.173 A 
ATOM     13  C   UNL     1       8.400   0.422  22.901  0.00  0.00    +0.061 A 
ATOM     14  C   UNL     1       8.955  -0.450  23.846  0.00  0.00    +0.025 A 
ATOM     15  C   UNL     1      10.190  -0.094  24.413  0.00  0.00    +0.015 A 
ATOM     16  C   UNL     1      10.812   1.122  24.082  0.00  0.00    +0.050 A 
ATOM     17  C   UNL     1      10.193   2.007  23.207  0.00  0.00    +0.159 A 
BRANCH  17  18
ATOM     18  O   UNL     1      10.833   3.173  22.910  0.00  0.00    -0.503 OA
ATOM     19  H   UNL     1      10.332   3.895  23.330  0.00  0.00    +0.292 HD
ENDBRANCH  17  18
BRANCH  12  20
ATOM     20  O   UNL     1       8.351   2.556  21.746  0.00  0.00    -0.422 OA
BRANCH  20  21
ATOM     21  C   UNL     1       7.245   3.238  22.269  0.00  0.00    +0.315 C 
ATOM     22  O   UNL     1       6.083   2.853  22.206  0.00  0.00    -0.250 OA
BRANCH  21  24
ATOM     23  C   UNL     1       7.214   5.732  22.084  0.00  0.00    +0.019 C 
ATOM     24  C   UNL     1       7.706   4.541  22.908  0.00  0.00    +0.092 C 
ATOM     25  C   UNL     1       7.177   4.666  24.338  0.00  0.00    +0.019 C 
ENDBRANCH  21  24
ENDBRANCH  20  21
ENDBRANCH  12  20
ENDBRANCH   1  14
BRANCH   5  26
ATOM     26  O   UNL     1       5.802  -5.875  25.828  0.00  0.00    -0.506 OA
ATOM     27  H   UNL     1       6.570  -5.749  26.433  0.00  0.00    +0.292 HD
ENDBRANCH   5  26
BRANCH   7  28
ATOM     28  O   UNL     1       5.591  -6.090  21.093  0.00  0.00    -0.507 OA
ATOM     29  H   UNL     1       6.377  -6.462  20.659  0.00  0.00    +0.292 HD
ENDBRANCH   7  28
BRANCH  11  30
ATOM     30  O   UNL     1       8.685  -1.601  26.591  0.00  0.00    -0.501 OA
ATOM     31  H   UNL     1       8.425  -0.665  26.658  0.00  0.00    +0.292 HD
ENDBRANCH  11  30
TORSDOF 8
ENDMDL
MODEL 7
REMARK VINA RESULT:      -6.8      1.993      7.885
REMARK  Name = 
REMARK  10 active torsions:
REMARK  status: ('A' for Active; 'I' for Inactive)
REMARK    1  A    between atoms: C_1  and  C_2
REMARK    2  A    between atoms: C_2  and  C_3
REMARK    3  A    between atoms: C_2  and  C_4
REMARK    4  A    between atoms: C_4  and  O_6
REMARK    5  A    between atoms: O_6  and  C_7
REMARK    6  A    between atoms: C_8  and  O_27
REMARK    7  A    between atoms: C_11  and  C_13
REMARK    8  A    between atoms: C_14  and  O_26
REMARK    9  A    between atoms: C_18  and  O_25
REMARK   10  A    between atoms: C_20  and  O_24
REMARK                            x       y       z     vdW  Elec       q    Type
REMARK                         _______ _______ _______ _____ _____    ______ ____
ROOT
ATOM      1  C   UNL     1       8.644  -1.529  24.573  0.00  0.00    +0.181 A 
ATOM      2  O   UNL     1       8.292  -0.334  25.195  0.00  0.00    -0.451 OA
ATOM      3  C   UNL     1       8.642   0.853  24.602  0.00  0.00    +0.147 A 
ATOM      4  C   UNL     1       9.262   0.922  23.360  0.00  0.00    +0.109 A 
ATOM      5  C   UNL     1       9.571   2.164  22.794  0.00  0.00    +0.135 A 
ATOM      6  C   UNL     1       9.278   3.340  23.476  0.00  0.00    +0.091 A 
ATOM      7  C   UNL     1       8.672   3.262  24.726  0.00  0.00    +0.124 A 
ATOM      8  C   UNL     1       9.592  -0.327  22.674  0.00  0.00    +0.238 A 
ATOM      9  O   UNL     1      10.095  -0.292  21.554  0.00  0.00    -0.283 OA
ATOM     10  C   UNL     1       8.348   2.029  25.294  0.00  0.00    +0.092 A 
ATOM     11  C   UNL     1       9.310  -1.596  23.396  0.00  0.00    +0.208 A 
ENDROOT
BRANCH   1  14
ATOM     12  C   UNL     1       6.380  -4.191  26.054  0.00  0.00    +0.173 A 
ATOM     13  C   UNL     1       6.824  -3.011  25.451  0.00  0.00    +0.061 A 
ATOM     14  C   UNL     1       8.190  -2.728  25.325  0.00  0.00    +0.025 A 
ATOM     15  C   UNL     1       9.094  -3.590  25.967  0.00  0.00    +0.015 A 
ATOM     16  C   UNL     1       8.642  -4.726  26.659  0.00  0.00    +0.050 A 
ATOM     17  C   UNL     1       7.286  -5.029  26.691  0.00  0.00    +0.159 A 
BRANCH  17  18
ATOM     18  O   UNL     1       6.889  -6.138  27.377  0.00  0.00    -0.503 OA
ATOM     19  H   UNL     1       5.997  -5.962  27.724  0.00  0.00    +0.292 HD
ENDBRANCH  17  18
BRANCH  12  20
ATOM     20  O   UNL     1       5.008  -4.484  26.103  0.00  0.00    -0.422 OA
BRANCH  20  21
ATOM     21  C   UNL     1       4.412  -4.685  24.851  0.00  0.00    +0.315 C 
ATOM     22  O   UNL     1       3.568  -3.955  24.345  0.00  0.00    -0.250 OA
BRANCH  21  24
ATOM     23  C   UNL     1       3.958  -7.102  24.398  0.00  0.00    +0.019 C 
ATOM     24  C   UNL     1       4.962  -5.960  24.226  0.00  0.00    +0.092 C 
ATOM     25  C   UNL     1       5.247  -5.761  22.736  0.00  0.00    +0.019 C 
ENDBRANCH  21  24
ENDBRANCH  20  21
ENDBRANCH  12  20
ENDBRANCH   1  14
BRANCH   5  26
ATOM     26  O   UNL     1      10.166   2.300  21.568  0.00  0.00    -0.506 OA
ATOM     27  H   UNL     1       9.493   2.091  20.878  0.00  0.00    +0.292 HD
ENDBRANCH   5  26
BRANCH   7  28
ATOM     28  O   UNL     1       8.377   4.389  25.433  0.00  0.00    -0.507 OA
ATOM     29  H   UNL     1       7.986   4.131  26.286  0.00  0.00    +0.292 HD
ENDBRANCH   7  28
BRANCH  11  30
ATOM     30  O   UNL     1       9.755  -2.752  22.780  0.00  0.00    -0.501 OA
ATOM     31  H   UNL     1       9.266  -3.525  23.115  0.00  0.00    +0.292 HD
ENDBRANCH  11  30
TORSDOF 8
ENDMDL
MODEL 8
REMARK VINA RESULT:      -6.8      1.772      7.904
REMARK  Name = 
REMARK  10 active torsions:
REMARK  status: ('A' for Active; 'I' for Inactive)
REMARK    1  A    between atoms: C_1  and  C_2
REMARK    2  A    between atoms: C_2  and  C_3
REMARK    3  A    between atoms: C_2  and  C_4
REMARK    4  A    between atoms: C_4  and  O_6
REMARK    5  A    between atoms: O_6  and  C_7
REMARK    6  A    between atoms: C_8  and  O_27
REMARK    7  A    between atoms: C_11  and  C_13
REMARK    8  A    between atoms: C_14  and  O_26
REMARK    9  A    between atoms: C_18  and  O_25
REMARK   10  A    between atoms: C_20  and  O_24
REMARK                            x       y       z     vdW  Elec       q    Type
REMARK                         _______ _______ _______ _____ _____    ______ ____
ROOT
ATOM      1  C   UNL     1       7.898  -1.686  23.191  0.00  0.00    +0.181 A 
ATOM      2  O   UNL     1       7.049  -0.666  22.767  0.00  0.00    -0.451 OA
ATOM      3  C   UNL     1       7.526   0.620  22.718  0.00  0.00    +0.147 A 
ATOM      4  C   UNL     1       8.849   0.944  22.995  0.00  0.00    +0.109 A 
ATOM      5  C   UNL     1       9.282   2.273  22.903  0.00  0.00    +0.135 A 
ATOM      6  C   UNL     1       8.391   3.281  22.552  0.00  0.00    +0.091 A 
ATOM      7  C   UNL     1       7.066   2.949  22.293  0.00  0.00    +0.124 A 
ATOM      8  C   UNL     1       9.762  -0.126  23.394  0.00  0.00    +0.238 A 
ATOM      9  O   UNL     1      10.946   0.128  23.595  0.00  0.00    -0.283 OA
ATOM     10  C   UNL     1       6.625   1.628  22.370  0.00  0.00    +0.092 A 
ATOM     11  C   UNL     1       9.187  -1.488  23.554  0.00  0.00    +0.208 A 
ENDROOT
BRANCH   1  14
ATOM     12  C   UNL     1       6.084  -4.800  24.379  0.00  0.00    +0.173 A 
ATOM     13  C   UNL     1       6.800  -3.600  24.377  0.00  0.00    +0.061 A 
ATOM     14  C   UNL     1       7.246  -3.021  23.182  0.00  0.00    +0.025 A 
ATOM     15  C   UNL     1       7.090  -3.765  22.001  0.00  0.00    +0.015 A 
ATOM     16  C   UNL     1       6.456  -5.019  22.016  0.00  0.00    +0.050 A 
ATOM     17  C   UNL     1       5.945  -5.528  23.204  0.00  0.00    +0.159 A 
BRANCH  17  18
ATOM     18  O   UNL     1       5.340  -6.749  23.176  0.00  0.00    -0.503 OA
ATOM     19  H   UNL     1       5.708  -7.238  22.419  0.00  0.00    +0.292 HD
ENDBRANCH  17  18
BRANCH  12  20
ATOM     20  O   UNL     1       5.586  -5.321  25.583  0.00  0.00    -0.422 OA
BRANCH  20  21
ATOM     21  C   UNL     1       6.540  -5.441  26.602  0.00  0.00    +0.315 C 
ATOM     22  O   UNL     1       7.648  -5.950  26.477  0.00  0.00    -0.250 OA
BRANCH  21  24
ATOM     23  C   UNL     1       4.593  -4.267  27.641  0.00  0.00    +0.019 C 
ATOM     24  C   UNL     1       5.981  -4.859  27.893  0.00  0.00    +0.092 C 
ATOM     25  C   UNL     1       5.881  -5.930  28.980  0.00  0.00    +0.019 C 
ENDBRANCH  21  24
ENDBRANCH  20  21
ENDBRANCH  12  20
ENDBRANCH   1  14
BRANCH   5  26
ATOM     26  O   UNL     1      10.575   2.655  23.146  0.00  0.00    -0.506 OA
ATOM     27  H   UNL     1      11.153   2.220  22.475  0.00  0.00    +0.292 HD
ENDBRANCH   5  26
BRANCH   7  28
ATOM     28  O   UNL     1       6.157   3.908  21.956  0.00  0.00    -0.507 OA
ATOM     29  H   UNL     1       6.057   3.919  20.989  0.00  0.00    +0.292 HD
ENDBRANCH   7  28
BRANCH  11  30
ATOM     30  O   UNL     1      10.044  -2.448  24.061  0.00  0.00    -0.501 OA
ATOM     31  H   UNL     1       9.546  -3.115  24.566  0.00  0.00    +0.292 HD
ENDBRANCH  11  30
TORSDOF 8
ENDMDL
MODEL 9
REMARK VINA RESULT:      -6.7      2.190      8.547
REMARK  Name = 
REMARK  10 active torsions:
REMARK  status: ('A' for Active; 'I' for Inactive)
REMARK    1  A    between atoms: C_1  and  C_2
REMARK    2  A    between atoms: C_2  and  C_3
REMARK    3  A    between atoms: C_2  and  C_4
REMARK    4  A    between atoms: C_4  and  O_6
REMARK    5  A    between atoms: O_6  and  C_7
REMARK    6  A    between atoms: C_8  and  O_27
REMARK    7  A    between atoms: C_11  and  C_13
REMARK    8  A    between atoms: C_14  and  O_26
REMARK    9  A    between atoms: C_18  and  O_25
REMARK   10  A    between atoms: C_20  and  O_24
REMARK                            x       y       z     vdW  Elec       q    Type
REMARK                         _______ _______ _______ _____ _____    ______ ____
ROOT
ATOM      1  C   UNL     1       8.913   1.729  23.329  0.00  0.00    +0.181 A 
ATOM      2  O   UNL     1      10.266   2.057  23.319  0.00  0.00    -0.451 OA
ATOM      3  C   UNL     1      10.633   3.373  23.451  0.00  0.00    +0.147 A 
ATOM      4  C   UNL     1       9.715   4.392  23.680  0.00  0.00    +0.109 A 
ATOM      5  C   UNL     1      10.153   5.713  23.832  0.00  0.00    +0.135 A 
ATOM      6  C   UNL     1      11.506   6.021  23.739  0.00  0.00    +0.091 A 
ATOM      7  C   UNL     1      12.415   4.997  23.495  0.00  0.00    +0.124 A 
ATOM      8  C   UNL     1       8.294   4.052  23.741  0.00  0.00    +0.238 A 
ATOM      9  O   UNL     1       7.469   4.927  23.991  0.00  0.00    -0.283 OA
ATOM     10  C   UNL     1      11.991   3.676  23.353  0.00  0.00    +0.092 A 
ATOM     11  C   UNL     1       7.920   2.638  23.473  0.00  0.00    +0.208 A 
ENDROOT
BRANCH   1  14
ATOM     12  C   UNL     1       7.830  -1.822  24.118  0.00  0.00    +0.173 A 
ATOM     13  C   UNL     1       8.173  -0.475  24.264  0.00  0.00    +0.061 A 
ATOM     14  C   UNL     1       8.671   0.270  23.187  0.00  0.00    +0.025 A 
ATOM     15  C   UNL     1       8.966  -0.422  22.000  0.00  0.00    +0.015 A 
ATOM     16  C   UNL     1       8.713  -1.799  21.885  0.00  0.00    +0.050 A 
ATOM     17  C   UNL     1       8.136  -2.493  22.941  0.00  0.00    +0.159 A 
BRANCH  17  18
ATOM     18  O   UNL     1       7.911  -3.829  22.789  0.00  0.00    -0.503 OA
ATOM     19  H   UNL     1       8.665  -4.197  22.296  0.00  0.00    +0.292 HD
ENDBRANCH  17  18
BRANCH  12  20
ATOM     20  O   UNL     1       7.266  -2.525  25.193  0.00  0.00    -0.422 OA
BRANCH  20  21
ATOM     21  C   UNL     1       8.148  -2.771  26.254  0.00  0.00    +0.315 C 
ATOM     22  O   UNL     1       8.741  -1.910  26.894  0.00  0.00    -0.250 OA
BRANCH  21  24
ATOM     23  C   UNL     1       7.004  -4.978  25.988  0.00  0.00    +0.019 C 
ATOM     24  C   UNL     1       8.270  -4.273  26.476  0.00  0.00    +0.092 C 
ATOM     25  C   UNL     1       9.481  -4.840  25.732  0.00  0.00    +0.019 C 
ENDBRANCH  21  24
ENDBRANCH  20  21
ENDBRANCH  12  20
ENDBRANCH   1  14
BRANCH   5  26
ATOM     26  O   UNL     1       9.302   6.759  24.075  0.00  0.00    -0.506 OA
ATOM     27  H   UNL     1       9.817   7.477  24.512  0.00  0.00    +0.292 HD
ENDBRANCH   5  26
BRANCH   7  28
ATOM     28  O   UNL     1      13.749   5.257  23.386  0.00  0.00    -0.507 OA
ATOM     29  H   UNL     1      14.083   5.550  24.251  0.00  0.00    +0.292 HD
ENDBRANCH   7  28
BRANCH  11  30
ATOM     30  O   UNL     1       6.563   2.375  23.407  0.00  0.00    -0.501 OA
ATOM     31  H   UNL     1       6.123   2.653  24.230  0.00  0.00    +0.292 HD
ENDBRANCH  11  30
TORSDOF 8
ENDMDL
