MODEL 1
REMARK VINA RESULT:      -7.3      0.000      0.000
REMARK  Name = 
REMARK  17 active torsions:
REMARK  status: ('A' for Active; 'I' for Inactive)
REMARK    1  A    between atoms: C_1  and  C_2
REMARK    2  A    between atoms: C_4  and  O_53
REMARK    3  A    between atoms: C_6  and  O_52
REMARK    4  A    between atoms: C_8  and  O_51
REMARK    5  A    between atoms: C_10  and  O_13
REMARK    6  A    between atoms: O_13  and  C_14
REMARK    7  A    between atoms: C_14  and  C_15
REMARK    8  A    between atoms: C_17  and  O_50
REMARK    9  A    between atoms: C_19  and  O_49
REMARK   10  A    between atoms: C_21  and  O_48
REMARK   11  A    between atoms: C_23  and  O_26
REMARK   12  A    between atoms: O_26  and  C_27
REMARK   13  A    between atoms: C_28  and  C_40
REMARK   14  A    between atoms: C_32  and  O_39
REMARK   15  A    between atoms: C_34  and  O_38
REMARK   16  A    between atoms: C_42  and  O_47
REMARK   17  A    between atoms: C_43  and  O_46
REMARK                            x       y       z     vdW  Elec       q    Type
REMARK                         _______ _______ _______ _____ _____    ______ ____
ROOT
ATOM      1  C   UNL     1       6.031  -1.306  26.207  0.00  0.00    +0.179 C 
ATOM      2  O   UNL     1       5.908  -0.488  25.029  0.00  0.00    -0.331 OA
ATOM      3  C   UNL     1       6.134   0.889  25.347  0.00  0.00    +0.340 C 
ATOM      4  C   UNL     1       4.927   1.394  26.171  0.00  0.00    +0.214 C 
ATOM      5  C   UNL     1       4.843   0.481  27.436  0.00  0.00    +0.180 C 
ATOM      6  C   UNL     1       4.801  -1.018  27.073  0.00  0.00    +0.177 C 
ENDROOT
BRANCH   4   7
ATOM      7  O   UNL     1       5.146   2.759  26.572  0.00  0.00    -0.383 OA
ATOM      8  H   UNL     1       5.771   3.144  25.928  0.00  0.00    +0.210 HD
ENDBRANCH   4   7
BRANCH   5   9
ATOM      9  O   UNL     1       3.755   0.873  28.280  0.00  0.00    -0.386 OA
ATOM     10  H   UNL     1       4.054   0.764  29.203  0.00  0.00    +0.210 HD
ENDBRANCH   5   9
BRANCH   6  11
ATOM     11  O   UNL     1       3.570  -1.283  26.394  0.00  0.00    -0.386 OA
ATOM     12  H   UNL     1       3.360  -2.232  26.543  0.00  0.00    +0.210 HD
ENDBRANCH   6  11
BRANCH   3  13
ATOM     13  O   UNL     1       6.452   1.631  24.145  0.00  0.00    -0.453 OA
BRANCH  13  14
ATOM     14  C   UNL     1       7.788   2.073  24.099  0.00  0.00    +0.214 A 
ATOM     15  C   UNL     1       8.160   3.450  24.603  0.00  0.00    +0.238 A 
ATOM     16  O   UNL     1       7.549   4.046  25.478  0.00  0.00    -0.283 OA
ATOM     17  C   UNL     1       9.365   4.074  24.099  0.00  0.00    +0.109 A 
ATOM     18  C   UNL     1      10.346   3.217  23.645  0.00  0.00    +0.147 A 
ATOM     19  C   UNL     1      11.602   3.718  23.322  0.00  0.00    +0.092 A 
ATOM     20  C   UNL     1      11.849   5.084  23.468  0.00  0.00    +0.124 A 
ATOM     21  C   UNL     1      10.862   5.957  23.905  0.00  0.00    +0.091 A 
ATOM     22  O   UNL     1      10.142   1.863  23.574  0.00  0.00    -0.451 OA
ATOM     23  C   UNL     1       9.608   5.450  24.209  0.00  0.00    +0.135 A 
ATOM     24  C   UNL     1       8.852   1.316  23.717  0.00  0.00    +0.181 A 
BRANCH  24  25
ATOM     25  C   UNL     1       8.906  -0.180  23.493  0.00  0.00    +0.025 A 
ATOM     26  C   UNL     1       9.806  -0.943  24.287  0.00  0.00    +0.015 A 
ATOM     27  C   UNL     1       9.775  -2.345  24.344  0.00  0.00    +0.050 A 
ATOM     28  C   UNL     1       8.875  -3.017  23.554  0.00  0.00    +0.158 A 
ATOM     29  C   UNL     1       8.059  -2.313  22.670  0.00  0.00    +0.159 A 
ATOM     30  C   UNL     1       8.064  -0.909  22.635  0.00  0.00    +0.060 A 
BRANCH  28  31
ATOM     31  O   UNL     1       8.773  -4.376  23.659  0.00  0.00    -0.503 OA
ATOM     32  H   UNL     1       8.815  -4.704  22.739  0.00  0.00    +0.292 HD
ENDBRANCH  28  31
BRANCH  29  33
ATOM     33  O   UNL     1       7.255  -3.057  21.849  0.00  0.00    -0.503 OA
ATOM     34  H   UNL     1       6.347  -2.718  21.947  0.00  0.00    +0.292 HD
ENDBRANCH  29  33
ENDBRANCH  24  25
BRANCH  20  35
ATOM     35  O   UNL     1      13.070   5.626  23.196  0.00  0.00    -0.507 OA
ATOM     36  H   UNL     1      13.056   6.003  22.304  0.00  0.00    +0.292 HD
ENDBRANCH  20  35
BRANCH  23  37
ATOM     37  O   UNL     1       8.621   6.313  24.599  0.00  0.00    -0.506 OA
ATOM     38  H   UNL     1       8.050   5.878  25.252  0.00  0.00    +0.292 HD
ENDBRANCH  23  37
ENDBRANCH  13  14
ENDBRANCH   3  13
BRANCH   1  39
ATOM     39  C   UNL     1       6.220  -2.764  25.791  0.00  0.00    +0.197 C 
BRANCH  39  40
ATOM     40  O   UNL     1       5.461  -3.034  24.621  0.00  0.00    -0.346 OA
BRANCH  40  44
ATOM     41  C   UNL     1       2.153  -5.726  25.699  0.00  0.00    +0.041 C 
ATOM     42  C   UNL     1       3.511  -5.585  26.377  0.00  0.00    +0.149 C 
ATOM     43  O   UNL     1       4.156  -4.346  26.061  0.00  0.00    -0.343 OA
ATOM     44  C   UNL     1       4.674  -4.227  24.735  0.00  0.00    +0.282 C 
ATOM     45  C   UNL     1       5.628  -5.379  24.352  0.00  0.00    +0.201 C 
ATOM     46  C   UNL     1       5.063  -6.751  24.727  0.00  0.00    +0.179 C 
ATOM     47  C   UNL     1       4.491  -6.745  26.148  0.00  0.00    +0.174 C 
BRANCH  45  48
ATOM     48  O   UNL     1       5.919  -5.327  22.945  0.00  0.00    -0.384 OA
ATOM     49  H   UNL     1       5.099  -5.089  22.474  0.00  0.00    +0.210 HD
ENDBRANCH  45  48
BRANCH  46  50
ATOM     50  O   UNL     1       4.104  -7.196  23.755  0.00  0.00    -0.386 OA
ATOM     51  H   UNL     1       4.558  -7.635  23.016  0.00  0.00    +0.210 HD
ENDBRANCH  46  50
BRANCH  47  52
ATOM     52  O   UNL     1       5.578  -6.586  27.080  0.00  0.00    -0.387 OA
ATOM     53  H   UNL     1       5.951  -5.698  26.955  0.00  0.00    +0.210 HD
ENDBRANCH  47  52
ENDBRANCH  40  44
ENDBRANCH  39  40
ENDBRANCH   1  39
TORSDOF 16
ENDMDL
MODEL 2
REMARK VINA RESULT:      -7.1      1.697      9.425
REMARK  Name = 
REMARK  17 active torsions:
REMARK  status: ('A' for Active; 'I' for Inactive)
REMARK    1  A    between atoms: C_1  and  C_2
REMARK    2  A    between atoms: C_4  and  O_53
REMARK    3  A    between atoms: C_6  and  O_52
REMARK    4  A    between atoms: C_8  and  O_51
REMARK    5  A    between atoms: C_10  and  O_13
REMARK    6  A    between atoms: O_13  and  C_14
REMARK    7  A    between atoms: C_14  and  C_15
REMARK    8  A    between atoms: C_17  and  O_50
REMARK    9  A    between atoms: C_19  and  O_49
REMARK   10  A    between atoms: C_21  and  O_48
REMARK   11  A    between atoms: C_23  and  O_26
REMARK   12  A    between atoms: O_26  and  C_27
REMARK   13  A    between atoms: C_28  and  C_40
REMARK   14  A    between atoms: C_32  and  O_39
REMARK   15  A    between atoms: C_34  and  O_38
REMARK   16  A    between atoms: C_42  and  O_47
REMARK   17  A    between atoms: C_43  and  O_46
REMARK                            x       y       z     vdW  Elec       q    Type
REMARK                         _______ _______ _______ _____ _____    ______ ____
ROOT
ATOM      1  C   UNL     1       9.063   0.304  24.220  0.00  0.00    +0.179 C 
ATOM      2  O   UNL     1       7.791  -0.060  23.651  0.00  0.00    -0.331 OA
ATOM      3  C   UNL     1       7.679  -1.483  23.539  0.00  0.00    +0.340 C 
ATOM      4  C   UNL     1       8.636  -1.951  22.418  0.00  0.00    +0.214 C 
ATOM      5  C   UNL     1      10.067  -1.482  22.835  0.00  0.00    +0.180 C 
ATOM      6  C   UNL     1      10.119   0.029  23.145  0.00  0.00    +0.177 C 
ENDROOT
BRANCH   4   7
ATOM      7  O   UNL     1       8.606  -3.387  22.319  0.00  0.00    -0.383 OA
ATOM      8  H   UNL     1       8.595  -3.732  23.232  0.00  0.00    +0.210 HD
ENDBRANCH   4   7
BRANCH   5   9
ATOM      9  O   UNL     1      11.039  -1.877  21.860  0.00  0.00    -0.386 OA
ATOM     10  H   UNL     1      11.646  -1.122  21.739  0.00  0.00    +0.210 HD
ENDBRANCH   5   9
BRANCH   6  11
ATOM     11  O   UNL     1       9.878   0.747  21.932  0.00  0.00    -0.386 OA
ATOM     12  H   UNL     1       9.645   1.668  22.186  0.00  0.00    +0.210 HD
ENDBRANCH   6  11
BRANCH   3  13
ATOM     13  O   UNL     1       6.289  -1.863  23.403  0.00  0.00    -0.453 OA
BRANCH  13  14
ATOM     14  C   UNL     1       5.834  -2.697  24.442  0.00  0.00    +0.214 A 
ATOM     15  C   UNL     1       5.851  -4.202  24.283  0.00  0.00    +0.238 A 
ATOM     16  O   UNL     1       6.642  -4.805  23.573  0.00  0.00    -0.283 OA
ATOM     17  C   UNL     1       4.946  -4.997  25.086  0.00  0.00    +0.109 A 
ATOM     18  C   UNL     1       4.540  -4.434  26.278  0.00  0.00    +0.147 A 
ATOM     19  C   UNL     1       3.828  -5.200  27.193  0.00  0.00    +0.092 A 
ATOM     20  C   UNL     1       3.539  -6.531  26.889  0.00  0.00    +0.124 A 
ATOM     21  C   UNL     1       3.927  -7.101  25.684  0.00  0.00    +0.091 A 
ATOM     22  O   UNL     1       4.886  -3.153  26.622  0.00  0.00    -0.451 OA
ATOM     23  C   UNL     1       4.622  -6.324  24.770  0.00  0.00    +0.135 A 
ATOM     24  C   UNL     1       5.450  -2.274  25.677  0.00  0.00    +0.181 A 
BRANCH  24  25
ATOM     25  C   UNL     1       5.635  -0.907  26.299  0.00  0.00    +0.025 A 
ATOM     26  C   UNL     1       6.755  -0.707  27.154  0.00  0.00    +0.015 A 
ATOM     27  C   UNL     1       7.165   0.561  27.591  0.00  0.00    +0.050 A 
ATOM     28  C   UNL     1       6.422   1.657  27.227  0.00  0.00    +0.158 A 
ATOM     29  C   UNL     1       5.248   1.492  26.493  0.00  0.00    +0.159 A 
ATOM     30  C   UNL     1       4.853   0.229  26.026  0.00  0.00    +0.060 A 
BRANCH  28  31
ATOM     31  O   UNL     1       6.853   2.906  27.572  0.00  0.00    -0.503 OA
ATOM     32  H   UNL     1       7.477   2.764  28.311  0.00  0.00    +0.292 HD
ENDBRANCH  28  31
BRANCH  29  33
ATOM     33  O   UNL     1       4.511   2.619  26.248  0.00  0.00    -0.503 OA
ATOM     34  H   UNL     1       4.529   2.776  25.287  0.00  0.00    +0.292 HD
ENDBRANCH  29  33
ENDBRANCH  24  25
BRANCH  20  35
ATOM     35  O   UNL     1       2.870  -7.338  27.761  0.00  0.00    -0.507 OA
ATOM     36  H   UNL     1       3.505  -7.738  28.373  0.00  0.00    +0.292 HD
ENDBRANCH  20  35
BRANCH  23  37
ATOM     37  O   UNL     1       4.969  -6.869  23.565  0.00  0.00    -0.506 OA
ATOM     38  H   UNL     1       5.186  -7.808  23.685  0.00  0.00    +0.292 HD
ENDBRANCH  23  37
ENDBRANCH  13  14
ENDBRANCH   3  13
BRANCH   1  39
ATOM     39  C   UNL     1       8.995   1.744  24.726  0.00  0.00    +0.197 C 
BRANCH  39  40
ATOM     40  O   UNL     1       9.852   2.569  23.949  0.00  0.00    -0.346 OA
BRANCH  40  44
ATOM     41  C   UNL     1       9.045   6.893  24.004  0.00  0.00    +0.041 C 
ATOM     42  C   UNL     1       8.255   5.779  24.681  0.00  0.00    +0.149 C 
ATOM     43  O   UNL     1       9.018   4.576  24.828  0.00  0.00    -0.343 OA
ATOM     44  C   UNL     1       9.261   3.836  23.631  0.00  0.00    +0.282 C 
ATOM     45  C   UNL     1       7.971   3.497  22.855  0.00  0.00    +0.201 C 
ATOM     46  C   UNL     1       7.041   4.705  22.714  0.00  0.00    +0.179 C 
ATOM     47  C   UNL     1       6.896   5.449  24.046  0.00  0.00    +0.174 C 
BRANCH  45  48
ATOM     48  O   UNL     1       8.301   2.969  21.559  0.00  0.00    -0.384 OA
ATOM     49  H   UNL     1       7.530   3.094  20.975  0.00  0.00    +0.210 HD
ENDBRANCH  45  48
BRANCH  46  50
ATOM     50  O   UNL     1       7.477   5.567  21.653  0.00  0.00    -0.386 OA
ATOM     51  H   UNL     1       6.759   6.172  21.399  0.00  0.00    +0.210 HD
ENDBRANCH  46  50
BRANCH  47  52
ATOM     52  O   UNL     1       6.179   4.606  24.968  0.00  0.00    -0.387 OA
ATOM     53  H   UNL     1       6.814   3.984  25.360  0.00  0.00    +0.210 HD
ENDBRANCH  47  52
ENDBRANCH  40  44
ENDBRANCH  39  40
ENDBRANCH   1  39
TORSDOF 16
ENDMDL
MODEL 3
REMARK VINA RESULT:      -7.0      2.269      6.965
REMARK  Name = 
REMARK  17 active torsions:
REMARK  status: ('A' for Active; 'I' for Inactive)
REMARK    1  A    between atoms: C_1  and  C_2
REMARK    2  A    between atoms: C_4  and  O_53
REMARK    3  A    between atoms: C_6  and  O_52
REMARK    4  A    between atoms: C_8  and  O_51
REMARK    5  A    between atoms: C_10  and  O_13
REMARK    6  A    between atoms: O_13  and  C_14
REMARK    7  A    between atoms: C_14  and  C_15
REMARK    8  A    between atoms: C_17  and  O_50
REMARK    9  A    between atoms: C_19  and  O_49
REMARK   10  A    between atoms: C_21  and  O_48
REMARK   11  A    between atoms: C_23  and  O_26
REMARK   12  A    between atoms: O_26  and  C_27
REMARK   13  A    between atoms: C_28  and  C_40
REMARK   14  A    between atoms: C_32  and  O_39
REMARK   15  A    between atoms: C_34  and  O_38
REMARK   16  A    between atoms: C_42  and  O_47
REMARK   17  A    between atoms: C_43  and  O_46
REMARK                            x       y       z     vdW  Elec       q    Type
REMARK                         _______ _______ _______ _____ _____    ______ ____
ROOT
ATOM      1  C   UNL     1       9.389  -3.097  24.956  0.00  0.00    +0.179 C 
ATOM      2  O   UNL     1       8.019  -2.964  25.378  0.00  0.00    -0.331 OA
ATOM      3  C   UNL     1       7.815  -3.610  26.639  0.00  0.00    +0.340 C 
ATOM      4  C   UNL     1       7.895  -5.137  26.413  0.00  0.00    +0.214 C 
ATOM      5  C   UNL     1       9.306  -5.419  25.802  0.00  0.00    +0.180 C 
ATOM      6  C   UNL     1       9.583  -4.561  24.551  0.00  0.00    +0.177 C 
ENDROOT
BRANCH   4   7
ATOM      7  O   UNL     1       7.764  -5.824  27.670  0.00  0.00    -0.383 OA
ATOM      8  H   UNL     1       8.625  -5.748  28.124  0.00  0.00    +0.210 HD
ENDBRANCH   4   7
BRANCH   5   9
ATOM      9  O   UNL     1       9.489  -6.819  25.561  0.00  0.00    -0.386 OA
ATOM     10  H   UNL     1       9.587  -6.933  24.596  0.00  0.00    +0.210 HD
ENDBRANCH   5   9
BRANCH   6  11
ATOM     11  O   UNL     1       8.688  -4.973  23.513  0.00  0.00    -0.386 OA
ATOM     12  H   UNL     1       9.229  -5.437  22.837  0.00  0.00    +0.210 HD
ENDBRANCH   6  11
BRANCH   3  13
ATOM     13  O   UNL     1       6.608  -3.111  27.263  0.00  0.00    -0.453 OA
BRANCH  13  14
ATOM     14  C   UNL     1       6.177  -1.878  26.740  0.00  0.00    +0.214 A 
ATOM     15  C   UNL     1       6.860  -0.589  27.146  0.00  0.00    +0.238 A 
ATOM     16  O   UNL     1       8.030  -0.516  27.491  0.00  0.00    -0.283 OA
ATOM     17  C   UNL     1       6.127   0.654  27.033  0.00  0.00    +0.109 A 
ATOM     18  C   UNL     1       5.113   0.675  26.097  0.00  0.00    +0.147 A 
ATOM     19  C   UNL     1       4.485   1.877  25.791  0.00  0.00    +0.092 A 
ATOM     20  C   UNL     1       4.898   3.045  26.434  0.00  0.00    +0.124 A 
ATOM     21  C   UNL     1       5.903   3.029  27.391  0.00  0.00    +0.091 A 
ATOM     22  O   UNL     1       4.754  -0.449  25.401  0.00  0.00    -0.451 OA
ATOM     23  C   UNL     1       6.512   1.823  27.702  0.00  0.00    +0.135 A 
ATOM     24  C   UNL     1       5.223  -1.721  25.783  0.00  0.00    +0.181 A 
BRANCH  24  25
ATOM     25  C   UNL     1       4.590  -2.782  24.909  0.00  0.00    +0.025 A 
ATOM     26  C   UNL     1       5.203  -3.070  23.658  0.00  0.00    +0.015 A 
ATOM     27  C   UNL     1       4.859  -4.184  22.877  0.00  0.00    +0.050 A 
ATOM     28  C   UNL     1       3.845  -5.003  23.308  0.00  0.00    +0.158 A 
ATOM     29  C   UNL     1       3.135  -4.687  24.465  0.00  0.00    +0.159 A 
ATOM     30  C   UNL     1       3.499  -3.593  25.266  0.00  0.00    +0.060 A 
BRANCH  28  31
ATOM     31  O   UNL     1       3.553  -6.138  22.605  0.00  0.00    -0.503 OA
ATOM     32  H   UNL     1       4.421  -6.524  22.376  0.00  0.00    +0.292 HD
ENDBRANCH  28  31
BRANCH  29  33
ATOM     33  O   UNL     1       2.079  -5.499  24.781  0.00  0.00    -0.503 OA
ATOM     34  H   UNL     1       1.336  -5.247  24.204  0.00  0.00    +0.292 HD
ENDBRANCH  29  33
ENDBRANCH  24  25
BRANCH  20  35
ATOM     35  O   UNL     1       4.339   4.256  26.151  0.00  0.00    -0.507 OA
ATOM     36  H   UNL     1       3.728   4.157  25.407  0.00  0.00    +0.292 HD
ENDBRANCH  20  35
BRANCH  23  37
ATOM     37  O   UNL     1       7.473   1.797  28.675  0.00  0.00    -0.506 OA
ATOM     38  H   UNL     1       7.315   1.044  29.266  0.00  0.00    +0.292 HD
ENDBRANCH  23  37
ENDBRANCH  13  14
ENDBRANCH   3  13
BRANCH   1  39
ATOM     39  C   UNL     1       9.685  -2.065  23.869  0.00  0.00    +0.197 C 
BRANCH  39  40
ATOM     40  O   UNL     1       8.496  -1.363  23.533  0.00  0.00    -0.346 OA
BRANCH  40  44
ATOM     41  C   UNL     1       9.034   2.894  24.499  0.00  0.00    +0.041 C 
ATOM     42  C   UNL     1       7.783   2.198  23.976  0.00  0.00    +0.149 C 
ATOM     43  O   UNL     1       7.814   0.781  24.187  0.00  0.00    -0.343 OA
ATOM     44  C   UNL     1       8.713   0.043  23.359  0.00  0.00    +0.282 C 
ATOM     45  C   UNL     1       8.501   0.302  21.853  0.00  0.00    +0.201 C 
ATOM     46  C   UNL     1       8.371   1.792  21.531  0.00  0.00    +0.179 C 
ATOM     47  C   UNL     1       7.424   2.490  22.513  0.00  0.00    +0.174 C 
BRANCH  45  48
ATOM     48  O   UNL     1       9.579  -0.279  21.098  0.00  0.00    -0.384 OA
ATOM     49  H   UNL     1      10.419   0.060  21.460  0.00  0.00    +0.210 HD
ENDBRANCH  45  48
BRANCH  46  50
ATOM     50  O   UNL     1       9.660   2.421  21.478  0.00  0.00    -0.386 OA
ATOM     51  H   UNL     1       9.877   2.810  22.342  0.00  0.00    +0.210 HD
ENDBRANCH  46  50
BRANCH  47  52
ATOM     52  O   UNL     1       6.087   2.001  22.287  0.00  0.00    -0.387 OA
ATOM     53  H   UNL     1       6.043   1.089  22.620  0.00  0.00    +0.210 HD
ENDBRANCH  47  52
ENDBRANCH  40  44
ENDBRANCH  39  40
ENDBRANCH   1  39
TORSDOF 16
ENDMDL
MODEL 4
REMARK VINA RESULT:      -7.0      2.554      6.012
REMARK  Name = 
REMARK  17 active torsions:
REMARK  status: ('A' for Active; 'I' for Inactive)
REMARK    1  A    between atoms: C_1  and  C_2
REMARK    2  A    between atoms: C_4  and  O_53
REMARK    3  A    between atoms: C_6  and  O_52
REMARK    4  A    between atoms: C_8  and  O_51
REMARK    5  A    between atoms: C_10  and  O_13
REMARK    6  A    between atoms: O_13  and  C_14
REMARK    7  A    between atoms: C_14  and  C_15
REMARK    8  A    between atoms: C_17  and  O_50
REMARK    9  A    between atoms: C_19  and  O_49
REMARK   10  A    between atoms: C_21  and  O_48
REMARK   11  A    between atoms: C_23  and  O_26
REMARK   12  A    between atoms: O_26  and  C_27
REMARK   13  A    between atoms: C_28  and  C_40
REMARK   14  A    between atoms: C_32  and  O_39
REMARK   15  A    between atoms: C_34  and  O_38
REMARK   16  A    between atoms: C_42  and  O_47
REMARK   17  A    between atoms: C_43  and  O_46
REMARK                            x       y       z     vdW  Elec       q    Type
REMARK                         _______ _______ _______ _____ _____    ______ ____
ROOT
ATOM      1  C   UNL     1       7.864  -0.859  24.325  0.00  0.00    +0.179 C 
ATOM      2  O   UNL     1       8.522   0.287  24.896  0.00  0.00    -0.331 OA
ATOM      3  C   UNL     1       8.527   1.378  23.970  0.00  0.00    +0.340 C 
ATOM      4  C   UNL     1       9.506   1.029  22.824  0.00  0.00    +0.214 C 
ATOM      5  C   UNL     1       8.991  -0.305  22.195  0.00  0.00    +0.180 C 
ATOM      6  C   UNL     1       8.803  -1.414  23.250  0.00  0.00    +0.177 C 
ENDROOT
BRANCH   4   7
ATOM      7  O   UNL     1       9.488   2.073  21.833  0.00  0.00    -0.383 OA
ATOM      8  H   UNL     1       8.630   2.528  21.919  0.00  0.00    +0.210 HD
ENDBRANCH   4   7
BRANCH   5   9
ATOM      9  O   UNL     1       9.828  -0.715  21.108  0.00  0.00    -0.386 OA
ATOM     10  H   UNL     1      10.483  -0.004  20.967  0.00  0.00    +0.210 HD
ENDBRANCH   5   9
BRANCH   6  11
ATOM     11  O   UNL     1      10.089  -1.770  23.765  0.00  0.00    -0.386 OA
ATOM     12  H   UNL     1      10.753  -1.488  23.097  0.00  0.00    +0.210 HD
ENDBRANCH   6  11
BRANCH   3  13
ATOM     13  O   UNL     1       8.767   2.622  24.669  0.00  0.00    -0.453 OA
BRANCH  13  14
ATOM     14  C   UNL     1       7.877   3.650  24.302  0.00  0.00    +0.214 A 
ATOM     15  C   UNL     1       6.388   3.389  24.236  0.00  0.00    +0.238 A 
ATOM     16  O   UNL     1       5.810   2.552  24.914  0.00  0.00    -0.283 OA
ATOM     17  C   UNL     1       5.568   4.238  23.398  0.00  0.00    +0.109 A 
ATOM     18  C   UNL     1       6.059   5.505  23.156  0.00  0.00    +0.147 A 
ATOM     19  C   UNL     1       5.254   6.444  22.522  0.00  0.00    +0.092 A 
ATOM     20  C   UNL     1       3.958   6.088  22.144  0.00  0.00    +0.124 A 
ATOM     21  C   UNL     1       3.463   4.811  22.366  0.00  0.00    +0.091 A 
ATOM     22  O   UNL     1       7.299   5.891  23.593  0.00  0.00    -0.451 OA
ATOM     23  C   UNL     1       4.279   3.875  22.984  0.00  0.00    +0.135 A 
ATOM     24  C   UNL     1       8.223   4.947  24.081  0.00  0.00    +0.181 A 
BRANCH  24  25
ATOM     25  C   UNL     1       9.535   5.633  24.394  0.00  0.00    +0.025 A 
ATOM     26  C   UNL     1       9.574   6.531  25.497  0.00  0.00    +0.015 A 
ATOM     27  C   UNL     1      10.770   7.035  26.029  0.00  0.00    +0.050 A 
ATOM     28  C   UNL     1      11.955   6.695  25.427  0.00  0.00    +0.158 A 
ATOM     29  C   UNL     1      11.953   5.917  24.270  0.00  0.00    +0.159 A 
ATOM     30  C   UNL     1      10.762   5.383  23.754  0.00  0.00    +0.060 A 
BRANCH  28  31
ATOM     31  O   UNL     1      13.134   7.108  25.981  0.00  0.00    -0.503 OA
ATOM     32  H   UNL     1      13.446   7.832  25.404  0.00  0.00    +0.292 HD
ENDBRANCH  28  31
BRANCH  29  33
ATOM     33  O   UNL     1      13.165   5.697  23.673  0.00  0.00    -0.503 OA
ATOM     34  H   UNL     1      13.010   5.628  22.714  0.00  0.00    +0.292 HD
ENDBRANCH  29  33
ENDBRANCH  24  25
BRANCH  20  35
ATOM     35  O   UNL     1       3.114   6.977  21.547  0.00  0.00    -0.507 OA
ATOM     36  H   UNL     1       3.634   7.600  21.018  0.00  0.00    +0.292 HD
ENDBRANCH  20  35
BRANCH  23  37
ATOM     37  O   UNL     1       3.810   2.603  23.165  0.00  0.00    -0.506 OA
ATOM     38  H   UNL     1       4.469   1.966  22.846  0.00  0.00    +0.292 HD
ENDBRANCH  23  37
ENDBRANCH  13  14
ENDBRANCH   3  13
BRANCH   1  39
ATOM     39  C   UNL     1       7.488  -1.833  25.441  0.00  0.00    +0.197 C 
BRANCH  39  40
ATOM     40  O   UNL     1       7.941  -3.139  25.115  0.00  0.00    -0.346 OA
BRANCH  40  44
ATOM     41  C   UNL     1       4.460  -5.778  24.602  0.00  0.00    +0.041 C 
ATOM     42  C   UNL     1       4.561  -4.504  25.432  0.00  0.00    +0.149 C 
ATOM     43  O   UNL     1       5.661  -3.676  25.036  0.00  0.00    -0.343 OA
ATOM     44  C   UNL     1       6.962  -4.149  25.389  0.00  0.00    +0.282 C 
ATOM     45  C   UNL     1       7.107  -4.456  26.894  0.00  0.00    +0.201 C 
ATOM     46  C   UNL     1       5.931  -5.271  27.438  0.00  0.00    +0.179 C 
ATOM     47  C   UNL     1       4.593  -4.703  26.954  0.00  0.00    +0.174 C 
BRANCH  45  48
ATOM     48  O   UNL     1       8.346  -5.145  27.138  0.00  0.00    -0.384 OA
ATOM     49  H   UNL     1       9.059  -4.480  27.179  0.00  0.00    +0.210 HD
ENDBRANCH  45  48
BRANCH  46  50
ATOM     50  O   UNL     1       6.080  -6.663  27.120  0.00  0.00    -0.386 OA
ATOM     51  H   UNL     1       6.998  -6.944  27.274  0.00  0.00    +0.210 HD
ENDBRANCH  46  50
BRANCH  47  52
ATOM     52  O   UNL     1       4.393  -3.414  27.566  0.00  0.00    -0.387 OA
ATOM     53  H   UNL     1       4.817  -3.430  28.440  0.00  0.00    +0.210 HD
ENDBRANCH  47  52
ENDBRANCH  40  44
ENDBRANCH  39  40
ENDBRANCH   1  39
TORSDOF 16
ENDMDL
MODEL 5
REMARK VINA RESULT:      -6.8      2.327      7.145
REMARK  Name = 
REMARK  17 active torsions:
REMARK  status: ('A' for Active; 'I' for Inactive)
REMARK    1  A    between atoms: C_1  and  C_2
REMARK    2  A    between atoms: C_4  and  O_53
REMARK    3  A    between atoms: C_6  and  O_52
REMARK    4  A    between atoms: C_8  and  O_51
REMARK    5  A    between atoms: C_10  and  O_13
REMARK    6  A    between atoms: O_13  and  C_14
REMARK    7  A    between atoms: C_14  and  C_15
REMARK    8  A    between atoms: C_17  and  O_50
REMARK    9  A    between atoms: C_19  and  O_49
REMARK   10  A    between atoms: C_21  and  O_48
REMARK   11  A    between atoms: C_23  and  O_26
REMARK   12  A    between atoms: O_26  and  C_27
REMARK   13  A    between atoms: C_28  and  C_40
REMARK   14  A    between atoms: C_32  and  O_39
REMARK   15  A    between atoms: C_34  and  O_38
REMARK   16  A    between atoms: C_42  and  O_47
REMARK   17  A    between atoms: C_43  and  O_46
REMARK                            x       y       z     vdW  Elec       q    Type
REMARK                         _______ _______ _______ _____ _____    ______ ____
ROOT
ATOM      1  C   UNL     1       9.351  -2.798  25.070  0.00  0.00    +0.179 C 
ATOM      2  O   UNL     1       7.990  -2.711  25.530  0.00  0.00    -0.331 OA
ATOM      3  C   UNL     1       7.820  -3.451  26.743  0.00  0.00    +0.340 C 
ATOM      4  C   UNL     1       7.909  -4.956  26.402  0.00  0.00    +0.214 C 
ATOM      5  C   UNL     1       9.308  -5.177  25.742  0.00  0.00    +0.180 C 
ATOM      6  C   UNL     1       9.550  -4.225  24.552  0.00  0.00    +0.177 C 
ENDROOT
BRANCH   4   7
ATOM      7  O   UNL     1       7.813  -5.737  27.607  0.00  0.00    -0.383 OA
ATOM      8  H   UNL     1       7.661  -5.108  28.338  0.00  0.00    +0.210 HD
ENDBRANCH   4   7
BRANCH   5   9
ATOM      9  O   UNL     1       9.499  -6.553  25.393  0.00  0.00    -0.386 OA
ATOM     10  H   UNL     1       9.989  -6.569  24.548  0.00  0.00    +0.210 HD
ENDBRANCH   5   9
BRANCH   6  11
ATOM     11  O   UNL     1       8.636  -4.569  23.507  0.00  0.00    -0.386 OA
ATOM     12  H   UNL     1       8.456  -5.532  23.589  0.00  0.00    +0.210 HD
ENDBRANCH   6  11
BRANCH   3  13
ATOM     13  O   UNL     1       6.623  -3.013  27.429  0.00  0.00    -0.453 OA
BRANCH  13  14
ATOM     14  C   UNL     1       6.077  -1.828  26.899  0.00  0.00    +0.214 A 
ATOM     15  C   UNL     1       6.713  -0.488  27.201  0.00  0.00    +0.238 A 
ATOM     16  O   UNL     1       7.901  -0.334  27.443  0.00  0.00    -0.283 OA
ATOM     17  C   UNL     1       5.900   0.706  27.105  0.00  0.00    +0.109 A 
ATOM     18  C   UNL     1       4.814   0.631  26.257  0.00  0.00    +0.147 A 
ATOM     19  C   UNL     1       4.093   1.782  25.961  0.00  0.00    +0.092 A 
ATOM     20  C   UNL     1       4.486   2.997  26.526  0.00  0.00    +0.124 A 
ATOM     21  C   UNL     1       5.565   3.078  27.395  0.00  0.00    +0.091 A 
ATOM     22  O   UNL     1       4.467  -0.539  25.634  0.00  0.00    -0.451 OA
ATOM     23  C   UNL     1       6.268   1.921  27.697  0.00  0.00    +0.135 A 
ATOM     24  C   UNL     1       5.041  -1.765  26.021  0.00  0.00    +0.181 A 
BRANCH  24  25
ATOM     25  C   UNL     1       4.403  -2.895  25.241  0.00  0.00    +0.025 A 
ATOM     26  C   UNL     1       3.084  -3.291  25.597  0.00  0.00    +0.015 A 
ATOM     27  C   UNL     1       2.303  -4.148  24.805  0.00  0.00    +0.050 A 
ATOM     28  C   UNL     1       2.855  -4.675  23.664  0.00  0.00    +0.158 A 
ATOM     29  C   UNL     1       4.185  -4.410  23.344  0.00  0.00    +0.159 A 
ATOM     30  C   UNL     1       4.958  -3.527  24.115  0.00  0.00    +0.060 A 
BRANCH  28  31
ATOM     31  O   UNL     1       2.083  -5.442  22.837  0.00  0.00    -0.503 OA
ATOM     32  H   UNL     1       2.167  -6.352  23.185  0.00  0.00    +0.292 HD
ENDBRANCH  28  31
BRANCH  29  33
ATOM     33  O   UNL     1       4.692  -5.045  22.242  0.00  0.00    -0.503 OA
ATOM     34  H   UNL     1       5.107  -4.367  21.680  0.00  0.00    +0.292 HD
ENDBRANCH  29  33
ENDBRANCH  24  25
BRANCH  20  35
ATOM     35  O   UNL     1       3.835   4.163  26.248  0.00  0.00    -0.507 OA
ATOM     36  H   UNL     1       3.783   4.696  27.054  0.00  0.00    +0.292 HD
ENDBRANCH  20  35
BRANCH  23  37
ATOM     37  O   UNL     1       7.306   1.990  28.586  0.00  0.00    -0.506 OA
ATOM     38  H   UNL     1       7.003   1.695  29.460  0.00  0.00    +0.292 HD
ENDBRANCH  23  37
ENDBRANCH  13  14
ENDBRANCH   3  13
BRANCH   1  39
ATOM     39  C   UNL     1       9.614  -1.684  24.057  0.00  0.00    +0.197 C 
BRANCH  39  40
ATOM     40  O   UNL     1       9.794  -0.448  24.734  0.00  0.00    -0.346 OA
BRANCH  40  44
ATOM     41  C   UNL     1       6.492   2.072  23.285  0.00  0.00    +0.041 C 
ATOM     42  C   UNL     1       7.338   1.080  22.493  0.00  0.00    +0.149 C 
ATOM     43  O   UNL     1       8.005   0.133  23.335  0.00  0.00    -0.343 OA
ATOM     44  C   UNL     1       9.100   0.635  24.101  0.00  0.00    +0.282 C 
ATOM     45  C   UNL     1      10.165   1.349  23.241  0.00  0.00    +0.201 C 
ATOM     46  C   UNL     1       9.545   2.330  22.243  0.00  0.00    +0.179 C 
ATOM     47  C   UNL     1       8.349   1.700  21.519  0.00  0.00    +0.174 C 
BRANCH  45  48
ATOM     48  O   UNL     1      11.106   2.030  24.089  0.00  0.00    -0.384 OA
ATOM     49  H   UNL     1      11.281   2.908  23.703  0.00  0.00    +0.210 HD
ENDBRANCH  45  48
BRANCH  46  50
ATOM     50  O   UNL     1       9.203   3.568  22.883  0.00  0.00    -0.386 OA
ATOM     51  H   UNL     1       9.744   3.691  23.681  0.00  0.00    +0.210 HD
ENDBRANCH  46  50
BRANCH  47  52
ATOM     52  O   UNL     1       8.833   0.646  20.665  0.00  0.00    -0.387 OA
ATOM     53  H   UNL     1       9.426   0.083  21.191  0.00  0.00    +0.210 HD
ENDBRANCH  47  52
ENDBRANCH  40  44
ENDBRANCH  39  40
ENDBRANCH   1  39
TORSDOF 16
ENDMDL
MODEL 6
REMARK VINA RESULT:      -6.7      2.325      8.535
REMARK  Name = 
REMARK  17 active torsions:
REMARK  status: ('A' for Active; 'I' for Inactive)
REMARK    1  A    between atoms: C_1  and  C_2
REMARK    2  A    between atoms: C_4  and  O_53
REMARK    3  A    between atoms: C_6  and  O_52
REMARK    4  A    between atoms: C_8  and  O_51
REMARK    5  A    between atoms: C_10  and  O_13
REMARK    6  A    between atoms: O_13  and  C_14
REMARK    7  A    between atoms: C_14  and  C_15
REMARK    8  A    between atoms: C_17  and  O_50
REMARK    9  A    between atoms: C_19  and  O_49
REMARK   10  A    between atoms: C_21  and  O_48
REMARK   11  A    between atoms: C_23  and  O_26
REMARK   12  A    between atoms: O_26  and  C_27
REMARK   13  A    between atoms: C_28  and  C_40
REMARK   14  A    between atoms: C_32  and  O_39
REMARK   15  A    between atoms: C_34  and  O_38
REMARK   16  A    between atoms: C_42  and  O_47
REMARK   17  A    between atoms: C_43  and  O_46
REMARK                            x       y       z     vdW  Elec       q    Type
REMARK                         _______ _______ _______ _____ _____    ______ ____
ROOT
ATOM      1  C   UNL     1       9.413   0.983  24.071  0.00  0.00    +0.179 C 
ATOM      2  O   UNL     1       8.625   0.051  24.835  0.00  0.00    -0.331 OA
ATOM      3  C   UNL     1       9.367  -1.145  25.090  0.00  0.00    +0.340 C 
ATOM      4  C   UNL     1       9.507  -1.916  23.757  0.00  0.00    +0.214 C 
ATOM      5  C   UNL     1      10.227  -0.950  22.762  0.00  0.00    +0.180 C 
ATOM      6  C   UNL     1       9.515   0.414  22.653  0.00  0.00    +0.177 C 
ENDROOT
BRANCH   4   7
ATOM      7  O   UNL     1      10.309  -3.094  23.957  0.00  0.00    -0.383 OA
ATOM      8  H   UNL     1      11.108  -2.988  23.407  0.00  0.00    +0.210 HD
ENDBRANCH   4   7
BRANCH   5   9
ATOM      9  O   UNL     1      10.416  -1.576  21.488  0.00  0.00    -0.386 OA
ATOM     10  H   UNL     1       9.717  -1.238  20.897  0.00  0.00    +0.210 HD
ENDBRANCH   5   9
BRANCH   6  11
ATOM     11  O   UNL     1       8.237   0.208  22.044  0.00  0.00    -0.386 OA
ATOM     12  H   UNL     1       8.150  -0.757  21.881  0.00  0.00    +0.210 HD
ENDBRANCH   6  11
BRANCH   3  13
ATOM     13  O   UNL     1       8.779  -1.868  26.197  0.00  0.00    -0.453 OA
BRANCH  13  14
ATOM     14  C   UNL     1       7.510  -2.403  25.903  0.00  0.00    +0.214 A 
ATOM     15  C   UNL     1       7.380  -3.757  25.240  0.00  0.00    +0.238 A 
ATOM     16  O   UNL     1       8.200  -4.656  25.357  0.00  0.00    -0.283 OA
ATOM     17  C   UNL     1       6.174  -4.057  24.498  0.00  0.00    +0.109 A 
ATOM     18  C   UNL     1       5.043  -3.362  24.875  0.00  0.00    +0.147 A 
ATOM     19  C   UNL     1       3.808  -3.721  24.348  0.00  0.00    +0.092 A 
ATOM     20  C   UNL     1       3.735  -4.784  23.447  0.00  0.00    +0.124 A 
ATOM     21  C   UNL     1       4.869  -5.476  23.047  0.00  0.00    +0.091 A 
ATOM     22  O   UNL     1       5.091  -2.369  25.819  0.00  0.00    -0.451 OA
ATOM     23  C   UNL     1       6.099  -5.100  23.566  0.00  0.00    +0.135 A 
ATOM     24  C   UNL     1       6.321  -1.843  26.258  0.00  0.00    +0.181 A 
BRANCH  24  25
ATOM     25  C   UNL     1       6.073  -0.699  27.217  0.00  0.00    +0.025 A 
ATOM     26  C   UNL     1       4.918  -0.760  28.045  0.00  0.00    +0.015 A 
ATOM     27  C   UNL     1       4.710   0.107  29.130  0.00  0.00    +0.050 A 
ATOM     28  C   UNL     1       5.631   1.096  29.370  0.00  0.00    +0.158 A 
ATOM     29  C   UNL     1       6.713   1.267  28.508  0.00  0.00    +0.159 A 
ATOM     30  C   UNL     1       6.943   0.382  27.443  0.00  0.00    +0.060 A 
BRANCH  28  31
ATOM     31  O   UNL     1       5.489   1.894  30.470  0.00  0.00    -0.503 OA
ATOM     32  H   UNL     1       5.679   2.798  30.153  0.00  0.00    +0.292 HD
ENDBRANCH  28  31
BRANCH  29  33
ATOM     33  O   UNL     1       7.537   2.332  28.758  0.00  0.00    -0.503 OA
ATOM     34  H   UNL     1       7.136   2.847  29.480  0.00  0.00    +0.292 HD
ENDBRANCH  29  33
ENDBRANCH  24  25
BRANCH  20  35
ATOM     35  O   UNL     1       2.547  -5.200  22.921  0.00  0.00    -0.507 OA
ATOM     36  H   UNL     1       2.211  -4.518  22.322  0.00  0.00    +0.292 HD
ENDBRANCH  20  35
BRANCH  23  37
ATOM     37  O   UNL     1       7.224  -5.752  23.142  0.00  0.00    -0.506 OA
ATOM     38  H   UNL     1       7.308  -6.596  23.615  0.00  0.00    +0.292 HD
ENDBRANCH  23  37
ENDBRANCH  13  14
ENDBRANCH   3  13
BRANCH   1  39
ATOM     39  C   UNL     1       8.795   2.376  24.181  0.00  0.00    +0.197 C 
BRANCH  39  40
ATOM     40  O   UNL     1       8.044   2.665  23.010  0.00  0.00    -0.346 OA
BRANCH  40  44
ATOM     41  C   UNL     1       4.576   5.353  23.325  0.00  0.00    +0.041 C 
ATOM     42  C   UNL     1       5.548   4.937  24.423  0.00  0.00    +0.149 C 
ATOM     43  O   UNL     1       6.781   4.426  23.901  0.00  0.00    -0.343 OA
ATOM     44  C   UNL     1       6.720   3.131  23.302  0.00  0.00    +0.282 C 
ATOM     45  C   UNL     1       6.110   2.061  24.232  0.00  0.00    +0.201 C 
ATOM     46  C   UNL     1       4.824   2.542  24.908  0.00  0.00    +0.179 C 
ATOM     47  C   UNL     1       4.991   3.960  25.467  0.00  0.00    +0.174 C 
BRANCH  45  48
ATOM     48  O   UNL     1       5.862   0.852  23.493  0.00  0.00    -0.384 OA
ATOM     49  H   UNL     1       5.202   0.328  23.983  0.00  0.00    +0.210 HD
ENDBRANCH  45  48
BRANCH  46  50
ATOM     50  O   UNL     1       3.704   2.436  24.017  0.00  0.00    -0.386 OA
ATOM     51  H   UNL     1       3.442   1.505  23.920  0.00  0.00    +0.210 HD
ENDBRANCH  46  50
BRANCH  47  52
ATOM     52  O   UNL     1       5.925   3.914  26.563  0.00  0.00    -0.387 OA
ATOM     53  H   UNL     1       6.817   4.042  26.200  0.00  0.00    +0.210 HD
ENDBRANCH  47  52
ENDBRANCH  40  44
ENDBRANCH  39  40
ENDBRANCH   1  39
TORSDOF 16
ENDMDL
MODEL 7
REMARK VINA RESULT:      -6.6      2.268      5.029
REMARK  Name = 
REMARK  17 active torsions:
REMARK  status: ('A' for Active; 'I' for Inactive)
REMARK    1  A    between atoms: C_1  and  C_2
REMARK    2  A    between atoms: C_4  and  O_53
REMARK    3  A    between atoms: C_6  and  O_52
REMARK    4  A    between atoms: C_8  and  O_51
REMARK    5  A    between atoms: C_10  and  O_13
REMARK    6  A    between atoms: O_13  and  C_14
REMARK    7  A    between atoms: C_14  and  C_15
REMARK    8  A    between atoms: C_17  and  O_50
REMARK    9  A    between atoms: C_19  and  O_49
REMARK   10  A    between atoms: C_21  and  O_48
REMARK   11  A    between atoms: C_23  and  O_26
REMARK   12  A    between atoms: O_26  and  C_27
REMARK   13  A    between atoms: C_28  and  C_40
REMARK   14  A    between atoms: C_32  and  O_39
REMARK   15  A    between atoms: C_34  and  O_38
REMARK   16  A    between atoms: C_42  and  O_47
REMARK   17  A    between atoms: C_43  and  O_46
REMARK                            x       y       z     vdW  Elec       q    Type
REMARK                         _______ _______ _______ _____ _____    ______ ____
ROOT
ATOM      1  C   UNL     1       6.806  -4.143  26.439  0.00  0.00    +0.179 C 
ATOM      2  O   UNL     1       7.656  -3.020  26.740  0.00  0.00    -0.331 OA
ATOM      3  C   UNL     1       8.204  -2.467  25.540  0.00  0.00    +0.340 C 
ATOM      4  C   UNL     1       9.243  -3.468  24.983  0.00  0.00    +0.214 C 
ATOM      5  C   UNL     1       8.479  -4.810  24.744  0.00  0.00    +0.180 C 
ATOM      6  C   UNL     1       7.728  -5.286  26.004  0.00  0.00    +0.177 C 
ENDROOT
BRANCH   4   7
ATOM      7  O   UNL     1       9.770  -2.981  23.735  0.00  0.00    -0.383 OA
ATOM      8  H   UNL     1       9.063  -3.086  23.071  0.00  0.00    +0.210 HD
ENDBRANCH   4   7
BRANCH   5   9
ATOM      9  O   UNL     1       9.356  -5.811  24.215  0.00  0.00    -0.386 OA
ATOM     10  H   UNL     1      10.269  -5.520  24.403  0.00  0.00    +0.210 HD
ENDBRANCH   5   9
BRANCH   6  11
ATOM     11  O   UNL     1       8.693  -5.631  27.002  0.00  0.00    -0.386 OA
ATOM     12  H   UNL     1       9.162  -4.803  27.245  0.00  0.00    +0.210 HD
ENDBRANCH   6  11
BRANCH   3  13
ATOM     13  O   UNL     1       8.671  -1.118  25.782  0.00  0.00    -0.453 OA
BRANCH  13  14
ATOM     14  C   UNL     1       7.916  -0.138  25.111  0.00  0.00    +0.214 A 
ATOM     15  C   UNL     1       8.380   0.412  23.779  0.00  0.00    +0.238 A 
ATOM     16  O   UNL     1       9.061  -0.215  22.981  0.00  0.00    -0.283 OA
ATOM     17  C   UNL     1       7.918   1.720  23.366  0.00  0.00    +0.109 A 
ATOM     18  C   UNL     1       6.717   2.135  23.904  0.00  0.00    +0.147 A 
ATOM     19  C   UNL     1       6.109   3.288  23.421  0.00  0.00    +0.092 A 
ATOM     20  C   UNL     1       6.726   4.005  22.394  0.00  0.00    +0.124 A 
ATOM     21  C   UNL     1       7.943   3.605  21.860  0.00  0.00    +0.091 A 
ATOM     22  O   UNL     1       6.063   1.398  24.856  0.00  0.00    -0.451 OA
ATOM     23  C   UNL     1       8.550   2.463  22.360  0.00  0.00    +0.135 A 
ATOM     24  C   UNL     1       6.700   0.325  25.508  0.00  0.00    +0.181 A 
BRANCH  24  25
ATOM     25  C   UNL     1       5.786  -0.239  26.575  0.00  0.00    +0.025 A 
ATOM     26  C   UNL     1       5.927   0.252  27.903  0.00  0.00    +0.015 A 
ATOM     27  C   UNL     1       4.992  -0.009  28.917  0.00  0.00    +0.050 A 
ATOM     28  C   UNL     1       3.922  -0.820  28.634  0.00  0.00    +0.158 A 
ATOM     29  C   UNL     1       3.812  -1.421  27.381  0.00  0.00    +0.159 A 
ATOM     30  C   UNL     1       4.726  -1.136  26.354  0.00  0.00    +0.060 A 
BRANCH  28  31
ATOM     31  O   UNL     1       2.958  -1.016  29.583  0.00  0.00    -0.503 OA
ATOM     32  H   UNL     1       2.809  -1.982  29.596  0.00  0.00    +0.292 HD
ENDBRANCH  28  31
BRANCH  29  33
ATOM     33  O   UNL     1       2.769  -2.290  27.203  0.00  0.00    -0.503 OA
ATOM     34  H   UNL     1       3.148  -3.155  26.964  0.00  0.00    +0.292 HD
ENDBRANCH  29  33
ENDBRANCH  24  25
BRANCH  20  35
ATOM     35  O   UNL     1       6.161   5.125  21.860  0.00  0.00    -0.507 OA
ATOM     36  H   UNL     1       6.688   5.414  21.100  0.00  0.00    +0.292 HD
ENDBRANCH  20  35
BRANCH  23  37
ATOM     37  O   UNL     1       9.770   2.090  21.866  0.00  0.00    -0.506 OA
ATOM     38  H   UNL     1      10.188   1.463  22.477  0.00  0.00    +0.292 HD
ENDBRANCH  23  37
ENDBRANCH  13  14
ENDBRANCH   3  13
BRANCH   1  39
ATOM     39  C   UNL     1       5.911  -4.436  27.642  0.00  0.00    +0.197 C 
BRANCH  39  40
ATOM     40  O   UNL     1       4.588  -4.710  27.203  0.00  0.00    -0.346 OA
BRANCH  40  44
ATOM     41  C   UNL     1       4.717  -4.539  22.810  0.00  0.00    +0.041 C 
ATOM     42  C   UNL     1       3.491  -4.574  23.715  0.00  0.00    +0.149 C 
ATOM     43  O   UNL     1       3.792  -4.189  25.062  0.00  0.00    -0.343 OA
ATOM     44  C   UNL     1       4.535  -5.132  25.834  0.00  0.00    +0.282 C 
ATOM     45  C   UNL     1       3.887  -6.532  25.867  0.00  0.00    +0.201 C 
ATOM     46  C   UNL     1       3.451  -7.005  24.478  0.00  0.00    +0.179 C 
ATOM     47  C   UNL     1       2.710  -5.896  23.724  0.00  0.00    +0.174 C 
BRANCH  45  48
ATOM     48  O   UNL     1       4.797  -7.480  26.453  0.00  0.00    -0.384 OA
ATOM     49  H   UNL     1       4.455  -7.724  27.333  0.00  0.00    +0.210 HD
ENDBRANCH  45  48
BRANCH  46  50
ATOM     50  O   UNL     1       4.568  -7.517  23.735  0.00  0.00    -0.386 OA
ATOM     51  H   UNL     1       4.311  -8.327  23.263  0.00  0.00    +0.210 HD
ENDBRANCH  46  50
BRANCH  47  52
ATOM     52  O   UNL     1       1.452  -5.654  24.383  0.00  0.00    -0.387 OA
ATOM     53  H   UNL     1       0.823  -6.330  24.083  0.00  0.00    +0.210 HD
ENDBRANCH  47  52
ENDBRANCH  40  44
ENDBRANCH  39  40
ENDBRANCH   1  39
TORSDOF 16
ENDMDL
MODEL 8
REMARK VINA RESULT:      -6.6      2.383      8.278
REMARK  Name = 
REMARK  17 active torsions:
REMARK  status: ('A' for Active; 'I' for Inactive)
REMARK    1  A    between atoms: C_1  and  C_2
REMARK    2  A    between atoms: C_4  and  O_53
REMARK    3  A    between atoms: C_6  and  O_52
REMARK    4  A    between atoms: C_8  and  O_51
REMARK    5  A    between atoms: C_10  and  O_13
REMARK    6  A    between atoms: O_13  and  C_14
REMARK    7  A    between atoms: C_14  and  C_15
REMARK    8  A    between atoms: C_17  and  O_50
REMARK    9  A    between atoms: C_19  and  O_49
REMARK   10  A    between atoms: C_21  and  O_48
REMARK   11  A    between atoms: C_23  and  O_26
REMARK   12  A    between atoms: O_26  and  C_27
REMARK   13  A    between atoms: C_28  and  C_40
REMARK   14  A    between atoms: C_32  and  O_39
REMARK   15  A    between atoms: C_34  and  O_38
REMARK   16  A    between atoms: C_42  and  O_47
REMARK   17  A    between atoms: C_43  and  O_46
REMARK                            x       y       z     vdW  Elec       q    Type
REMARK                         _______ _______ _______ _____ _____    ______ ____
ROOT
ATOM      1  C   UNL     1       7.362  -3.220  24.281  0.00  0.00    +0.179 C 
ATOM      2  O   UNL     1       6.274  -3.854  24.979  0.00  0.00    -0.331 OA
ATOM      3  C   UNL     1       6.681  -4.247  26.294  0.00  0.00    +0.340 C 
ATOM      4  C   UNL     1       7.662  -5.435  26.156  0.00  0.00    +0.214 C 
ATOM      5  C   UNL     1       8.848  -4.928  25.274  0.00  0.00    +0.180 C 
ATOM      6  C   UNL     1       8.367  -4.324  23.939  0.00  0.00    +0.177 C 
ENDROOT
BRANCH   4   7
ATOM      7  O   UNL     1       8.150  -5.818  27.455  0.00  0.00    -0.383 OA
ATOM      8  H   UNL     1       7.411  -6.259  27.915  0.00  0.00    +0.210 HD
ENDBRANCH   4   7
BRANCH   5   9
ATOM      9  O   UNL     1       9.826  -5.958  25.092  0.00  0.00    -0.386 OA
ATOM     10  H   UNL     1       9.433  -6.624  24.495  0.00  0.00    +0.210 HD
ENDBRANCH   5   9
BRANCH   6  11
ATOM     11  O   UNL     1       7.795  -5.371  23.150  0.00  0.00    -0.386 OA
ATOM     12  H   UNL     1       7.760  -6.172  23.718  0.00  0.00    +0.210 HD
ENDBRANCH   6  11
BRANCH   3  13
ATOM     13  O   UNL     1       5.520  -4.461  27.131  0.00  0.00    -0.453 OA
BRANCH  13  14
ATOM     14  C   UNL     1       4.527  -3.477  26.970  0.00  0.00    +0.214 A 
ATOM     15  C   UNL     1       4.794  -2.042  27.368  0.00  0.00    +0.238 A 
ATOM     16  O   UNL     1       5.903  -1.527  27.365  0.00  0.00    -0.283 OA
ATOM     17  C   UNL     1       3.671  -1.185  27.683  0.00  0.00    +0.109 A 
ATOM     18  C   UNL     1       2.467  -1.527  27.100  0.00  0.00    +0.147 A 
ATOM     19  C   UNL     1       1.386  -0.658  27.195  0.00  0.00    +0.092 A 
ATOM     20  C   UNL     1       1.541   0.551  27.876  0.00  0.00    +0.124 A 
ATOM     21  C   UNL     1       2.741   0.894  28.481  0.00  0.00    +0.091 A 
ATOM     22  O   UNL     1       2.326  -2.672  26.361  0.00  0.00    -0.451 OA
ATOM     23  C   UNL     1       3.809   0.013  28.396  0.00  0.00    +0.135 A 
ATOM     24  C   UNL     1       3.320  -3.670  26.373  0.00  0.00    +0.181 A 
BRANCH  24  25
ATOM     25  C   UNL     1       2.858  -4.858  25.556  0.00  0.00    +0.025 A 
ATOM     26  C   UNL     1       2.250  -4.606  24.295  0.00  0.00    +0.015 A 
ATOM     27  C   UNL     1       2.003  -5.615  23.351  0.00  0.00    +0.050 A 
ATOM     28  C   UNL     1       2.308  -6.913  23.678  0.00  0.00    +0.158 A 
ATOM     29  C   UNL     1       2.790  -7.218  24.950  0.00  0.00    +0.159 A 
ATOM     30  C   UNL     1       3.070  -6.209  25.884  0.00  0.00    +0.060 A 
BRANCH  28  31
ATOM     31  O   UNL     1       2.154  -7.896  22.741  0.00  0.00    -0.503 OA
ATOM     32  H   UNL     1       3.056  -8.073  22.410  0.00  0.00    +0.292 HD
ENDBRANCH  28  31
BRANCH  29  33
ATOM     33  O   UNL     1       2.983  -8.544  25.234  0.00  0.00    -0.503 OA
ATOM     34  H   UNL     1       3.894  -8.768  24.974  0.00  0.00    +0.292 HD
ENDBRANCH  29  33
ENDBRANCH  24  25
BRANCH  20  35
ATOM     35  O   UNL     1       0.524   1.454  27.974  0.00  0.00    -0.507 OA
ATOM     36  H   UNL     1      -0.310   0.979  28.100  0.00  0.00    +0.292 HD
ENDBRANCH  20  35
BRANCH  23  37
ATOM     37  O   UNL     1       4.981   0.329  29.027  0.00  0.00    -0.506 OA
ATOM     38  H   UNL     1       5.532   0.866  28.436  0.00  0.00    +0.292 HD
ENDBRANCH  23  37
ENDBRANCH  13  14
ENDBRANCH   3  13
BRANCH   1  39
ATOM     39  C   UNL     1       6.809  -2.438  23.090  0.00  0.00    +0.197 C 
BRANCH  39  40
ATOM     40  O   UNL     1       7.850  -1.688  22.480  0.00  0.00    -0.346 OA
BRANCH  40  44
ATOM     41  C   UNL     1       7.168   2.279  24.254  0.00  0.00    +0.041 C 
ATOM     42  C   UNL     1       7.795   1.946  22.904  0.00  0.00    +0.149 C 
ATOM     43  O   UNL     1       7.468   0.624  22.459  0.00  0.00    -0.343 OA
ATOM     44  C   UNL     1       8.107  -0.448  23.153  0.00  0.00    +0.282 C 
ATOM     45  C   UNL     1       9.644  -0.317  23.186  0.00  0.00    +0.201 C 
ATOM     46  C   UNL     1      10.100   1.092  23.574  0.00  0.00    +0.179 C 
ATOM     47  C   UNL     1       9.312   2.158  22.806  0.00  0.00    +0.174 C 
BRANCH  45  48
ATOM     48  O   UNL     1      10.199  -1.287  24.092  0.00  0.00    -0.384 OA
ATOM     49  H   UNL     1      10.773  -0.817  24.725  0.00  0.00    +0.210 HD
ENDBRANCH  45  48
BRANCH  46  50
ATOM     50  O   UNL     1      10.032   1.281  24.995  0.00  0.00    -0.386 OA
ATOM     51  H   UNL     1       9.943   2.228  25.201  0.00  0.00    +0.210 HD
ENDBRANCH  46  50
BRANCH  47  52
ATOM     52  O   UNL     1       9.673   2.082  21.414  0.00  0.00    -0.387 OA
ATOM     53  H   UNL     1       9.033   2.612  20.910  0.00  0.00    +0.210 HD
ENDBRANCH  47  52
ENDBRANCH  40  44
ENDBRANCH  39  40
ENDBRANCH   1  39
TORSDOF 16
ENDMDL
MODEL 9
REMARK VINA RESULT:      -6.6      2.126      8.389
REMARK  Name = 
REMARK  17 active torsions:
REMARK  status: ('A' for Active; 'I' for Inactive)
REMARK    1  A    between atoms: C_1  and  C_2
REMARK    2  A    between atoms: C_4  and  O_53
REMARK    3  A    between atoms: C_6  and  O_52
REMARK    4  A    between atoms: C_8  and  O_51
REMARK    5  A    between atoms: C_10  and  O_13
REMARK    6  A    between atoms: O_13  and  C_14
REMARK    7  A    between atoms: C_14  and  C_15
REMARK    8  A    between atoms: C_17  and  O_50
REMARK    9  A    between atoms: C_19  and  O_49
REMARK   10  A    between atoms: C_21  and  O_48
REMARK   11  A    between atoms: C_23  and  O_26
REMARK   12  A    between atoms: O_26  and  C_27
REMARK   13  A    between atoms: C_28  and  C_40
REMARK   14  A    between atoms: C_32  and  O_39
REMARK   15  A    between atoms: C_34  and  O_38
REMARK   16  A    between atoms: C_42  and  O_47
REMARK   17  A    between atoms: C_43  and  O_46
REMARK                            x       y       z     vdW  Elec       q    Type
REMARK                         _______ _______ _______ _____ _____    ______ ____
ROOT
ATOM      1  C   UNL     1       7.315   2.186  25.855  0.00  0.00    +0.179 C 
ATOM      2  O   UNL     1       8.003   0.960  26.165  0.00  0.00    -0.331 OA
ATOM      3  C   UNL     1       7.070  -0.109  26.347  0.00  0.00    +0.340 C 
ATOM      4  C   UNL     1       6.315   0.136  27.674  0.00  0.00    +0.214 C 
ATOM      5  C   UNL     1       5.626   1.532  27.539  0.00  0.00    +0.180 C 
ATOM      6  C   UNL     1       6.625   2.640  27.145  0.00  0.00    +0.177 C 
ENDROOT
BRANCH   4   7
ATOM      7  O   UNL     1       5.315  -0.883  27.862  0.00  0.00    -0.383 OA
ATOM      8  H   UNL     1       4.618  -0.718  27.199  0.00  0.00    +0.210 HD
ENDBRANCH   4   7
BRANCH   5   9
ATOM      9  O   UNL     1       4.886   1.854  28.721  0.00  0.00    -0.386 OA
ATOM     10  H   UNL     1       4.853   1.045  29.268  0.00  0.00    +0.210 HD
ENDBRANCH   5   9
BRANCH   6  11
ATOM     11  O   UNL     1       7.540   2.829  28.228  0.00  0.00    -0.386 OA
ATOM     12  H   UNL     1       7.433   3.756  28.535  0.00  0.00    +0.210 HD
ENDBRANCH   6  11
BRANCH   3  13
ATOM     13  O   UNL     1       7.741  -1.384  26.211  0.00  0.00    -0.453 OA
BRANCH  13  14
ATOM     14  C   UNL     1       7.383  -2.082  25.042  0.00  0.00    +0.214 A 
ATOM     15  C   UNL     1       6.233  -3.066  25.056  0.00  0.00    +0.238 A 
ATOM     16  O   UNL     1       5.275  -2.987  25.811  0.00  0.00    -0.283 OA
ATOM     17  C   UNL     1       6.202  -4.115  24.059  0.00  0.00    +0.109 A 
ATOM     18  C   UNL     1       6.869  -3.851  22.882  0.00  0.00    +0.147 A 
ATOM     19  C   UNL     1       6.733  -4.719  21.804  0.00  0.00    +0.092 A 
ATOM     20  C   UNL     1       5.916  -5.843  21.933  0.00  0.00    +0.124 A 
ATOM     21  C   UNL     1       5.256  -6.127  23.121  0.00  0.00    +0.091 A 
ATOM     22  O   UNL     1       7.609  -2.709  22.715  0.00  0.00    -0.451 OA
ATOM     23  C   UNL     1       5.412  -5.265  24.196  0.00  0.00    +0.135 A 
ATOM     24  C   UNL     1       7.929  -1.885  23.812  0.00  0.00    +0.181 A 
BRANCH  24  25
ATOM     25  C   UNL     1       8.834  -0.761  23.357  0.00  0.00    +0.025 A 
ATOM     26  C   UNL     1       8.411   0.033  22.255  0.00  0.00    +0.015 A 
ATOM     27  C   UNL     1       9.036   1.239  21.898  0.00  0.00    +0.050 A 
ATOM     28  C   UNL     1      10.140   1.644  22.606  0.00  0.00    +0.158 A 
ATOM     29  C   UNL     1      10.660   0.834  23.614  0.00  0.00    +0.159 A 
ATOM     30  C   UNL     1      10.019  -0.355  23.996  0.00  0.00    +0.060 A 
BRANCH  28  31
ATOM     31  O   UNL     1      10.709   2.855  22.328  0.00  0.00    -0.503 OA
ATOM     32  H   UNL     1       9.962   3.436  22.083  0.00  0.00    +0.292 HD
ENDBRANCH  28  31
BRANCH  29  33
ATOM     33  O   UNL     1      11.815   1.260  24.212  0.00  0.00    -0.503 OA
ATOM     34  H   UNL     1      12.551   1.040  23.614  0.00  0.00    +0.292 HD
ENDBRANCH  29  33
ENDBRANCH  24  25
BRANCH  20  35
ATOM     35  O   UNL     1       5.721  -6.712  20.901  0.00  0.00    -0.507 OA
ATOM     36  H   UNL     1       4.782  -6.943  20.855  0.00  0.00    +0.292 HD
ENDBRANCH  20  35
BRANCH  23  37
ATOM     37  O   UNL     1       4.797  -5.565  25.380  0.00  0.00    -0.506 OA
ATOM     38  H   UNL     1       3.877  -5.255  25.355  0.00  0.00    +0.292 HD
ENDBRANCH  23  37
ENDBRANCH  13  14
ENDBRANCH   3  13
BRANCH   1  39
ATOM     39  C   UNL     1       8.304   3.181  25.249  0.00  0.00    +0.197 C 
BRANCH  39  40
ATOM     40  O   UNL     1       7.991   4.497  25.683  0.00  0.00    -0.346 OA
BRANCH  40  44
ATOM     41  C   UNL     1       5.076   7.108  23.675  0.00  0.00    +0.041 C 
ATOM     42  C   UNL     1       5.221   5.595  23.560  0.00  0.00    +0.149 C 
ATOM     43  O   UNL     1       5.955   5.029  24.652  0.00  0.00    -0.343 OA
ATOM     44  C   UNL     1       7.360   5.280  24.662  0.00  0.00    +0.282 C 
ATOM     45  C   UNL     1       8.058   4.870  23.348  0.00  0.00    +0.201 C 
ATOM     46  C   UNL     1       7.302   5.359  22.110  0.00  0.00    +0.179 C 
ATOM     47  C   UNL     1       5.800   5.082  22.234  0.00  0.00    +0.174 C 
BRANCH  45  48
ATOM     48  O   UNL     1       9.409   5.364  23.334  0.00  0.00    -0.384 OA
ATOM     49  H   UNL     1       9.830   5.118  24.178  0.00  0.00    +0.210 HD
ENDBRANCH  45  48
BRANCH  46  50
ATOM     50  O   UNL     1       7.582   6.743  21.849  0.00  0.00    -0.386 OA
ATOM     51  H   UNL     1       6.918   7.304  22.284  0.00  0.00    +0.210 HD
ENDBRANCH  46  50
BRANCH  47  52
ATOM     52  O   UNL     1       5.590   3.658  22.189  0.00  0.00    -0.387 OA
ATOM     53  H   UNL     1       6.383   3.251  21.801  0.00  0.00    +0.210 HD
ENDBRANCH  47  52
ENDBRANCH  40  44
ENDBRANCH  39  40
ENDBRANCH   1  39
TORSDOF 16
ENDMDL
