MODEL 1
REMARK VINA RESULT:      -7.4      0.000      0.000
REMARK  Name = 
REMARK  12 active torsions:
REMARK  status: ('A' for Active; 'I' for Inactive)
REMARK    1  A    between atoms: C_3  and  O_22
REMARK    2  A    between atoms: C_4  and  O_21
REMARK    3  A    between atoms: C_6  and  C_7
REMARK    4  A    between atoms: C_8  and  O_20
REMARK    5  A    between atoms: C_12  and  O_19
REMARK    6  A    between atoms: C_14  and  O_18
REMARK    7  A    between atoms: O_22  and  C_23
REMARK    8  A    between atoms: C_25  and  O_38
REMARK    9  A    between atoms: C_27  and  O_37
REMARK   10  A    between atoms: C_29  and  O_36
REMARK   11  A    between atoms: C_31  and  C_34
REMARK   12  A    between atoms: C_34  and  O_35
REMARK                            x       y       z     vdW  Elec       q    Type
REMARK                         _______ _______ _______ _____ _____    ______ ____
ROOT
ATOM      1  C   UNL     1       5.710  -3.744  22.966  0.00  0.00    +0.015 A 
ATOM      2  C   UNL     1       6.119  -4.502  24.077  0.00  0.00    +0.025 A 
ATOM      3  C   UNL     1       7.461  -4.425  24.465  0.00  0.00    +0.060 A 
ATOM      4  C   UNL     1       8.348  -3.629  23.735  0.00  0.00    +0.159 A 
ATOM      5  C   UNL     1       7.931  -2.904  22.612  0.00  0.00    +0.165 A 
ATOM      6  C   UNL     1       6.611  -3.012  22.205  0.00  0.00    +0.050 A 
ENDROOT
BRANCH   2   7
ATOM      7  C   UNL     1       5.121  -5.320  24.810  0.00  0.00    +0.181 A 
ATOM      8  O   UNL     1       4.610  -4.693  25.950  0.00  0.00    -0.451 OA
ATOM      9  C   UNL     1       3.694  -5.376  26.716  0.00  0.00    +0.147 A 
ATOM     10  C   UNL     1       3.133  -6.585  26.312  0.00  0.00    +0.109 A 
ATOM     11  C   UNL     1       2.180  -7.231  27.107  0.00  0.00    +0.135 A 
ATOM     12  C   UNL     1       1.799  -6.676  28.320  0.00  0.00    +0.091 A 
ATOM     13  C   UNL     1       2.372  -5.470  28.722  0.00  0.00    +0.124 A 
ATOM     14  C   UNL     1       3.590  -7.191  25.063  0.00  0.00    +0.238 A 
ATOM     15  O   UNL     1       3.054  -8.214  24.641  0.00  0.00    -0.283 OA
ATOM     16  C   UNL     1       3.308  -4.808  27.927  0.00  0.00    +0.092 A 
ATOM     17  C   UNL     1       4.728  -6.537  24.372  0.00  0.00    +0.208 A 
BRANCH  11  18
ATOM     18  O   UNL     1       1.593  -8.418  26.756  0.00  0.00    -0.506 OA
ATOM     19  H   UNL     1       1.175  -8.301  25.872  0.00  0.00    +0.292 HD
ENDBRANCH  11  18
BRANCH  13  20
ATOM     20  O   UNL     1       2.035  -4.901  29.915  0.00  0.00    -0.507 OA
ATOM     21  H   UNL     1       2.834  -4.834  30.465  0.00  0.00    +0.292 HD
ENDBRANCH  13  20
BRANCH  17  22
ATOM     22  O   UNL     1       5.283  -7.240  23.325  0.00  0.00    -0.501 OA
ATOM     23  H   UNL     1       6.060  -6.757  23.005  0.00  0.00    +0.292 HD
ENDBRANCH  17  22
ENDBRANCH   2   7
BRANCH   4  24
ATOM     24  O   UNL     1       9.649  -3.568  24.162  0.00  0.00    -0.503 OA
ATOM     25  H   UNL     1       9.851  -2.618  24.272  0.00  0.00    +0.292 HD
ENDBRANCH   4  24
BRANCH   5  26
ATOM     26  O   UNL     1       8.858  -2.105  22.004  0.00  0.00    -0.457 OA
BRANCH  26  27
ATOM     27  C   UNL     1       8.683  -0.673  22.147  0.00  0.00    +0.339 C 
ATOM     28  O   UNL     1       7.797  -0.327  23.214  0.00  0.00    -0.331 OA
ATOM     29  C   UNL     1       7.628   1.082  23.481  0.00  0.00    +0.179 C 
ATOM     30  C   UNL     1       8.987   1.753  23.758  0.00  0.00    +0.177 C 
ATOM     31  C   UNL     1      10.008   1.407  22.656  0.00  0.00    +0.180 C 
ATOM     32  C   UNL     1      10.080  -0.108  22.453  0.00  0.00    +0.214 C 
BRANCH  30  33
ATOM     33  O   UNL     1       9.436   1.304  25.046  0.00  0.00    -0.386 OA
ATOM     34  H   UNL     1       8.814   0.634  25.385  0.00  0.00    +0.210 HD
ENDBRANCH  30  33
BRANCH  31  35
ATOM     35  O   UNL     1       9.689   2.128  21.463  0.00  0.00    -0.386 OA
ATOM     36  H   UNL     1       9.905   3.071  21.555  0.00  0.00    +0.210 HD
ENDBRANCH  31  35
BRANCH  32  37
ATOM     37  O   UNL     1      10.610  -0.715  23.651  0.00  0.00    -0.383 OA
ATOM     38  H   UNL     1      10.179  -0.255  24.404  0.00  0.00    +0.210 HD
ENDBRANCH  32  37
BRANCH  29  39
ATOM     39  C   UNL     1       6.810   1.845  22.420  0.00  0.00    +0.190 C 
BRANCH  39  40
ATOM     40  O   UNL     1       7.106   3.238  22.455  0.00  0.00    -0.392 OA
ATOM     41  H   UNL     1       7.210   3.490  23.391  0.00  0.00    +0.210 HD
ENDBRANCH  39  40
ENDBRANCH  29  39
ENDBRANCH  26  27
ENDBRANCH   5  26
TORSDOF 12
ENDMDL
MODEL 2
REMARK VINA RESULT:      -7.2      2.504      9.742
REMARK  Name = 
REMARK  12 active torsions:
REMARK  status: ('A' for Active; 'I' for Inactive)
REMARK    1  A    between atoms: C_3  and  O_22
REMARK    2  A    between atoms: C_4  and  O_21
REMARK    3  A    between atoms: C_6  and  C_7
REMARK    4  A    between atoms: C_8  and  O_20
REMARK    5  A    between atoms: C_12  and  O_19
REMARK    6  A    between atoms: C_14  and  O_18
REMARK    7  A    between atoms: O_22  and  C_23
REMARK    8  A    between atoms: C_25  and  O_38
REMARK    9  A    between atoms: C_27  and  O_37
REMARK   10  A    between atoms: C_29  and  O_36
REMARK   11  A    between atoms: C_31  and  C_34
REMARK   12  A    between atoms: C_34  and  O_35
REMARK                            x       y       z     vdW  Elec       q    Type
REMARK                         _______ _______ _______ _____ _____    ______ ____
ROOT
ATOM      1  C   UNL     1       7.475  -0.277  22.861  0.00  0.00    +0.015 A 
ATOM      2  C   UNL     1       8.613   0.075  23.607  0.00  0.00    +0.025 A 
ATOM      3  C   UNL     1       9.490  -0.947  23.987  0.00  0.00    +0.060 A 
ATOM      4  C   UNL     1       9.202  -2.271  23.641  0.00  0.00    +0.159 A 
ATOM      5  C   UNL     1       8.047  -2.608  22.924  0.00  0.00    +0.165 A 
ATOM      6  C   UNL     1       7.161  -1.600  22.583  0.00  0.00    +0.050 A 
ENDROOT
BRANCH   2   7
ATOM      7  C   UNL     1       8.861   1.501  23.933  0.00  0.00    +0.181 A 
ATOM      8  O   UNL     1      10.037   2.008  23.374  0.00  0.00    -0.451 OA
ATOM      9  C   UNL     1      10.372   3.317  23.634  0.00  0.00    +0.147 A 
ATOM     10  C   UNL     1       9.509   4.197  24.284  0.00  0.00    +0.109 A 
ATOM     11  C   UNL     1       9.877   5.529  24.501  0.00  0.00    +0.135 A 
ATOM     12  C   UNL     1      11.120   5.980  24.083  0.00  0.00    +0.091 A 
ATOM     13  C   UNL     1      11.982   5.092  23.441  0.00  0.00    +0.124 A 
ATOM     14  C   UNL     1       8.229   3.692  24.777  0.00  0.00    +0.238 A 
ATOM     15  O   UNL     1       7.414   4.463  25.279  0.00  0.00    -0.283 OA
ATOM     16  C   UNL     1      11.617   3.767  23.203  0.00  0.00    +0.092 A 
ATOM     17  C   UNL     1       7.992   2.232  24.668  0.00  0.00    +0.208 A 
BRANCH  11  18
ATOM     18  O   UNL     1       9.066   6.437  25.130  0.00  0.00    -0.506 OA
ATOM     19  H   UNL     1       8.266   5.959  25.450  0.00  0.00    +0.292 HD
ENDBRANCH  11  18
BRANCH  13  20
ATOM     20  O   UNL     1      13.219   5.494  23.029  0.00  0.00    -0.507 OA
ATOM     21  H   UNL     1      13.114   6.157  22.326  0.00  0.00    +0.292 HD
ENDBRANCH  13  20
BRANCH  17  22
ATOM     22  O   UNL     1       6.885   1.749  25.331  0.00  0.00    -0.501 OA
ATOM     23  H   UNL     1       6.803   2.214  26.178  0.00  0.00    +0.292 HD
ENDBRANCH  17  22
ENDBRANCH   2   7
BRANCH   4  24
ATOM     24  O   UNL     1      10.098  -3.237  24.017  0.00  0.00    -0.503 OA
ATOM     25  H   UNL     1      10.231  -3.801  23.230  0.00  0.00    +0.292 HD
ENDBRANCH   4  24
BRANCH   5  26
ATOM     26  O   UNL     1       7.888  -3.921  22.578  0.00  0.00    -0.457 OA
BRANCH  26  27
ATOM     27  C   UNL     1       6.979  -4.706  23.388  0.00  0.00    +0.339 C 
ATOM     28  O   UNL     1       6.449  -3.973  24.495  0.00  0.00    -0.331 OA
ATOM     29  C   UNL     1       5.470  -4.654  25.310  0.00  0.00    +0.179 C 
ATOM     30  C   UNL     1       4.285  -5.137  24.452  0.00  0.00    +0.177 C 
ATOM     31  C   UNL     1       4.780  -5.921  23.220  0.00  0.00    +0.180 C 
ATOM     32  C   UNL     1       5.825  -5.106  22.454  0.00  0.00    +0.214 C 
BRANCH  30  33
ATOM     33  O   UNL     1       3.531  -3.978  24.066  0.00  0.00    -0.386 OA
ATOM     34  H   UNL     1       2.634  -4.040  24.445  0.00  0.00    +0.210 HD
ENDBRANCH  30  33
BRANCH  31  35
ATOM     35  O   UNL     1       5.246  -7.210  23.626  0.00  0.00    -0.386 OA
ATOM     36  H   UNL     1       5.883  -7.138  24.357  0.00  0.00    +0.210 HD
ENDBRANCH  31  35
BRANCH  32  37
ATOM     37  O   UNL     1       5.192  -3.927  21.913  0.00  0.00    -0.383 OA
ATOM     38  H   UNL     1       5.445  -3.892  20.965  0.00  0.00    +0.210 HD
ENDBRANCH  32  37
BRANCH  29  39
ATOM     39  C   UNL     1       6.041  -5.779  26.197  0.00  0.00    +0.190 C 
BRANCH  39  40
ATOM     40  O   UNL     1       5.032  -6.733  26.519  0.00  0.00    -0.392 OA
ATOM     41  H   UNL     1       4.234  -6.494  26.013  0.00  0.00    +0.210 HD
ENDBRANCH  39  40
ENDBRANCH  29  39
ENDBRANCH  26  27
ENDBRANCH   5  26
TORSDOF 12
ENDMDL
MODEL 3
REMARK VINA RESULT:      -7.1      2.672     10.073
REMARK  Name = 
REMARK  12 active torsions:
REMARK  status: ('A' for Active; 'I' for Inactive)
REMARK    1  A    between atoms: C_3  and  O_22
REMARK    2  A    between atoms: C_4  and  O_21
REMARK    3  A    between atoms: C_6  and  C_7
REMARK    4  A    between atoms: C_8  and  O_20
REMARK    5  A    between atoms: C_12  and  O_19
REMARK    6  A    between atoms: C_14  and  O_18
REMARK    7  A    between atoms: O_22  and  C_23
REMARK    8  A    between atoms: C_25  and  O_38
REMARK    9  A    between atoms: C_27  and  O_37
REMARK   10  A    between atoms: C_29  and  O_36
REMARK   11  A    between atoms: C_31  and  C_34
REMARK   12  A    between atoms: C_34  and  O_35
REMARK                            x       y       z     vdW  Elec       q    Type
REMARK                         _______ _______ _______ _____ _____    ______ ____
ROOT
ATOM      1  C   UNL     1       7.483   0.215  23.107  0.00  0.00    +0.015 A 
ATOM      2  C   UNL     1       8.763   0.510  23.605  0.00  0.00    +0.025 A 
ATOM      3  C   UNL     1       9.632  -0.559  23.853  0.00  0.00    +0.060 A 
ATOM      4  C   UNL     1       9.201  -1.869  23.625  0.00  0.00    +0.159 A 
ATOM      5  C   UNL     1       7.910  -2.147  23.158  0.00  0.00    +0.165 A 
ATOM      6  C   UNL     1       7.038  -1.090  22.950  0.00  0.00    +0.050 A 
ENDROOT
BRANCH   2   7
ATOM      7  C   UNL     1       9.157   1.925  23.816  0.00  0.00    +0.181 A 
ATOM      8  O   UNL     1      10.447   2.221  23.367  0.00  0.00    -0.451 OA
ATOM      9  C   UNL     1      10.919   3.502  23.536  0.00  0.00    +0.147 A 
ATOM     10  C   UNL     1      10.111   4.547  23.978  0.00  0.00    +0.109 A 
ATOM     11  C   UNL     1      10.624   5.842  24.106  0.00  0.00    +0.135 A 
ATOM     12  C   UNL     1      11.955   6.091  23.810  0.00  0.00    +0.091 A 
ATOM     13  C   UNL     1      12.761   5.039  23.378  0.00  0.00    +0.124 A 
ATOM     14  C   UNL     1       8.727   4.258  24.348  0.00  0.00    +0.238 A 
ATOM     15  O   UNL     1       7.968   5.173  24.661  0.00  0.00    -0.283 OA
ATOM     16  C   UNL     1      12.254   3.748  23.228  0.00  0.00    +0.092 A 
ATOM     17  C   UNL     1       8.313   2.833  24.355  0.00  0.00    +0.208 A 
BRANCH  11  18
ATOM     18  O   UNL     1       9.872   6.906  24.531  0.00  0.00    -0.506 OA
ATOM     19  H   UNL     1      10.387   7.385  25.221  0.00  0.00    +0.292 HD
ENDBRANCH  11  18
BRANCH  13  20
ATOM     20  O   UNL     1      14.080   5.241  23.092  0.00  0.00    -0.507 OA
ATOM     21  H   UNL     1      14.259   6.197  23.107  0.00  0.00    +0.292 HD
ENDBRANCH  13  20
BRANCH  17  22
ATOM     22  O   UNL     1       7.083   2.565  24.914  0.00  0.00    -0.501 OA
ATOM     23  H   UNL     1       7.150   1.750  25.436  0.00  0.00    +0.292 HD
ENDBRANCH  17  22
ENDBRANCH   2   7
BRANCH   4  24
ATOM     24  O   UNL     1      10.091  -2.883  23.864  0.00  0.00    -0.503 OA
ATOM     25  H   UNL     1      10.396  -2.762  24.784  0.00  0.00    +0.292 HD
ENDBRANCH   4  24
BRANCH   5  26
ATOM     26  O   UNL     1       7.606  -3.455  22.905  0.00  0.00    -0.457 OA
BRANCH  26  27
ATOM     27  C   UNL     1       6.448  -4.002  23.585  0.00  0.00    +0.339 C 
ATOM     28  O   UNL     1       5.220  -3.691  22.923  0.00  0.00    -0.331 OA
ATOM     29  C   UNL     1       4.020  -4.266  23.487  0.00  0.00    +0.179 C 
ATOM     30  C   UNL     1       4.137  -5.799  23.573  0.00  0.00    +0.177 C 
ATOM     31  C   UNL     1       5.454  -6.215  24.257  0.00  0.00    +0.180 C 
ATOM     32  C   UNL     1       6.645  -5.527  23.586  0.00  0.00    +0.214 C 
BRANCH  30  33
ATOM     33  O   UNL     1       4.059  -6.314  22.234  0.00  0.00    -0.386 OA
ATOM     34  H   UNL     1       3.935  -7.281  22.271  0.00  0.00    +0.210 HD
ENDBRANCH  30  33
BRANCH  31  35
ATOM     35  O   UNL     1       5.366  -5.961  25.662  0.00  0.00    -0.386 OA
ATOM     36  H   UNL     1       5.580  -5.035  25.865  0.00  0.00    +0.210 HD
ENDBRANCH  31  35
BRANCH  32  37
ATOM     37  O   UNL     1       6.763  -6.014  22.232  0.00  0.00    -0.383 OA
ATOM     38  H   UNL     1       7.721  -6.161  22.077  0.00  0.00    +0.210 HD
ENDBRANCH  32  37
BRANCH  29  39
ATOM     39  C   UNL     1       3.575  -3.642  24.825  0.00  0.00    +0.190 C 
BRANCH  39  40
ATOM     40  O   UNL     1       2.707  -4.524  25.531  0.00  0.00    -0.392 OA
ATOM     41  H   UNL     1       2.960  -5.434  25.294  0.00  0.00    +0.210 HD
ENDBRANCH  39  40
ENDBRANCH  29  39
ENDBRANCH  26  27
ENDBRANCH   5  26
TORSDOF 12
ENDMDL
MODEL 4
REMARK VINA RESULT:      -7.1      1.613      9.314
REMARK  Name = 
REMARK  12 active torsions:
REMARK  status: ('A' for Active; 'I' for Inactive)
REMARK    1  A    between atoms: C_3  and  O_22
REMARK    2  A    between atoms: C_4  and  O_21
REMARK    3  A    between atoms: C_6  and  C_7
REMARK    4  A    between atoms: C_8  and  O_20
REMARK    5  A    between atoms: C_12  and  O_19
REMARK    6  A    between atoms: C_14  and  O_18
REMARK    7  A    between atoms: O_22  and  C_23
REMARK    8  A    between atoms: C_25  and  O_38
REMARK    9  A    between atoms: C_27  and  O_37
REMARK   10  A    between atoms: C_29  and  O_36
REMARK   11  A    between atoms: C_31  and  C_34
REMARK   12  A    between atoms: C_34  and  O_35
REMARK                            x       y       z     vdW  Elec       q    Type
REMARK                         _______ _______ _______ _____ _____    ______ ____
ROOT
ATOM      1  C   UNL     1       6.159  -3.921  22.822  0.00  0.00    +0.015 A 
ATOM      2  C   UNL     1       6.970  -3.350  23.817  0.00  0.00    +0.025 A 
ATOM      3  C   UNL     1       7.105  -4.039  25.028  0.00  0.00    +0.060 A 
ATOM      4  C   UNL     1       6.422  -5.244  25.219  0.00  0.00    +0.159 A 
ATOM      5  C   UNL     1       5.592  -5.783  24.228  0.00  0.00    +0.165 A 
ATOM      6  C   UNL     1       5.429  -5.080  23.045  0.00  0.00    +0.050 A 
ENDROOT
BRANCH   2   7
ATOM      7  C   UNL     1       7.672  -2.072  23.543  0.00  0.00    +0.181 A 
ATOM      8  O   UNL     1       6.810  -1.004  23.279  0.00  0.00    -0.451 OA
ATOM      9  C   UNL     1       7.361   0.223  22.988  0.00  0.00    +0.147 A 
ATOM     10  C   UNL     1       8.724   0.482  23.113  0.00  0.00    +0.109 A 
ATOM     11  C   UNL     1       9.238   1.753  22.838  0.00  0.00    +0.135 A 
ATOM     12  C   UNL     1       8.390   2.766  22.418  0.00  0.00    +0.091 A 
ATOM     13  C   UNL     1       7.028   2.498  22.286  0.00  0.00    +0.124 A 
ATOM     14  C   UNL     1       9.616  -0.612  23.494  0.00  0.00    +0.238 A 
ATOM     15  O   UNL     1      10.809  -0.394  23.693  0.00  0.00    -0.283 OA
ATOM     16  C   UNL     1       6.503   1.239  22.577  0.00  0.00    +0.092 A 
ATOM     17  C   UNL     1       9.020  -1.967  23.593  0.00  0.00    +0.208 A 
BRANCH  11  18
ATOM     18  O   UNL     1      10.568   2.063  22.949  0.00  0.00    -0.506 OA
ATOM     19  H   UNL     1      10.649   2.845  23.542  0.00  0.00    +0.292 HD
ENDBRANCH  11  18
BRANCH  13  20
ATOM     20  O   UNL     1       6.164   3.465  21.860  0.00  0.00    -0.507 OA
ATOM     21  H   UNL     1       5.512   3.631  22.562  0.00  0.00    +0.292 HD
ENDBRANCH  13  20
BRANCH  17  22
ATOM     22  O   UNL     1       9.909  -3.009  23.735  0.00  0.00    -0.501 OA
ATOM     23  H   UNL     1       9.413  -3.812  23.954  0.00  0.00    +0.292 HD
ENDBRANCH  17  22
ENDBRANCH   2   7
BRANCH   4  24
ATOM     24  O   UNL     1       6.598  -5.894  26.412  0.00  0.00    -0.503 OA
ATOM     25  H   UNL     1       7.251  -6.600  26.239  0.00  0.00    +0.292 HD
ENDBRANCH   4  24
BRANCH   5  26
ATOM     26  O   UNL     1       5.020  -6.997  24.485  0.00  0.00    -0.457 OA
BRANCH  26  27
ATOM     27  C   UNL     1       3.572  -7.051  24.484  0.00  0.00    +0.339 C 
ATOM     28  O   UNL     1       3.068  -8.387  24.413  0.00  0.00    -0.331 OA
ATOM     29  C   UNL     1       1.634  -8.541  24.490  0.00  0.00    +0.179 C 
ATOM     30  C   UNL     1       1.082  -7.895  25.775  0.00  0.00    +0.177 C 
ATOM     31  C   UNL     1       1.602  -6.452  25.934  0.00  0.00    +0.180 C 
ATOM     32  C   UNL     1       3.127  -6.419  25.813  0.00  0.00    +0.214 C 
BRANCH  30  33
ATOM     33  O   UNL     1       1.484  -8.719  26.880  0.00  0.00    -0.386 OA
ATOM     34  H   UNL     1       0.746  -8.784  27.514  0.00  0.00    +0.210 HD
ENDBRANCH  30  33
BRANCH  31  35
ATOM     35  O   UNL     1       0.937  -5.596  25.001  0.00  0.00    -0.386 OA
ATOM     36  H   UNL     1       0.106  -5.995  24.690  0.00  0.00    +0.210 HD
ENDBRANCH  31  35
BRANCH  32  37
ATOM     37  O   UNL     1       3.699  -7.142  26.924  0.00  0.00    -0.383 OA
ATOM     38  H   UNL     1       4.287  -7.824  26.532  0.00  0.00    +0.210 HD
ENDBRANCH  32  37
BRANCH  29  39
ATOM     39  C   UNL     1       0.869  -8.078  23.233  0.00  0.00    +0.190 C 
BRANCH  39  40
ATOM     40  O   UNL     1       1.556  -8.472  22.048  0.00  0.00    -0.392 OA
ATOM     41  H   UNL     1       2.491  -8.220  22.156  0.00  0.00    +0.210 HD
ENDBRANCH  39  40
ENDBRANCH  29  39
ENDBRANCH  26  27
ENDBRANCH   5  26
TORSDOF 12
ENDMDL
MODEL 5
REMARK VINA RESULT:      -7.0      2.343      9.451
REMARK  Name = 
REMARK  12 active torsions:
REMARK  status: ('A' for Active; 'I' for Inactive)
REMARK    1  A    between atoms: C_3  and  O_22
REMARK    2  A    between atoms: C_4  and  O_21
REMARK    3  A    between atoms: C_6  and  C_7
REMARK    4  A    between atoms: C_8  and  O_20
REMARK    5  A    between atoms: C_12  and  O_19
REMARK    6  A    between atoms: C_14  and  O_18
REMARK    7  A    between atoms: O_22  and  C_23
REMARK    8  A    between atoms: C_25  and  O_38
REMARK    9  A    between atoms: C_27  and  O_37
REMARK   10  A    between atoms: C_29  and  O_36
REMARK   11  A    between atoms: C_31  and  C_34
REMARK   12  A    between atoms: C_34  and  O_35
REMARK                            x       y       z     vdW  Elec       q    Type
REMARK                         _______ _______ _______ _____ _____    ______ ____
ROOT
ATOM      1  C   UNL     1       8.374  -1.263  25.613  0.00  0.00    +0.015 A 
ATOM      2  C   UNL     1       8.255  -0.864  24.270  0.00  0.00    +0.025 A 
ATOM      3  C   UNL     1       7.909  -1.836  23.325  0.00  0.00    +0.060 A 
ATOM      4  C   UNL     1       7.717  -3.160  23.732  0.00  0.00    +0.159 A 
ATOM      5  C   UNL     1       7.871  -3.547  25.070  0.00  0.00    +0.165 A 
ATOM      6  C   UNL     1       8.251  -2.591  25.997  0.00  0.00    +0.050 A 
ENDROOT
BRANCH   2   7
ATOM      7  C   UNL     1       8.465   0.560  23.911  0.00  0.00    +0.181 A 
ATOM      8  O   UNL     1       7.276   1.273  23.728  0.00  0.00    -0.451 OA
ATOM      9  C   UNL     1       7.359   2.599  23.368  0.00  0.00    +0.147 A 
ATOM     10  C   UNL     1       8.565   3.296  23.346  0.00  0.00    +0.109 A 
ATOM     11  C   UNL     1       8.600   4.652  23.006  0.00  0.00    +0.135 A 
ATOM     12  C   UNL     1       7.428   5.311  22.667  0.00  0.00    +0.091 A 
ATOM     13  C   UNL     1       6.226   4.605  22.682  0.00  0.00    +0.124 A 
ATOM     14  C   UNL     1       9.801   2.574  23.643  0.00  0.00    +0.238 A 
ATOM     15  O   UNL     1      10.868   3.180  23.713  0.00  0.00    -0.283 OA
ATOM     16  C   UNL     1       6.178   3.257  23.039  0.00  0.00    +0.092 A 
ATOM     17  C   UNL     1       9.699   1.104  23.817  0.00  0.00    +0.208 A 
BRANCH  11  18
ATOM     18  O   UNL     1       9.757   5.386  22.973  0.00  0.00    -0.506 OA
ATOM     19  H   UNL     1       9.868   5.737  22.059  0.00  0.00    +0.292 HD
ENDBRANCH  11  18
BRANCH  13  20
ATOM     20  O   UNL     1       5.054   5.215  22.340  0.00  0.00    -0.507 OA
ATOM     21  H   UNL     1       4.995   5.254  21.370  0.00  0.00    +0.292 HD
ENDBRANCH  13  20
BRANCH  17  22
ATOM     22  O   UNL     1      10.893   0.419  23.876  0.00  0.00    -0.501 OA
ATOM     23  H   UNL     1      11.553   0.983  24.307  0.00  0.00    +0.292 HD
ENDBRANCH  17  22
ENDBRANCH   2   7
BRANCH   4  24
ATOM     24  O   UNL     1       7.361  -4.075  22.777  0.00  0.00    -0.503 OA
ATOM     25  H   UNL     1       6.661  -4.624  23.179  0.00  0.00    +0.292 HD
ENDBRANCH   4  24
BRANCH   5  26
ATOM     26  O   UNL     1       7.598  -4.850  25.378  0.00  0.00    -0.457 OA
BRANCH  26  27
ATOM     27  C   UNL     1       6.339  -5.117  26.044  0.00  0.00    +0.339 C 
ATOM     28  O   UNL     1       5.817  -6.413  25.743  0.00  0.00    -0.331 OA
ATOM     29  C   UNL     1       4.605  -6.795  26.429  0.00  0.00    +0.179 C 
ATOM     30  C   UNL     1       4.788  -6.702  27.956  0.00  0.00    +0.177 C 
ATOM     31  C   UNL     1       5.373  -5.334  28.360  0.00  0.00    +0.180 C 
ATOM     32  C   UNL     1       6.638  -5.035  27.551  0.00  0.00    +0.214 C 
BRANCH  30  33
ATOM     33  O   UNL     1       5.654  -7.778  28.353  0.00  0.00    -0.386 OA
ATOM     34  H   UNL     1       5.136  -8.602  28.402  0.00  0.00    +0.210 HD
ENDBRANCH  30  33
BRANCH  31  35
ATOM     35  O   UNL     1       4.366  -4.327  28.237  0.00  0.00    -0.386 OA
ATOM     36  H   UNL     1       4.745  -3.486  27.928  0.00  0.00    +0.210 HD
ENDBRANCH  31  35
BRANCH  32  37
ATOM     37  O   UNL     1       7.658  -5.993  27.908  0.00  0.00    -0.383 OA
ATOM     38  H   UNL     1       8.407  -5.472  28.270  0.00  0.00    +0.210 HD
ENDBRANCH  32  37
BRANCH  29  39
ATOM     39  C   UNL     1       3.336  -6.060  25.952  0.00  0.00    +0.190 C 
BRANCH  39  40
ATOM     40  O   UNL     1       2.309  -6.128  26.939  0.00  0.00    -0.392 OA
ATOM     41  H   UNL     1       1.489  -5.798  26.529  0.00  0.00    +0.210 HD
ENDBRANCH  39  40
ENDBRANCH  29  39
ENDBRANCH  26  27
ENDBRANCH   5  26
TORSDOF 12
ENDMDL
MODEL 6
REMARK VINA RESULT:      -7.0      1.959      9.121
REMARK  Name = 
REMARK  12 active torsions:
REMARK  status: ('A' for Active; 'I' for Inactive)
REMARK    1  A    between atoms: C_3  and  O_22
REMARK    2  A    between atoms: C_4  and  O_21
REMARK    3  A    between atoms: C_6  and  C_7
REMARK    4  A    between atoms: C_8  and  O_20
REMARK    5  A    between atoms: C_12  and  O_19
REMARK    6  A    between atoms: C_14  and  O_18
REMARK    7  A    between atoms: O_22  and  C_23
REMARK    8  A    between atoms: C_25  and  O_38
REMARK    9  A    between atoms: C_27  and  O_37
REMARK   10  A    between atoms: C_29  and  O_36
REMARK   11  A    between atoms: C_31  and  C_34
REMARK   12  A    between atoms: C_34  and  O_35
REMARK                            x       y       z     vdW  Elec       q    Type
REMARK                         _______ _______ _______ _____ _____    ______ ____
ROOT
ATOM      1  C   UNL     1       8.545  -2.493  24.124  0.00  0.00    +0.015 A 
ATOM      2  C   UNL     1       7.888  -1.534  23.334  0.00  0.00    +0.025 A 
ATOM      3  C   UNL     1       6.790  -1.952  22.573  0.00  0.00    +0.060 A 
ATOM      4  C   UNL     1       6.400  -3.294  22.600  0.00  0.00    +0.159 A 
ATOM      5  C   UNL     1       7.085  -4.243  23.369  0.00  0.00    +0.165 A 
ATOM      6  C   UNL     1       8.195  -3.836  24.091  0.00  0.00    +0.050 A 
ENDROOT
BRANCH   2   7
ATOM      7  C   UNL     1       8.352  -0.125  23.360  0.00  0.00    +0.181 A 
ATOM      8  O   UNL     1       7.868   0.605  24.449  0.00  0.00    -0.451 OA
ATOM      9  C   UNL     1       8.220   1.931  24.554  0.00  0.00    +0.147 A 
ATOM     10  C   UNL     1       9.167   2.524  23.722  0.00  0.00    +0.109 A 
ATOM     11  C   UNL     1       9.519   3.867  23.884  0.00  0.00    +0.135 A 
ATOM     12  C   UNL     1       8.909   4.629  24.870  0.00  0.00    +0.091 A 
ATOM     13  C   UNL     1       7.956   4.032  25.693  0.00  0.00    +0.124 A 
ATOM     14  C   UNL     1       9.755   1.728  22.646  0.00  0.00    +0.238 A 
ATOM     15  O   UNL     1      10.652   2.199  21.950  0.00  0.00    -0.283 OA
ATOM     16  C   UNL     1       7.612   2.687  25.552  0.00  0.00    +0.092 A 
ATOM     17  C   UNL     1       9.198   0.370  22.428  0.00  0.00    +0.208 A 
BRANCH  11  18
ATOM     18  O   UNL     1      10.447   4.498  23.098  0.00  0.00    -0.506 OA
ATOM     19  H   UNL     1      11.184   4.800  23.679  0.00  0.00    +0.292 HD
ENDBRANCH  11  18
BRANCH  13  20
ATOM     20  O   UNL     1       7.322   4.752  26.664  0.00  0.00    -0.507 OA
ATOM     21  H   UNL     1       7.679   4.490  27.529  0.00  0.00    +0.292 HD
ENDBRANCH  13  20
BRANCH  17  22
ATOM     22  O   UNL     1       9.608  -0.274  21.282  0.00  0.00    -0.501 OA
ATOM     23  H   UNL     1       9.896   0.392  20.638  0.00  0.00    +0.292 HD
ENDBRANCH  17  22
ENDBRANCH   2   7
BRANCH   4  24
ATOM     24  O   UNL     1       5.308  -3.655  21.855  0.00  0.00    -0.503 OA
ATOM     25  H   UNL     1       5.284  -4.632  21.871  0.00  0.00    +0.292 HD
ENDBRANCH   4  24
BRANCH   5  26
ATOM     26  O   UNL     1       6.587  -5.516  23.380  0.00  0.00    -0.457 OA
BRANCH  26  27
ATOM     27  C   UNL     1       5.557  -5.808  24.357  0.00  0.00    +0.339 C 
ATOM     28  O   UNL     1       4.875  -4.636  24.809  0.00  0.00    -0.331 OA
ATOM     29  C   UNL     1       3.776  -4.843  25.725  0.00  0.00    +0.179 C 
ATOM     30  C   UNL     1       2.730  -5.796  25.117  0.00  0.00    +0.177 C 
ATOM     31  C   UNL     1       3.396  -7.080  24.583  0.00  0.00    +0.180 C 
ATOM     32  C   UNL     1       4.553  -6.729  23.645  0.00  0.00    +0.214 C 
BRANCH  30  33
ATOM     33  O   UNL     1       2.054  -5.083  24.068  0.00  0.00    -0.386 OA
ATOM     34  H   UNL     1       2.715  -4.751  23.432  0.00  0.00    +0.210 HD
ENDBRANCH  30  33
BRANCH  31  35
ATOM     35  O   UNL     1       3.782  -7.911  25.681  0.00  0.00    -0.386 OA
ATOM     36  H   UNL     1       3.110  -8.590  25.860  0.00  0.00    +0.210 HD
ENDBRANCH  31  35
BRANCH  32  37
ATOM     37  O   UNL     1       4.022  -6.075  22.473  0.00  0.00    -0.383 OA
ATOM     38  H   UNL     1       4.249  -5.124  22.565  0.00  0.00    +0.210 HD
ENDBRANCH  32  37
BRANCH  29  39
ATOM     39  C   UNL     1       4.195  -5.271  27.146  0.00  0.00    +0.190 C 
BRANCH  39  40
ATOM     40  O   UNL     1       3.112  -5.902  27.825  0.00  0.00    -0.392 OA
ATOM     41  H   UNL     1       2.421  -6.085  27.163  0.00  0.00    +0.210 HD
ENDBRANCH  39  40
ENDBRANCH  29  39
ENDBRANCH  26  27
ENDBRANCH   5  26
TORSDOF 12
ENDMDL
MODEL 7
REMARK VINA RESULT:      -6.9      2.605     10.021
REMARK  Name = 
REMARK  12 active torsions:
REMARK  status: ('A' for Active; 'I' for Inactive)
REMARK    1  A    between atoms: C_3  and  O_22
REMARK    2  A    between atoms: C_4  and  O_21
REMARK    3  A    between atoms: C_6  and  C_7
REMARK    4  A    between atoms: C_8  and  O_20
REMARK    5  A    between atoms: C_12  and  O_19
REMARK    6  A    between atoms: C_14  and  O_18
REMARK    7  A    between atoms: O_22  and  C_23
REMARK    8  A    between atoms: C_25  and  O_38
REMARK    9  A    between atoms: C_27  and  O_37
REMARK   10  A    between atoms: C_29  and  O_36
REMARK   11  A    between atoms: C_31  and  C_34
REMARK   12  A    between atoms: C_34  and  O_35
REMARK                            x       y       z     vdW  Elec       q    Type
REMARK                         _______ _______ _______ _____ _____    ______ ____
ROOT
ATOM      1  C   UNL     1       8.332  -0.366  23.123  0.00  0.00    +0.015 A 
ATOM      2  C   UNL     1       8.785   0.320  24.263  0.00  0.00    +0.025 A 
ATOM      3  C   UNL     1       8.967  -0.414  25.441  0.00  0.00    +0.060 A 
ATOM      4  C   UNL     1       8.673  -1.780  25.457  0.00  0.00    +0.159 A 
ATOM      5  C   UNL     1       8.192  -2.442  24.321  0.00  0.00    +0.165 A 
ATOM      6  C   UNL     1       7.976  -1.707  23.167  0.00  0.00    +0.050 A 
ENDROOT
BRANCH   2   7
ATOM      7  C   UNL     1       9.085   1.770  24.171  0.00  0.00    +0.181 A 
ATOM      8  O   UNL     1      10.395   2.048  23.772  0.00  0.00    -0.451 OA
ATOM      9  C   UNL     1      10.784   3.364  23.678  0.00  0.00    +0.147 A 
ATOM     10  C   UNL     1       9.885   4.422  23.797  0.00  0.00    +0.109 A 
ATOM     11  C   UNL     1      10.317   5.745  23.663  0.00  0.00    +0.135 A 
ATOM     12  C   UNL     1      11.657   6.015  23.427  0.00  0.00    +0.091 A 
ATOM     13  C   UNL     1      12.553   4.953  23.318  0.00  0.00    +0.124 A 
ATOM     14  C   UNL     1       8.488   4.126  24.109  0.00  0.00    +0.238 A 
ATOM     15  O   UNL     1       7.657   5.032  24.138  0.00  0.00    -0.283 OA
ATOM     16  C   UNL     1      12.128   3.628  23.431  0.00  0.00    +0.092 A 
ATOM     17  C   UNL     1       8.148   2.715  24.413  0.00  0.00    +0.208 A 
BRANCH  11  18
ATOM     18  O   UNL     1       9.475   6.821  23.766  0.00  0.00    -0.506 OA
ATOM     19  H   UNL     1       9.953   7.536  24.248  0.00  0.00    +0.292 HD
ENDBRANCH  11  18
BRANCH  13  20
ATOM     20  O   UNL     1      13.881   5.179  23.103  0.00  0.00    -0.507 OA
ATOM     21  H   UNL     1      14.278   5.515  23.924  0.00  0.00    +0.292 HD
ENDBRANCH  13  20
BRANCH  17  22
ATOM     22  O   UNL     1       6.885   2.493  24.916  0.00  0.00    -0.501 OA
ATOM     23  H   UNL     1       6.317   3.238  24.668  0.00  0.00    +0.292 HD
ENDBRANCH  17  22
ENDBRANCH   2   7
BRANCH   4  24
ATOM     24  O   UNL     1       8.883  -2.463  26.627  0.00  0.00    -0.503 OA
ATOM     25  H   UNL     1       9.771  -2.862  26.549  0.00  0.00    +0.292 HD
ENDBRANCH   4  24
BRANCH   5  26
ATOM     26  O   UNL     1       7.996  -3.791  24.420  0.00  0.00    -0.457 OA
BRANCH  26  27
ATOM     27  C   UNL     1       6.623  -4.256  24.422  0.00  0.00    +0.339 C 
ATOM     28  O   UNL     1       6.509  -5.646  24.109  0.00  0.00    -0.331 OA
ATOM     29  C   UNL     1       5.182  -6.214  24.168  0.00  0.00    +0.179 C 
ATOM     30  C   UNL     1       4.552  -5.987  25.556  0.00  0.00    +0.177 C 
ATOM     31  C   UNL     1       4.658  -4.507  25.975  0.00  0.00    +0.180 C 
ATOM     32  C   UNL     1       6.103  -4.020  25.849  0.00  0.00    +0.214 C 
BRANCH  30  33
ATOM     33  O   UNL     1       5.235  -6.843  26.485  0.00  0.00    -0.386 OA
ATOM     34  H   UNL     1       4.799  -7.716  26.495  0.00  0.00    +0.210 HD
ENDBRANCH  30  33
BRANCH  31  35
ATOM     35  O   UNL     1       3.724  -3.728  25.223  0.00  0.00    -0.386 OA
ATOM     36  H   UNL     1       4.094  -3.474  24.360  0.00  0.00    +0.210 HD
ENDBRANCH  31  35
BRANCH  32  37
ATOM     37  O   UNL     1       6.921  -4.732  26.802  0.00  0.00    -0.383 OA
ATOM     38  H   UNL     1       6.849  -4.238  27.647  0.00  0.00    +0.210 HD
ENDBRANCH  32  37
BRANCH  29  39
ATOM     39  C   UNL     1       4.243  -5.776  23.026  0.00  0.00    +0.190 C 
BRANCH  39  40
ATOM     40  O   UNL     1       4.866  -5.963  21.758  0.00  0.00    -0.392 OA
ATOM     41  H   UNL     1       4.552  -6.814  21.402  0.00  0.00    +0.210 HD
ENDBRANCH  39  40
ENDBRANCH  29  39
ENDBRANCH  26  27
ENDBRANCH   5  26
TORSDOF 12
ENDMDL
MODEL 8
REMARK VINA RESULT:      -6.8      2.393      9.115
REMARK  Name = 
REMARK  12 active torsions:
REMARK  status: ('A' for Active; 'I' for Inactive)
REMARK    1  A    between atoms: C_3  and  O_22
REMARK    2  A    between atoms: C_4  and  O_21
REMARK    3  A    between atoms: C_6  and  C_7
REMARK    4  A    between atoms: C_8  and  O_20
REMARK    5  A    between atoms: C_12  and  O_19
REMARK    6  A    between atoms: C_14  and  O_18
REMARK    7  A    between atoms: O_22  and  C_23
REMARK    8  A    between atoms: C_25  and  O_38
REMARK    9  A    between atoms: C_27  and  O_37
REMARK   10  A    between atoms: C_29  and  O_36
REMARK   11  A    between atoms: C_31  and  C_34
REMARK   12  A    between atoms: C_34  and  O_35
REMARK                            x       y       z     vdW  Elec       q    Type
REMARK                         _______ _______ _______ _____ _____    ______ ____
ROOT
ATOM      1  C   UNL     1       7.166  -0.831  22.877  0.00  0.00    +0.015 A 
ATOM      2  C   UNL     1       8.314  -0.474  23.605  0.00  0.00    +0.025 A 
ATOM      3  C   UNL     1       9.155  -1.501  24.048  0.00  0.00    +0.060 A 
ATOM      4  C   UNL     1       8.823  -2.833  23.779  0.00  0.00    +0.159 A 
ATOM      5  C   UNL     1       7.658  -3.172  23.079  0.00  0.00    +0.165 A 
ATOM      6  C   UNL     1       6.807  -2.156  22.675  0.00  0.00    +0.050 A 
ENDROOT
BRANCH   2   7
ATOM      7  C   UNL     1       8.609   0.960  23.847  0.00  0.00    +0.181 A 
ATOM      8  O   UNL     1       7.869   1.516  24.893  0.00  0.00    -0.451 OA
ATOM      9  C   UNL     1       8.050   2.848  25.185  0.00  0.00    +0.147 A 
ATOM     10  C   UNL     1       9.055   3.614  24.599  0.00  0.00    +0.109 A 
ATOM     11  C   UNL     1       9.224   4.958  24.948  0.00  0.00    +0.135 A 
ATOM     12  C   UNL     1       8.374   5.545  25.874  0.00  0.00    +0.091 A 
ATOM     13  C   UNL     1       7.365   4.775  26.450  0.00  0.00    +0.124 A 
ATOM     14  C   UNL     1       9.902   3.001  23.578  0.00  0.00    +0.238 A 
ATOM     15  O   UNL     1      10.848   3.627  23.104  0.00  0.00    -0.283 OA
ATOM     16  C   UNL     1       7.200   3.429  26.123  0.00  0.00    +0.092 A 
ATOM     17  C   UNL     1       9.544   1.632  23.136  0.00  0.00    +0.208 A 
BRANCH  11  18
ATOM     18  O   UNL     1      10.198   5.755  24.407  0.00  0.00    -0.506 OA
ATOM     19  H   UNL     1      10.637   6.242  25.143  0.00  0.00    +0.292 HD
ENDBRANCH  11  18
BRANCH  13  20
ATOM     20  O   UNL     1       6.499   5.321  27.352  0.00  0.00    -0.507 OA
ATOM     21  H   UNL     1       6.486   6.285  27.228  0.00  0.00    +0.292 HD
ENDBRANCH  13  20
BRANCH  17  22
ATOM     22  O   UNL     1      10.212   1.160  22.028  0.00  0.00    -0.501 OA
ATOM     23  H   UNL     1      11.162   1.143  22.222  0.00  0.00    +0.292 HD
ENDBRANCH  17  22
ENDBRANCH   2   7
BRANCH   4  24
ATOM     24  O   UNL     1       9.684  -3.805  24.215  0.00  0.00    -0.503 OA
ATOM     25  H   UNL     1       9.127  -4.573  24.446  0.00  0.00    +0.292 HD
ENDBRANCH   4  24
BRANCH   5  26
ATOM     26  O   UNL     1       7.455  -4.496  22.810  0.00  0.00    -0.457 OA
BRANCH  26  27
ATOM     27  C   UNL     1       6.513  -5.200  23.657  0.00  0.00    +0.339 C 
ATOM     28  O   UNL     1       6.051  -4.405  24.751  0.00  0.00    -0.331 OA
ATOM     29  C   UNL     1       5.045  -4.999  25.601  0.00  0.00    +0.179 C 
ATOM     30  C   UNL     1       3.817  -5.428  24.777  0.00  0.00    +0.177 C 
ATOM     31  C   UNL     1       4.238  -6.275  23.559  0.00  0.00    +0.180 C 
ATOM     32  C   UNL     1       5.318  -5.550  22.753  0.00  0.00    +0.214 C 
BRANCH  30  33
ATOM     33  O   UNL     1       3.131  -4.234  24.370  0.00  0.00    -0.386 OA
ATOM     34  H   UNL     1       2.242  -4.472  24.044  0.00  0.00    +0.210 HD
ENDBRANCH  30  33
BRANCH  31  35
ATOM     35  O   UNL     1       4.629  -7.580  23.994  0.00  0.00    -0.386 OA
ATOM     36  H   UNL     1       5.536  -7.787  23.712  0.00  0.00    +0.210 HD
ENDBRANCH  31  35
BRANCH  32  37
ATOM     37  O   UNL     1       4.752  -4.348  22.189  0.00  0.00    -0.383 OA
ATOM     38  H   UNL     1       4.095  -4.643  21.522  0.00  0.00    +0.210 HD
ENDBRANCH  32  37
BRANCH  29  39
ATOM     39  C   UNL     1       5.559  -6.133  26.510  0.00  0.00    +0.190 C 
BRANCH  39  40
ATOM     40  O   UNL     1       4.506  -7.034  26.842  0.00  0.00    -0.392 OA
ATOM     41  H   UNL     1       4.889  -7.929  26.880  0.00  0.00    +0.210 HD
ENDBRANCH  39  40
ENDBRANCH  29  39
ENDBRANCH  26  27
ENDBRANCH   5  26
TORSDOF 12
ENDMDL
MODEL 9
REMARK VINA RESULT:      -6.8      1.773      2.792
REMARK  Name = 
REMARK  12 active torsions:
REMARK  status: ('A' for Active; 'I' for Inactive)
REMARK    1  A    between atoms: C_3  and  O_22
REMARK    2  A    between atoms: C_4  and  O_21
REMARK    3  A    between atoms: C_6  and  C_7
REMARK    4  A    between atoms: C_8  and  O_20
REMARK    5  A    between atoms: C_12  and  O_19
REMARK    6  A    between atoms: C_14  and  O_18
REMARK    7  A    between atoms: O_22  and  C_23
REMARK    8  A    between atoms: C_25  and  O_38
REMARK    9  A    between atoms: C_27  and  O_37
REMARK   10  A    between atoms: C_29  and  O_36
REMARK   11  A    between atoms: C_31  and  C_34
REMARK   12  A    between atoms: C_34  and  O_35
REMARK                            x       y       z     vdW  Elec       q    Type
REMARK                         _______ _______ _______ _____ _____    ______ ____
ROOT
ATOM      1  C   UNL     1       7.468  -3.977  23.345  0.00  0.00    +0.015 A 
ATOM      2  C   UNL     1       6.943  -4.027  24.648  0.00  0.00    +0.025 A 
ATOM      3  C   UNL     1       7.501  -3.181  25.613  0.00  0.00    +0.060 A 
ATOM      4  C   UNL     1       8.565  -2.342  25.266  0.00  0.00    +0.159 A 
ATOM      5  C   UNL     1       9.097  -2.329  23.971  0.00  0.00    +0.165 A 
ATOM      6  C   UNL     1       8.568  -3.194  23.027  0.00  0.00    +0.050 A 
ENDROOT
BRANCH   2   7
ATOM      7  C   UNL     1       5.808  -4.936  24.944  0.00  0.00    +0.181 A 
ATOM      8  O   UNL     1       4.976  -5.171  23.845  0.00  0.00    -0.451 OA
ATOM      9  C   UNL     1       3.879  -5.982  24.019  0.00  0.00    +0.147 A 
ATOM     10  C   UNL     1       3.661  -6.709  25.187  0.00  0.00    +0.109 A 
ATOM     11  C   UNL     1       2.549  -7.548  25.310  0.00  0.00    +0.135 A 
ATOM     12  C   UNL     1       1.639  -7.648  24.267  0.00  0.00    +0.091 A 
ATOM     13  C   UNL     1       1.858  -6.911  23.104  0.00  0.00    +0.124 A 
ATOM     14  C   UNL     1       4.592  -6.545  26.302  0.00  0.00    +0.238 A 
ATOM     15  O   UNL     1       4.472  -7.234  27.313  0.00  0.00    -0.283 OA
ATOM     16  C   UNL     1       2.976  -6.087  22.965  0.00  0.00    +0.092 A 
ATOM     17  C   UNL     1       5.640  -5.505  26.159  0.00  0.00    +0.208 A 
BRANCH  11  18
ATOM     18  O   UNL     1       2.289  -8.287  26.434  0.00  0.00    -0.506 OA
ATOM     19  H   UNL     1       1.526  -7.873  26.900  0.00  0.00    +0.292 HD
ENDBRANCH  11  18
BRANCH  13  20
ATOM     20  O   UNL     1       0.979  -6.971  22.064  0.00  0.00    -0.507 OA
ATOM     21  H   UNL     1       0.600  -6.087  21.924  0.00  0.00    +0.292 HD
ENDBRANCH  13  20
BRANCH  17  22
ATOM     22  O   UNL     1       6.362  -5.216  27.296  0.00  0.00    -0.501 OA
ATOM     23  H   UNL     1       7.000  -4.515  27.088  0.00  0.00    +0.292 HD
ENDBRANCH  17  22
ENDBRANCH   2   7
BRANCH   4  24
ATOM     24  O   UNL     1       9.069  -1.518  26.237  0.00  0.00    -0.503 OA
ATOM     25  H   UNL     1       9.228  -2.086  27.015  0.00  0.00    +0.292 HD
ENDBRANCH   4  24
BRANCH   5  26
ATOM     26  O   UNL     1      10.092  -1.427  23.714  0.00  0.00    -0.457 OA
BRANCH  26  27
ATOM     27  C   UNL     1       9.683  -0.098  23.307  0.00  0.00    +0.339 C 
ATOM     28  O   UNL     1       8.349   0.219  23.712  0.00  0.00    -0.331 OA
ATOM     29  C   UNL     1       7.887   1.556  23.419  0.00  0.00    +0.179 C 
ATOM     30  C   UNL     1       8.830   2.607  24.034  0.00  0.00    +0.177 C 
ATOM     31  C   UNL     1      10.298   2.318  23.659  0.00  0.00    +0.180 C 
ATOM     32  C   UNL     1      10.659   0.870  23.997  0.00  0.00    +0.214 C 
BRANCH  30  33
ATOM     33  O   UNL     1       8.639   2.579  25.457  0.00  0.00    -0.386 OA
ATOM     34  H   UNL     1       8.954   3.420  25.837  0.00  0.00    +0.210 HD
ENDBRANCH  30  33
BRANCH  31  35
ATOM     35  O   UNL     1      10.519   2.657  22.288  0.00  0.00    -0.386 OA
ATOM     36  H   UNL     1      11.116   2.020  21.861  0.00  0.00    +0.210 HD
ENDBRANCH  31  35
BRANCH  32  37
ATOM     37  O   UNL     1      10.602   0.696  25.429  0.00  0.00    -0.383 OA
ATOM     38  H   UNL     1       9.742   0.263  25.618  0.00  0.00    +0.210 HD
ENDBRANCH  32  37
BRANCH  29  39
ATOM     39  C   UNL     1       7.608   1.828  21.927  0.00  0.00    +0.190 C 
BRANCH  39  40
ATOM     40  O   UNL     1       7.691   3.222  21.642  0.00  0.00    -0.392 OA
ATOM     41  H   UNL     1       8.277   3.622  22.310  0.00  0.00    +0.210 HD
ENDBRANCH  39  40
ENDBRANCH  29  39
ENDBRANCH  26  27
ENDBRANCH   5  26
TORSDOF 12
ENDMDL
