MODEL 1
REMARK VINA RESULT:      -6.9      0.000      0.000
REMARK  Name = 
REMARK  11 active torsions:
REMARK  status: ('A' for Active; 'I' for Inactive)
REMARK    1  A    between atoms: C_1  and  C_2
REMARK    2  A    between atoms: C_4  and  O_37
REMARK    3  A    between atoms: C_6  and  O_36
REMARK    4  A    between atoms: C_8  and  O_35
REMARK    5  A    between atoms: C_10  and  O_13
REMARK    6  A    between atoms: O_13  and  C_14
REMARK    7  A    between atoms: C_15  and  C_27
REMARK    8  A    between atoms: C_19  and  O_26
REMARK    9  A    between atoms: C_21  and  O_25
REMARK   10  A    between atoms: C_29  and  O_34
REMARK   11  A    between atoms: C_30  and  O_33
REMARK                            x       y       z     vdW  Elec       q    Type
REMARK                         _______ _______ _______ _____ _____    ______ ____
ROOT
ATOM      1  C   UNL     1       7.599  -1.987  24.067  0.00  0.00    +0.214 A 
ATOM      2  C   UNL     1       7.708  -3.193  23.179  0.00  0.00    +0.238 A 
ATOM      3  O   UNL     1       8.559  -3.226  22.297  0.00  0.00    -0.283 OA
ATOM      4  C   UNL     1       6.755  -4.303  23.389  0.00  0.00    +0.109 A 
ATOM      5  C   UNL     1       5.889  -4.204  24.475  0.00  0.00    +0.147 A 
ATOM      6  C   UNL     1       4.949  -5.214  24.724  0.00  0.00    +0.092 A 
ATOM      7  C   UNL     1       4.886  -6.318  23.880  0.00  0.00    +0.124 A 
ATOM      8  C   UNL     1       5.746  -6.439  22.798  0.00  0.00    +0.091 A 
ATOM      9  O   UNL     1       5.900  -3.153  25.355  0.00  0.00    -0.451 OA
ATOM     10  C   UNL     1       6.680  -5.432  22.548  0.00  0.00    +0.135 A 
ATOM     11  C   UNL     1       6.740  -2.049  25.128  0.00  0.00    +0.181 A 
ENDROOT
BRANCH  11  12
ATOM     12  C   UNL     1       6.523  -0.996  26.183  0.00  0.00    +0.025 A 
ATOM     13  C   UNL     1       5.278  -0.370  26.367  0.00  0.00    +0.015 A 
ATOM     14  C   UNL     1       5.005   0.423  27.494  0.00  0.00    +0.050 A 
ATOM     15  C   UNL     1       6.025   0.731  28.370  0.00  0.00    +0.158 A 
ATOM     16  C   UNL     1       7.311   0.270  28.123  0.00  0.00    +0.159 A 
ATOM     17  C   UNL     1       7.564  -0.602  27.053  0.00  0.00    +0.060 A 
BRANCH  15  18
ATOM     18  O   UNL     1       5.759   1.501  29.465  0.00  0.00    -0.503 OA
ATOM     19  H   UNL     1       6.336   2.284  29.370  0.00  0.00    +0.292 HD
ENDBRANCH  15  18
BRANCH  16  20
ATOM     20  O   UNL     1       8.299   0.694  28.969  0.00  0.00    -0.503 OA
ATOM     21  H   UNL     1       9.146   0.657  28.493  0.00  0.00    +0.292 HD
ENDBRANCH  16  20
ENDBRANCH  11  12
BRANCH   7  22
ATOM     22  O   UNL     1       3.988  -7.323  24.080  0.00  0.00    -0.507 OA
ATOM     23  H   UNL     1       4.456  -8.135  24.335  0.00  0.00    +0.292 HD
ENDBRANCH   7  22
BRANCH  10  24
ATOM     24  O   UNL     1       7.505  -5.578  21.465  0.00  0.00    -0.506 OA
ATOM     25  H   UNL     1       7.597  -4.742  20.981  0.00  0.00    +0.292 HD
ENDBRANCH  10  24
BRANCH   1  26
ATOM     26  O   UNL     1       8.443  -0.960  23.664  0.00  0.00    -0.453 OA
BRANCH  26  30
ATOM     27  C   UNL     1       7.014   2.769  25.022  0.00  0.00    +0.041 C 
ATOM     28  C   UNL     1       8.023   1.906  24.272  0.00  0.00    +0.150 C 
ATOM     29  O   UNL     1       7.243   1.029  23.468  0.00  0.00    -0.334 OA
ATOM     30  C   UNL     1       7.973   0.026  22.750  0.00  0.00    +0.339 C 
ATOM     31  C   UNL     1       9.080   0.656  21.882  0.00  0.00    +0.214 C 
ATOM     32  C   UNL     1       9.862   1.752  22.613  0.00  0.00    +0.180 C 
ATOM     33  C   UNL     1       8.931   2.722  23.353  0.00  0.00    +0.174 C 
BRANCH  31  34
ATOM     34  O   UNL     1       8.456   1.256  20.723  0.00  0.00    -0.383 OA
ATOM     35  H   UNL     1       8.993   2.054  20.535  0.00  0.00    +0.210 HD
ENDBRANCH  31  34
BRANCH  32  36
ATOM     36  O   UNL     1      10.620   2.500  21.638  0.00  0.00    -0.386 OA
ATOM     37  H   UNL     1      11.522   2.123  21.682  0.00  0.00    +0.210 HD
ENDBRANCH  32  36
BRANCH  33  38
ATOM     38  O   UNL     1       9.738   3.670  24.059  0.00  0.00    -0.387 OA
ATOM     39  H   UNL     1       9.965   3.273  24.919  0.00  0.00    +0.210 HD
ENDBRANCH  33  38
ENDBRANCH  26  30
ENDBRANCH   1  26
TORSDOF 10
ENDMDL
MODEL 2
REMARK VINA RESULT:      -6.5      2.164      6.969
REMARK  Name = 
REMARK  11 active torsions:
REMARK  status: ('A' for Active; 'I' for Inactive)
REMARK    1  A    between atoms: C_1  and  C_2
REMARK    2  A    between atoms: C_4  and  O_37
REMARK    3  A    between atoms: C_6  and  O_36
REMARK    4  A    between atoms: C_8  and  O_35
REMARK    5  A    between atoms: C_10  and  O_13
REMARK    6  A    between atoms: O_13  and  C_14
REMARK    7  A    between atoms: C_15  and  C_27
REMARK    8  A    between atoms: C_19  and  O_26
REMARK    9  A    between atoms: C_21  and  O_25
REMARK   10  A    between atoms: C_29  and  O_34
REMARK   11  A    between atoms: C_30  and  O_33
REMARK                            x       y       z     vdW  Elec       q    Type
REMARK                         _______ _______ _______ _____ _____    ______ ____
ROOT
ATOM      1  C   UNL     1       8.625  -2.092  23.201  0.00  0.00    +0.214 A 
ATOM      2  C   UNL     1       9.382  -0.808  23.021  0.00  0.00    +0.238 A 
ATOM      3  O   UNL     1      10.604  -0.801  23.115  0.00  0.00    -0.283 OA
ATOM      4  C   UNL     1       8.611   0.425  22.755  0.00  0.00    +0.109 A 
ATOM      5  C   UNL     1       7.236   0.293  22.576  0.00  0.00    +0.147 A 
ATOM      6  C   UNL     1       6.443   1.423  22.336  0.00  0.00    +0.092 A 
ATOM      7  C   UNL     1       7.036   2.680  22.276  0.00  0.00    +0.124 A 
ATOM      8  C   UNL     1       8.405   2.832  22.443  0.00  0.00    +0.091 A 
ATOM      9  O   UNL     1       6.585  -0.913  22.610  0.00  0.00    -0.451 OA
ATOM     10  C   UNL     1       9.195   1.706  22.685  0.00  0.00    +0.135 A 
ATOM     11  C   UNL     1       7.283  -2.086  22.942  0.00  0.00    +0.181 A 
ENDROOT
BRANCH  11  12
ATOM     12  C   UNL     1       6.345  -3.264  22.986  0.00  0.00    +0.025 A 
ATOM     13  C   UNL     1       5.076  -3.185  23.585  0.00  0.00    +0.015 A 
ATOM     14  C   UNL     1       4.110  -4.190  23.415  0.00  0.00    +0.050 A 
ATOM     15  C   UNL     1       4.457  -5.363  22.777  0.00  0.00    +0.158 A 
ATOM     16  C   UNL     1       5.757  -5.544  22.323  0.00  0.00    +0.159 A 
ATOM     17  C   UNL     1       6.694  -4.503  22.405  0.00  0.00    +0.060 A 
BRANCH  15  18
ATOM     18  O   UNL     1       3.519  -6.340  22.610  0.00  0.00    -0.503 OA
ATOM     19  H   UNL     1       3.945  -7.004  22.033  0.00  0.00    +0.292 HD
ENDBRANCH  15  18
BRANCH  16  20
ATOM     20  O   UNL     1       6.068  -6.767  21.792  0.00  0.00    -0.503 OA
ATOM     21  H   UNL     1       5.253  -7.293  21.738  0.00  0.00    +0.292 HD
ENDBRANCH  16  20
ENDBRANCH  11  12
BRANCH   7  22
ATOM     22  O   UNL     1       6.306   3.808  22.048  0.00  0.00    -0.507 OA
ATOM     23  H   UNL     1       5.770   4.014  22.830  0.00  0.00    +0.292 HD
ENDBRANCH   7  22
BRANCH  10  24
ATOM     24  O   UNL     1      10.541   1.893  22.857  0.00  0.00    -0.506 OA
ATOM     25  H   UNL     1      10.785   1.831  23.794  0.00  0.00    +0.292 HD
ENDBRANCH  10  24
BRANCH   1  26
ATOM     26  O   UNL     1       9.450  -3.137  23.598  0.00  0.00    -0.453 OA
BRANCH  26  30
ATOM     27  C   UNL     1       7.304  -1.090  26.598  0.00  0.00    +0.041 C 
ATOM     28  C   UNL     1       7.732  -2.366  25.882  0.00  0.00    +0.150 C 
ATOM     29  O   UNL     1       9.144  -2.261  25.736  0.00  0.00    -0.334 OA
ATOM     30  C   UNL     1       9.772  -3.301  24.976  0.00  0.00    +0.339 C 
ATOM     31  C   UNL     1       9.426  -4.692  25.541  0.00  0.00    +0.214 C 
ATOM     32  C   UNL     1       7.944  -4.839  25.903  0.00  0.00    +0.180 C 
ATOM     33  C   UNL     1       7.425  -3.627  26.688  0.00  0.00    +0.174 C 
BRANCH  31  34
ATOM     34  O   UNL     1      10.198  -4.892  26.748  0.00  0.00    -0.383 OA
ATOM     35  H   UNL     1      11.132  -4.890  26.450  0.00  0.00    +0.210 HD
ENDBRANCH  31  34
BRANCH  32  36
ATOM     36  O   UNL     1       7.789  -6.017  26.723  0.00  0.00    -0.386 OA
ATOM     37  H   UNL     1       7.313  -6.655  26.154  0.00  0.00    +0.210 HD
ENDBRANCH  32  36
BRANCH  33  38
ATOM     38  O   UNL     1       6.026  -3.813  26.929  0.00  0.00    -0.387 OA
ATOM     39  H   UNL     1       5.593  -3.901  26.061  0.00  0.00    +0.210 HD
ENDBRANCH  33  38
ENDBRANCH  26  30
ENDBRANCH   1  26
TORSDOF 10
ENDMDL
MODEL 3
REMARK VINA RESULT:      -6.4      2.355      3.470
REMARK  Name = 
REMARK  11 active torsions:
REMARK  status: ('A' for Active; 'I' for Inactive)
REMARK    1  A    between atoms: C_1  and  C_2
REMARK    2  A    between atoms: C_4  and  O_37
REMARK    3  A    between atoms: C_6  and  O_36
REMARK    4  A    between atoms: C_8  and  O_35
REMARK    5  A    between atoms: C_10  and  O_13
REMARK    6  A    between atoms: O_13  and  C_14
REMARK    7  A    between atoms: C_15  and  C_27
REMARK    8  A    between atoms: C_19  and  O_26
REMARK    9  A    between atoms: C_21  and  O_25
REMARK   10  A    between atoms: C_29  and  O_34
REMARK   11  A    between atoms: C_30  and  O_33
REMARK                            x       y       z     vdW  Elec       q    Type
REMARK                         _______ _______ _______ _____ _____    ______ ____
ROOT
ATOM      1  C   UNL     1       8.005  -1.324  24.581  0.00  0.00    +0.214 A 
ATOM      2  C   UNL     1       8.357  -2.783  24.558  0.00  0.00    +0.238 A 
ATOM      3  O   UNL     1       9.345  -3.183  25.165  0.00  0.00    -0.283 OA
ATOM      4  C   UNL     1       7.500  -3.696  23.772  0.00  0.00    +0.109 A 
ATOM      5  C   UNL     1       6.353  -3.156  23.196  0.00  0.00    +0.147 A 
ATOM      6  C   UNL     1       5.503  -3.961  22.425  0.00  0.00    +0.092 A 
ATOM      7  C   UNL     1       5.811  -5.305  22.239  0.00  0.00    +0.124 A 
ATOM      8  C   UNL     1       6.945  -5.863  22.811  0.00  0.00    +0.091 A 
ATOM      9  O   UNL     1       5.980  -1.845  23.345  0.00  0.00    -0.451 OA
ATOM     10  C   UNL     1       7.792  -5.061  23.576  0.00  0.00    +0.135 A 
ATOM     11  C   UNL     1       6.820  -0.942  24.019  0.00  0.00    +0.181 A 
ENDROOT
BRANCH  11  12
ATOM     12  C   UNL     1       6.234   0.445  23.990  0.00  0.00    +0.025 A 
ATOM     13  C   UNL     1       5.487   0.962  25.062  0.00  0.00    +0.015 A 
ATOM     14  C   UNL     1       5.152   2.324  25.146  0.00  0.00    +0.050 A 
ATOM     15  C   UNL     1       5.421   3.155  24.079  0.00  0.00    +0.158 A 
ATOM     16  C   UNL     1       6.005   2.639  22.930  0.00  0.00    +0.159 A 
ATOM     17  C   UNL     1       6.429   1.302  22.883  0.00  0.00    +0.060 A 
BRANCH  15  18
ATOM     18  O   UNL     1       5.097   4.479  24.161  0.00  0.00    -0.503 OA
ATOM     19  H   UNL     1       5.773   4.938  23.624  0.00  0.00    +0.292 HD
ENDBRANCH  15  18
BRANCH  16  20
ATOM     20  O   UNL     1       6.152   3.489  21.868  0.00  0.00    -0.503 OA
ATOM     21  H   UNL     1       5.369   3.406  21.299  0.00  0.00    +0.292 HD
ENDBRANCH  16  20
ENDBRANCH  11  12
BRANCH   7  22
ATOM     22  O   UNL     1       5.017  -6.126  21.495  0.00  0.00    -0.507 OA
ATOM     23  H   UNL     1       4.531  -6.730  22.081  0.00  0.00    +0.292 HD
ENDBRANCH   7  22
BRANCH  10  24
ATOM     24  O   UNL     1       8.908  -5.641  24.117  0.00  0.00    -0.506 OA
ATOM     25  H   UNL     1       9.189  -6.411  23.597  0.00  0.00    +0.292 HD
ENDBRANCH  10  24
BRANCH   1  26
ATOM     26  O   UNL     1       8.974  -0.560  25.221  0.00  0.00    -0.453 OA
BRANCH  26  30
ATOM     27  C   UNL     1       9.417  -0.753  21.031  0.00  0.00    +0.041 C 
ATOM     28  C   UNL     1       9.438   0.006  22.353  0.00  0.00    +0.150 C 
ATOM     29  O   UNL     1      10.184  -0.813  23.245  0.00  0.00    -0.334 OA
ATOM     30  C   UNL     1      10.242  -0.364  24.605  0.00  0.00    +0.339 C 
ATOM     31  C   UNL     1      10.766   1.083  24.692  0.00  0.00    +0.214 C 
ATOM     32  C   UNL     1      10.148   2.008  23.638  0.00  0.00    +0.180 C 
ATOM     33  C   UNL     1      10.137   1.361  22.246  0.00  0.00    +0.174 C 
BRANCH  31  34
ATOM     34  O   UNL     1      12.196   1.057  24.473  0.00  0.00    -0.383 OA
ATOM     35  H   UNL     1      12.302   1.129  23.501  0.00  0.00    +0.210 HD
ENDBRANCH  31  34
BRANCH  32  36
ATOM     36  O   UNL     1      10.932   3.217  23.574  0.00  0.00    -0.386 OA
ATOM     37  H   UNL     1      10.884   3.496  22.637  0.00  0.00    +0.210 HD
ENDBRANCH  32  36
BRANCH  33  38
ATOM     38  O   UNL     1       9.487   2.257  21.339  0.00  0.00    -0.387 OA
ATOM     39  H   UNL     1       8.882   2.811  21.863  0.00  0.00    +0.210 HD
ENDBRANCH  33  38
ENDBRANCH  26  30
ENDBRANCH   1  26
TORSDOF 10
ENDMDL
MODEL 4
REMARK VINA RESULT:      -6.4      2.021      7.814
REMARK  Name = 
REMARK  11 active torsions:
REMARK  status: ('A' for Active; 'I' for Inactive)
REMARK    1  A    between atoms: C_1  and  C_2
REMARK    2  A    between atoms: C_4  and  O_37
REMARK    3  A    between atoms: C_6  and  O_36
REMARK    4  A    between atoms: C_8  and  O_35
REMARK    5  A    between atoms: C_10  and  O_13
REMARK    6  A    between atoms: O_13  and  C_14
REMARK    7  A    between atoms: C_15  and  C_27
REMARK    8  A    between atoms: C_19  and  O_26
REMARK    9  A    between atoms: C_21  and  O_25
REMARK   10  A    between atoms: C_29  and  O_34
REMARK   11  A    between atoms: C_30  and  O_33
REMARK                            x       y       z     vdW  Elec       q    Type
REMARK                         _______ _______ _______ _____ _____    ______ ____
ROOT
ATOM      1  C   UNL     1       6.694  -1.302  24.918  0.00  0.00    +0.214 A 
ATOM      2  C   UNL     1       7.242   0.026  25.352  0.00  0.00    +0.238 A 
ATOM      3  O   UNL     1       6.915   0.497  26.436  0.00  0.00    -0.283 OA
ATOM      4  C   UNL     1       8.153   0.740  24.432  0.00  0.00    +0.109 A 
ATOM      5  C   UNL     1       8.532   0.078  23.267  0.00  0.00    +0.147 A 
ATOM      6  C   UNL     1       9.381   0.702  22.344  0.00  0.00    +0.092 A 
ATOM      7  C   UNL     1       9.845   1.989  22.596  0.00  0.00    +0.124 A 
ATOM      8  C   UNL     1       9.485   2.663  23.755  0.00  0.00    +0.091 A 
ATOM      9  O   UNL     1       8.124  -1.194  22.957  0.00  0.00    -0.451 OA
ATOM     10  C   UNL     1       8.638   2.042  24.673  0.00  0.00    +0.135 A 
ATOM     11  C   UNL     1       7.195  -1.859  23.775  0.00  0.00    +0.181 A 
ENDROOT
BRANCH  11  12
ATOM     12  C   UNL     1       6.848  -3.204  23.193  0.00  0.00    +0.025 A 
ATOM     13  C   UNL     1       7.834  -4.119  22.788  0.00  0.00    +0.015 A 
ATOM     14  C   UNL     1       7.528  -5.454  22.478  0.00  0.00    +0.050 A 
ATOM     15  C   UNL     1       6.207  -5.850  22.415  0.00  0.00    +0.158 A 
ATOM     16  C   UNL     1       5.198  -4.924  22.642  0.00  0.00    +0.159 A 
ATOM     17  C   UNL     1       5.504  -3.616  23.047  0.00  0.00    +0.060 A 
BRANCH  15  18
ATOM     18  O   UNL     1       5.909  -7.147  22.116  0.00  0.00    -0.503 OA
ATOM     19  H   UNL     1       6.353  -7.319  21.262  0.00  0.00    +0.292 HD
ENDBRANCH  15  18
BRANCH  16  20
ATOM     20  O   UNL     1       3.909  -5.350  22.464  0.00  0.00    -0.503 OA
ATOM     21  H   UNL     1       3.928  -6.294  22.232  0.00  0.00    +0.292 HD
ENDBRANCH  16  20
ENDBRANCH  11  12
BRANCH   7  22
ATOM     22  O   UNL     1      10.670   2.638  21.727  0.00  0.00    -0.507 OA
ATOM     23  H   UNL     1      10.843   2.074  20.956  0.00  0.00    +0.292 HD
ENDBRANCH   7  22
BRANCH  10  24
ATOM     24  O   UNL     1       8.294   2.739  25.801  0.00  0.00    -0.506 OA
ATOM     25  H   UNL     1       8.677   3.631  25.791  0.00  0.00    +0.292 HD
ENDBRANCH  10  24
BRANCH   1  26
ATOM     26  O   UNL     1       5.735  -1.788  25.798  0.00  0.00    -0.453 OA
BRANCH  26  30
ATOM     27  C   UNL     1       2.942  -3.021  28.707  0.00  0.00    +0.041 C 
ATOM     28  C   UNL     1       3.921  -3.308  27.575  0.00  0.00    +0.150 C 
ATOM     29  O   UNL     1       5.096  -2.572  27.897  0.00  0.00    -0.334 OA
ATOM     30  C   UNL     1       6.132  -2.586  26.908  0.00  0.00    +0.339 C 
ATOM     31  C   UNL     1       6.527  -4.028  26.535  0.00  0.00    +0.214 C 
ATOM     32  C   UNL     1       5.318  -4.950  26.345  0.00  0.00    +0.180 C 
ATOM     33  C   UNL     1       4.293  -4.787  27.475  0.00  0.00    +0.174 C 
BRANCH  31  34
ATOM     34  O   UNL     1       7.330  -4.567  27.611  0.00  0.00    -0.383 OA
ATOM     35  H   UNL     1       7.905  -3.825  27.890  0.00  0.00    +0.210 HD
ENDBRANCH  31  34
BRANCH  32  36
ATOM     36  O   UNL     1       5.782  -6.318  26.342  0.00  0.00    -0.386 OA
ATOM     37  H   UNL     1       5.325  -6.733  25.583  0.00  0.00    +0.210 HD
ENDBRANCH  32  36
BRANCH  33  38
ATOM     38  O   UNL     1       3.172  -5.629  27.190  0.00  0.00    -0.387 OA
ATOM     39  H   UNL     1       3.429  -6.216  26.456  0.00  0.00    +0.210 HD
ENDBRANCH  33  38
ENDBRANCH  26  30
ENDBRANCH   1  26
TORSDOF 10
ENDMDL
MODEL 5
REMARK VINA RESULT:      -6.4      2.852      5.223
REMARK  Name = 
REMARK  11 active torsions:
REMARK  status: ('A' for Active; 'I' for Inactive)
REMARK    1  A    between atoms: C_1  and  C_2
REMARK    2  A    between atoms: C_4  and  O_37
REMARK    3  A    between atoms: C_6  and  O_36
REMARK    4  A    between atoms: C_8  and  O_35
REMARK    5  A    between atoms: C_10  and  O_13
REMARK    6  A    between atoms: O_13  and  C_14
REMARK    7  A    between atoms: C_15  and  C_27
REMARK    8  A    between atoms: C_19  and  O_26
REMARK    9  A    between atoms: C_21  and  O_25
REMARK   10  A    between atoms: C_29  and  O_34
REMARK   11  A    between atoms: C_30  and  O_33
REMARK                            x       y       z     vdW  Elec       q    Type
REMARK                         _______ _______ _______ _____ _____    ______ ____
ROOT
ATOM      1  C   UNL     1       5.917  -0.581  24.996  0.00  0.00    +0.214 A 
ATOM      2  C   UNL     1       5.090  -1.545  25.797  0.00  0.00    +0.238 A 
ATOM      3  O   UNL     1       3.907  -1.303  26.011  0.00  0.00    -0.283 OA
ATOM      4  C   UNL     1       5.748  -2.758  26.326  0.00  0.00    +0.109 A 
ATOM      5  C   UNL     1       7.070  -2.983  25.950  0.00  0.00    +0.147 A 
ATOM      6  C   UNL     1       7.760  -4.106  26.427  0.00  0.00    +0.092 A 
ATOM      7  C   UNL     1       7.116  -4.996  27.280  0.00  0.00    +0.124 A 
ATOM      8  C   UNL     1       5.798  -4.794  27.661  0.00  0.00    +0.091 A 
ATOM      9  O   UNL     1       7.764  -2.156  25.104  0.00  0.00    -0.451 OA
ATOM     10  C   UNL     1       5.112  -3.674  27.187  0.00  0.00    +0.135 A 
ATOM     11  C   UNL     1       7.186  -0.957  24.655  0.00  0.00    +0.181 A 
ENDROOT
BRANCH  11  12
ATOM     12  C   UNL     1       8.162  -0.188  23.803  0.00  0.00    +0.025 A 
ATOM     13  C   UNL     1       8.042  -0.123  22.404  0.00  0.00    +0.015 A 
ATOM     14  C   UNL     1       8.792   0.781  21.635  0.00  0.00    +0.050 A 
ATOM     15  C   UNL     1       9.789   1.521  22.238  0.00  0.00    +0.158 A 
ATOM     16  C   UNL     1      10.050   1.354  23.592  0.00  0.00    +0.159 A 
ATOM     17  C   UNL     1       9.237   0.525  24.380  0.00  0.00    +0.060 A 
BRANCH  15  18
ATOM     18  O   UNL     1      10.517   2.401  21.492  0.00  0.00    -0.503 OA
ATOM     19  H   UNL     1      11.449   2.148  21.640  0.00  0.00    +0.292 HD
ENDBRANCH  15  18
BRANCH  16  20
ATOM     20  O   UNL     1      11.116   2.038  24.111  0.00  0.00    -0.503 OA
ATOM     21  H   UNL     1      11.822   2.055  23.443  0.00  0.00    +0.292 HD
ENDBRANCH  16  20
ENDBRANCH  11  12
BRANCH   7  22
ATOM     22  O   UNL     1       7.746  -6.100  27.773  0.00  0.00    -0.507 OA
ATOM     23  H   UNL     1       7.150  -6.576  28.374  0.00  0.00    +0.292 HD
ENDBRANCH   7  22
BRANCH  10  24
ATOM     24  O   UNL     1       3.815  -3.499  27.592  0.00  0.00    -0.506 OA
ATOM     25  H   UNL     1       3.287  -3.072  26.898  0.00  0.00    +0.292 HD
ENDBRANCH  10  24
BRANCH   1  26
ATOM     26  O   UNL     1       5.223   0.584  24.695  0.00  0.00    -0.453 OA
BRANCH  26  30
ATOM     27  C   UNL     1       6.896   3.832  22.588  0.00  0.00    +0.041 C 
ATOM     28  C   UNL     1       5.770   3.180  23.384  0.00  0.00    +0.150 C 
ATOM     29  O   UNL     1       6.402   2.585  24.512  0.00  0.00    -0.334 OA
ATOM     30  C   UNL     1       5.555   1.799  25.359  0.00  0.00    +0.339 C 
ATOM     31  C   UNL     1       4.334   2.609  25.834  0.00  0.00    +0.214 C 
ATOM     32  C   UNL     1       3.691   3.435  24.715  0.00  0.00    +0.180 C 
ATOM     33  C   UNL     1       4.740   4.190  23.887  0.00  0.00    +0.174 C 
BRANCH  31  34
ATOM     34  O   UNL     1       4.776   3.527  26.862  0.00  0.00    -0.383 OA
ATOM     35  H   UNL     1       5.620   3.149  27.188  0.00  0.00    +0.210 HD
ENDBRANCH  31  34
BRANCH  32  36
ATOM     36  O   UNL     1       2.799   4.400  25.313  0.00  0.00    -0.386 OA
ATOM     37  H   UNL     1       1.985   3.896  25.511  0.00  0.00    +0.210 HD
ENDBRANCH  32  36
BRANCH  33  38
ATOM     38  O   UNL     1       4.067   4.879  22.829  0.00  0.00    -0.387 OA
ATOM     39  H   UNL     1       3.325   5.368  23.228  0.00  0.00    +0.210 HD
ENDBRANCH  33  38
ENDBRANCH  26  30
ENDBRANCH   1  26
TORSDOF 10
ENDMDL
MODEL 6
REMARK VINA RESULT:      -6.3      2.215      2.553
REMARK  Name = 
REMARK  11 active torsions:
REMARK  status: ('A' for Active; 'I' for Inactive)
REMARK    1  A    between atoms: C_1  and  C_2
REMARK    2  A    between atoms: C_4  and  O_37
REMARK    3  A    between atoms: C_6  and  O_36
REMARK    4  A    between atoms: C_8  and  O_35
REMARK    5  A    between atoms: C_10  and  O_13
REMARK    6  A    between atoms: O_13  and  C_14
REMARK    7  A    between atoms: C_15  and  C_27
REMARK    8  A    between atoms: C_19  and  O_26
REMARK    9  A    between atoms: C_21  and  O_25
REMARK   10  A    between atoms: C_29  and  O_34
REMARK   11  A    between atoms: C_30  and  O_33
REMARK                            x       y       z     vdW  Elec       q    Type
REMARK                         _______ _______ _______ _____ _____    ______ ____
ROOT
ATOM      1  C   UNL     1       8.508  -0.286  25.581  0.00  0.00    +0.214 A 
ATOM      2  C   UNL     1       9.091  -1.618  25.205  0.00  0.00    +0.238 A 
ATOM      3  O   UNL     1      10.174  -1.670  24.633  0.00  0.00    -0.283 OA
ATOM      4  C   UNL     1       8.315  -2.835  25.524  0.00  0.00    +0.109 A 
ATOM      5  C   UNL     1       7.141  -2.670  26.255  0.00  0.00    +0.147 A 
ATOM      6  C   UNL     1       6.349  -3.780  26.579  0.00  0.00    +0.092 A 
ATOM      7  C   UNL     1       6.741  -5.049  26.166  0.00  0.00    +0.124 A 
ATOM      8  C   UNL     1       7.910  -5.235  25.443  0.00  0.00    +0.091 A 
ATOM      9  O   UNL     1       6.699  -1.453  26.706  0.00  0.00    -0.451 OA
ATOM     10  C   UNL     1       8.698  -4.129  25.118  0.00  0.00    +0.135 A 
ATOM     11  C   UNL     1       7.376  -0.276  26.346  0.00  0.00    +0.181 A 
ENDROOT
BRANCH  11  12
ATOM     12  C   UNL     1       6.663   0.932  26.896  0.00  0.00    +0.025 A 
ATOM     13  C   UNL     1       5.332   1.230  26.559  0.00  0.00    +0.015 A 
ATOM     14  C   UNL     1       4.590   2.203  27.250  0.00  0.00    +0.050 A 
ATOM     15  C   UNL     1       5.221   3.001  28.182  0.00  0.00    +0.158 A 
ATOM     16  C   UNL     1       6.581   2.847  28.416  0.00  0.00    +0.159 A 
ATOM     17  C   UNL     1       7.300   1.813  27.799  0.00  0.00    +0.060 A 
BRANCH  15  18
ATOM     18  O   UNL     1       4.501   3.945  28.855  0.00  0.00    -0.503 OA
ATOM     19  H   UNL     1       3.689   4.068  28.325  0.00  0.00    +0.292 HD
ENDBRANCH  15  18
BRANCH  16  20
ATOM     20  O   UNL     1       7.171   3.736  29.274  0.00  0.00    -0.503 OA
ATOM     21  H   UNL     1       8.122   3.765  29.077  0.00  0.00    +0.292 HD
ENDBRANCH  16  20
ENDBRANCH  11  12
BRANCH   7  22
ATOM     22  O   UNL     1       6.002  -6.157  26.453  0.00  0.00    -0.507 OA
ATOM     23  H   UNL     1       5.684  -6.110  27.369  0.00  0.00    +0.292 HD
ENDBRANCH   7  22
BRANCH  10  24
ATOM     24  O   UNL     1       9.840  -4.347  24.394  0.00  0.00    -0.506 OA
ATOM     25  H   UNL     1      10.343  -3.525  24.279  0.00  0.00    +0.292 HD
ENDBRANCH  10  24
BRANCH   1  26
ATOM     26  O   UNL     1       9.258   0.774  25.088  0.00  0.00    -0.453 OA
BRANCH  26  30
ATOM     27  C   UNL     1       7.089   4.389  24.965  0.00  0.00    +0.041 C 
ATOM     28  C   UNL     1       8.348   3.566  24.718  0.00  0.00    +0.150 C 
ATOM     29  O   UNL     1       7.902   2.377  24.077  0.00  0.00    -0.334 OA
ATOM     30  C   UNL     1       8.903   1.378  23.848  0.00  0.00    +0.339 C 
ATOM     31  C   UNL     1      10.098   1.954  23.065  0.00  0.00    +0.214 C 
ATOM     32  C   UNL     1      10.537   3.332  23.572  0.00  0.00    +0.180 C 
ATOM     33  C   UNL     1       9.341   4.268  23.793  0.00  0.00    +0.174 C 
BRANCH  31  34
ATOM     34  O   UNL     1       9.701   2.099  21.681  0.00  0.00    -0.383 OA
ATOM     35  H   UNL     1       8.956   2.736  21.699  0.00  0.00    +0.210 HD
ENDBRANCH  31  34
BRANCH  32  36
ATOM     36  O   UNL     1      11.408   3.927  22.586  0.00  0.00    -0.386 OA
ATOM     37  H   UNL     1      11.441   3.274  21.858  0.00  0.00    +0.210 HD
ENDBRANCH  32  36
BRANCH  33  38
ATOM     38  O   UNL     1       9.829   5.503  24.326  0.00  0.00    -0.387 OA
ATOM     39  H   UNL     1      10.236   5.995  23.590  0.00  0.00    +0.210 HD
ENDBRANCH  33  38
ENDBRANCH  26  30
ENDBRANCH   1  26
TORSDOF 10
ENDMDL
MODEL 7
REMARK VINA RESULT:      -6.3      1.729      6.541
REMARK  Name = 
REMARK  11 active torsions:
REMARK  status: ('A' for Active; 'I' for Inactive)
REMARK    1  A    between atoms: C_1  and  C_2
REMARK    2  A    between atoms: C_4  and  O_37
REMARK    3  A    between atoms: C_6  and  O_36
REMARK    4  A    between atoms: C_8  and  O_35
REMARK    5  A    between atoms: C_10  and  O_13
REMARK    6  A    between atoms: O_13  and  C_14
REMARK    7  A    between atoms: C_15  and  C_27
REMARK    8  A    between atoms: C_19  and  O_26
REMARK    9  A    between atoms: C_21  and  O_25
REMARK   10  A    between atoms: C_29  and  O_34
REMARK   11  A    between atoms: C_30  and  O_33
REMARK                            x       y       z     vdW  Elec       q    Type
REMARK                         _______ _______ _______ _____ _____    ______ ____
ROOT
ATOM      1  C   UNL     1       6.592  -1.517  24.023  0.00  0.00    +0.214 A 
ATOM      2  C   UNL     1       7.518  -1.227  22.878  0.00  0.00    +0.238 A 
ATOM      3  O   UNL     1       7.627  -2.033  21.961  0.00  0.00    -0.283 OA
ATOM      4  C   UNL     1       8.295   0.031  22.909  0.00  0.00    +0.109 A 
ATOM      5  C   UNL     1       8.031   0.919  23.949  0.00  0.00    +0.147 A 
ATOM      6  C   UNL     1       8.741   2.123  24.049  0.00  0.00    +0.092 A 
ATOM      7  C   UNL     1       9.714   2.427  23.102  0.00  0.00    +0.124 A 
ATOM      8  C   UNL     1       9.987   1.559  22.055  0.00  0.00    +0.091 A 
ATOM      9  O   UNL     1       7.080   0.692  24.911  0.00  0.00    -0.451 OA
ATOM     10  C   UNL     1       9.281   0.359  21.957  0.00  0.00    +0.135 A 
ATOM     11  C   UNL     1       6.388  -0.531  24.947  0.00  0.00    +0.181 A 
ENDROOT
BRANCH  11  12
ATOM     12  C   UNL     1       5.455  -0.574  26.129  0.00  0.00    +0.025 A 
ATOM     13  C   UNL     1       4.609   0.501  26.451  0.00  0.00    +0.015 A 
ATOM     14  C   UNL     1       3.572   0.375  27.391  0.00  0.00    +0.050 A 
ATOM     15  C   UNL     1       3.471  -0.781  28.138  0.00  0.00    +0.158 A 
ATOM     16  C   UNL     1       4.400  -1.798  27.966  0.00  0.00    +0.159 A 
ATOM     17  C   UNL     1       5.374  -1.714  26.960  0.00  0.00    +0.060 A 
BRANCH  15  18
ATOM     18  O   UNL     1       2.464  -0.904  29.050  0.00  0.00    -0.503 OA
ATOM     19  H   UNL     1       2.728  -1.654  29.619  0.00  0.00    +0.292 HD
ENDBRANCH  15  18
BRANCH  16  20
ATOM     20  O   UNL     1       4.310  -2.874  28.807  0.00  0.00    -0.503 OA
ATOM     21  H   UNL     1       5.197  -3.065  29.155  0.00  0.00    +0.292 HD
ENDBRANCH  16  20
ENDBRANCH  11  12
BRANCH   7  22
ATOM     22  O   UNL     1      10.433   3.583  23.159  0.00  0.00    -0.507 OA
ATOM     23  H   UNL     1      11.114   3.512  23.848  0.00  0.00    +0.292 HD
ENDBRANCH   7  22
BRANCH  10  24
ATOM     24  O   UNL     1       9.584  -0.479  20.917  0.00  0.00    -0.506 OA
ATOM     25  H   UNL     1       8.827  -0.579  20.318  0.00  0.00    +0.292 HD
ENDBRANCH  10  24
BRANCH   1  26
ATOM     26  O   UNL     1       6.046  -2.792  23.947  0.00  0.00    -0.453 OA
BRANCH  26  30
ATOM     27  C   UNL     1       4.554  -5.810  26.488  0.00  0.00    +0.041 C 
ATOM     28  C   UNL     1       5.046  -5.312  25.134  0.00  0.00    +0.150 C 
ATOM     29  O   UNL     1       6.246  -4.597  25.408  0.00  0.00    -0.334 OA
ATOM     30  C   UNL     1       6.839  -3.924  24.291  0.00  0.00    +0.339 C 
ATOM     31  C   UNL     1       7.088  -4.895  23.121  0.00  0.00    +0.214 C 
ATOM     32  C   UNL     1       5.909  -5.840  22.867  0.00  0.00    +0.180 C 
ATOM     33  C   UNL     1       5.375  -6.451  24.170  0.00  0.00    +0.174 C 
BRANCH  31  34
ATOM     34  O   UNL     1       8.241  -5.706  23.447  0.00  0.00    -0.383 OA
ATOM     35  H   UNL     1       8.060  -6.576  23.034  0.00  0.00    +0.210 HD
ENDBRANCH  31  34
BRANCH  32  36
ATOM     36  O   UNL     1       6.357  -6.911  22.009  0.00  0.00    -0.386 OA
ATOM     37  H   UNL     1       7.025  -7.390  22.538  0.00  0.00    +0.210 HD
ENDBRANCH  32  36
BRANCH  33  38
ATOM     38  O   UNL     1       4.240  -7.264  23.853  0.00  0.00    -0.387 OA
ATOM     39  H   UNL     1       4.224  -7.999  24.492  0.00  0.00    +0.210 HD
ENDBRANCH  33  38
ENDBRANCH  26  30
ENDBRANCH   1  26
TORSDOF 10
ENDMDL
MODEL 8
REMARK VINA RESULT:      -6.3      1.644      6.250
REMARK  Name = 
REMARK  11 active torsions:
REMARK  status: ('A' for Active; 'I' for Inactive)
REMARK    1  A    between atoms: C_1  and  C_2
REMARK    2  A    between atoms: C_4  and  O_37
REMARK    3  A    between atoms: C_6  and  O_36
REMARK    4  A    between atoms: C_8  and  O_35
REMARK    5  A    between atoms: C_10  and  O_13
REMARK    6  A    between atoms: O_13  and  C_14
REMARK    7  A    between atoms: C_15  and  C_27
REMARK    8  A    between atoms: C_19  and  O_26
REMARK    9  A    between atoms: C_21  and  O_25
REMARK   10  A    between atoms: C_29  and  O_34
REMARK   11  A    between atoms: C_30  and  O_33
REMARK                            x       y       z     vdW  Elec       q    Type
REMARK                         _______ _______ _______ _____ _____    ______ ____
ROOT
ATOM      1  C   UNL     1       6.721  -0.759  24.506  0.00  0.00    +0.214 A 
ATOM      2  C   UNL     1       7.545  -0.630  23.257  0.00  0.00    +0.238 A 
ATOM      3  O   UNL     1       7.441  -1.467  22.368  0.00  0.00    -0.283 OA
ATOM      4  C   UNL     1       8.482   0.509  23.154  0.00  0.00    +0.109 A 
ATOM      5  C   UNL     1       8.456   1.452  24.179  0.00  0.00    +0.147 A 
ATOM      6  C   UNL     1       9.329   2.548  24.152  0.00  0.00    +0.092 A 
ATOM      7  C   UNL     1      10.222   2.691  23.096  0.00  0.00    +0.124 A 
ATOM      8  C   UNL     1      10.258   1.767  22.062  0.00  0.00    +0.091 A 
ATOM      9  O   UNL     1       7.597   1.383  25.245  0.00  0.00    -0.451 OA
ATOM     10  C   UNL     1       9.391   0.673  22.089  0.00  0.00    +0.135 A 
ATOM     11  C   UNL     1       6.755   0.269  25.405  0.00  0.00    +0.181 A 
ENDROOT
BRANCH  11  12
ATOM     12  C   UNL     1       5.962   0.387  26.680  0.00  0.00    +0.025 A 
ATOM     13  C   UNL     1       6.580   0.577  27.928  0.00  0.00    +0.015 A 
ATOM     14  C   UNL     1       5.848   0.930  29.074  0.00  0.00    +0.050 A 
ATOM     15  C   UNL     1       4.469   0.940  29.021  0.00  0.00    +0.158 A 
ATOM     16  C   UNL     1       3.820   0.587  27.845  0.00  0.00    +0.159 A 
ATOM     17  C   UNL     1       4.550   0.330  26.675  0.00  0.00    +0.060 A 
BRANCH  15  18
ATOM     18  O   UNL     1       3.757   1.284  30.133  0.00  0.00    -0.503 OA
ATOM     19  H   UNL     1       4.413   1.299  30.859  0.00  0.00    +0.292 HD
ENDBRANCH  15  18
BRANCH  16  20
ATOM     20  O   UNL     1       2.454   0.515  27.884  0.00  0.00    -0.503 OA
ATOM     21  H   UNL     1       2.105   0.876  27.053  0.00  0.00    +0.292 HD
ENDBRANCH  16  20
ENDBRANCH  11  12
BRANCH   7  22
ATOM     22  O   UNL     1      11.092   3.738  23.028  0.00  0.00    -0.507 OA
ATOM     23  H   UNL     1      11.034   4.265  23.841  0.00  0.00    +0.292 HD
ENDBRANCH   7  22
BRANCH  10  24
ATOM     24  O   UNL     1       9.460  -0.226  21.059  0.00  0.00    -0.506 OA
ATOM     25  H   UNL     1       9.120   0.160  20.236  0.00  0.00    +0.292 HD
ENDBRANCH  10  24
BRANCH   1  26
ATOM     26  O   UNL     1       6.004  -1.949  24.541  0.00  0.00    -0.453 OA
BRANCH  26  30
ATOM     27  C   UNL     1       5.267  -5.991  23.590  0.00  0.00    +0.041 C 
ATOM     28  C   UNL     1       6.207  -4.814  23.830  0.00  0.00    +0.150 C 
ATOM     29  O   UNL     1       5.754  -4.212  25.038  0.00  0.00    -0.334 OA
ATOM     30  C   UNL     1       6.413  -2.997  25.414  0.00  0.00    +0.339 C 
ATOM     31  C   UNL     1       7.940  -3.191  25.489  0.00  0.00    +0.214 C 
ATOM     32  C   UNL     1       8.500  -3.996  24.312  0.00  0.00    +0.180 C 
ATOM     33  C   UNL     1       7.659  -5.247  24.024  0.00  0.00    +0.174 C 
BRANCH  31  34
ATOM     34  O   UNL     1       8.242  -3.916  26.704  0.00  0.00    -0.383 OA
ATOM     35  H   UNL     1       8.063  -3.279  27.427  0.00  0.00    +0.210 HD
ENDBRANCH  31  34
BRANCH  32  36
ATOM     36  O   UNL     1       9.843  -4.413  24.640  0.00  0.00    -0.386 OA
ATOM     37  H   UNL     1      10.297  -4.488  23.776  0.00  0.00    +0.210 HD
ENDBRANCH  32  36
BRANCH  33  38
ATOM     38  O   UNL     1       8.207  -5.904  22.877  0.00  0.00    -0.387 OA
ATOM     39  H   UNL     1       7.853  -6.812  22.866  0.00  0.00    +0.210 HD
ENDBRANCH  33  38
ENDBRANCH  26  30
ENDBRANCH   1  26
TORSDOF 10
ENDMDL
MODEL 9
REMARK VINA RESULT:      -6.1      2.913      8.107
REMARK  Name = 
REMARK  11 active torsions:
REMARK  status: ('A' for Active; 'I' for Inactive)
REMARK    1  A    between atoms: C_1  and  C_2
REMARK    2  A    between atoms: C_4  and  O_37
REMARK    3  A    between atoms: C_6  and  O_36
REMARK    4  A    between atoms: C_8  and  O_35
REMARK    5  A    between atoms: C_10  and  O_13
REMARK    6  A    between atoms: O_13  and  C_14
REMARK    7  A    between atoms: C_15  and  C_27
REMARK    8  A    between atoms: C_19  and  O_26
REMARK    9  A    between atoms: C_21  and  O_25
REMARK   10  A    between atoms: C_29  and  O_34
REMARK   11  A    between atoms: C_30  and  O_33
REMARK                            x       y       z     vdW  Elec       q    Type
REMARK                         _______ _______ _______ _____ _____    ______ ____
ROOT
ATOM      1  C   UNL     1       5.753  -3.205  25.796  0.00  0.00    +0.214 A 
ATOM      2  C   UNL     1       6.889  -2.254  26.040  0.00  0.00    +0.238 A 
ATOM      3  O   UNL     1       6.965  -1.655  27.107  0.00  0.00    -0.283 OA
ATOM      4  C   UNL     1       7.878  -2.056  24.960  0.00  0.00    +0.109 A 
ATOM      5  C   UNL     1       7.752  -2.853  23.824  0.00  0.00    +0.147 A 
ATOM      6  C   UNL     1       8.646  -2.707  22.755  0.00  0.00    +0.092 A 
ATOM      7  C   UNL     1       9.663  -1.761  22.833  0.00  0.00    +0.124 A 
ATOM      8  C   UNL     1       9.810  -0.963  23.959  0.00  0.00    +0.091 A 
ATOM      9  O   UNL     1       6.783  -3.812  23.681  0.00  0.00    -0.451 OA
ATOM     10  C   UNL     1       8.918  -1.107  25.022  0.00  0.00    +0.135 A 
ATOM     11  C   UNL     1       5.785  -3.962  24.659  0.00  0.00    +0.181 A 
ENDROOT
BRANCH  11  12
ATOM     12  C   UNL     1       4.797  -5.023  24.247  0.00  0.00    +0.025 A 
ATOM     13  C   UNL     1       5.003  -6.384  24.528  0.00  0.00    +0.015 A 
ATOM     14  C   UNL     1       3.985  -7.338  24.369  0.00  0.00    +0.050 A 
ATOM     15  C   UNL     1       2.797  -6.969  23.773  0.00  0.00    +0.158 A 
ATOM     16  C   UNL     1       2.624  -5.666  23.324  0.00  0.00    +0.159 A 
ATOM     17  C   UNL     1       3.601  -4.690  23.572  0.00  0.00    +0.060 A 
BRANCH  15  18
ATOM     18  O   UNL     1       1.806  -7.895  23.619  0.00  0.00    -0.503 OA
ATOM     19  H   UNL     1       2.062  -8.409  22.828  0.00  0.00    +0.292 HD
ENDBRANCH  15  18
BRANCH  16  20
ATOM     20  O   UNL     1       1.467  -5.386  22.649  0.00  0.00    -0.503 OA
ATOM     21  H   UNL     1       0.971  -4.722  23.156  0.00  0.00    +0.292 HD
ENDBRANCH  16  20
ENDBRANCH  11  12
BRANCH   7  22
ATOM     22  O   UNL     1      10.554  -1.580  21.818  0.00  0.00    -0.507 OA
ATOM     23  H   UNL     1      11.403  -1.277  22.178  0.00  0.00    +0.292 HD
ENDBRANCH   7  22
BRANCH  10  24
ATOM     24  O   UNL     1       9.086  -0.296  26.113  0.00  0.00    -0.506 OA
ATOM     25  H   UNL     1       9.428   0.574  25.852  0.00  0.00    +0.292 HD
ENDBRANCH  10  24
BRANCH   1  26
ATOM     26  O   UNL     1       4.816  -3.179  26.822  0.00  0.00    -0.453 OA
BRANCH  26  30
ATOM     27  C   UNL     1       1.805  -4.229  29.582  0.00  0.00    +0.041 C 
ATOM     28  C   UNL     1       2.944  -4.584  28.633  0.00  0.00    +0.150 C 
ATOM     29  O   UNL     1       3.993  -3.674  28.945  0.00  0.00    -0.334 OA
ATOM     30  C   UNL     1       5.143  -3.731  28.093  0.00  0.00    +0.339 C 
ATOM     31  C   UNL     1       5.718  -5.159  28.029  0.00  0.00    +0.214 C 
ATOM     32  C   UNL     1       4.637  -6.234  27.876  0.00  0.00    +0.180 C 
ATOM     33  C   UNL     1       3.465  -6.005  28.840  0.00  0.00    +0.174 C 
BRANCH  31  34
ATOM     34  O   UNL     1       6.425  -5.415  29.265  0.00  0.00    -0.383 OA
ATOM     35  H   UNL     1       6.187  -4.666  29.850  0.00  0.00    +0.210 HD
ENDBRANCH  31  34
BRANCH  32  36
ATOM     36  O   UNL     1       5.225  -7.520  28.167  0.00  0.00    -0.386 OA
ATOM     37  H   UNL     1       5.977  -7.595  27.546  0.00  0.00    +0.210 HD
ENDBRANCH  32  36
BRANCH  33  38
ATOM     38  O   UNL     1       2.475  -7.008  28.589  0.00  0.00    -0.387 OA
ATOM     39  H   UNL     1       1.850  -6.641  27.938  0.00  0.00    +0.210 HD
ENDBRANCH  33  38
ENDBRANCH  26  30
ENDBRANCH   1  26
TORSDOF 10
ENDMDL
