MODEL 1
REMARK VINA RESULT:      -7.2      0.000      0.000
REMARK  Name = 
REMARK  16 active torsions:
REMARK  status: ('A' for Active; 'I' for Inactive)
REMARK    1  A    between atoms: C_2  and  O_47
REMARK    2  A    between atoms: C_4  and  O_46
REMARK    3  A    between atoms: C_6  and  O_45
REMARK    4  A    between atoms: C_7  and  O_10
REMARK    5  A    between atoms: O_10  and  C_11
REMARK    6  A    between atoms: C_13  and  O_44
REMARK    7  A    between atoms: C_18  and  C_36
REMARK    8  A    between atoms: C_19  and  O_22
REMARK    9  A    between atoms: O_22  and  C_23
REMARK   10  A    between atoms: C_25  and  O_35
REMARK   11  A    between atoms: C_26  and  O_34
REMARK   12  A    between atoms: C_27  and  O_33
REMARK   13  A    between atoms: C_29  and  C_31
REMARK   14  A    between atoms: C_31  and  O_32
REMARK   15  A    between atoms: C_38  and  O_43
REMARK   16  A    between atoms: C_39  and  O_42
REMARK                            x       y       z     vdW  Elec       q    Type
REMARK                         _______ _______ _______ _____ _____    ______ ____
ROOT
ATOM      1  C   UNL     1       9.932  -0.470  23.965  0.00  0.00    +0.131 A 
ATOM      2  C   UNL     1       9.368  -1.153  25.042  0.00  0.00    +0.093 A 
ATOM      3  C   UNL     1       8.538  -2.258  24.805  0.00  0.00    +0.147 A 
ATOM      4  O   UNL     1       8.058  -2.933  25.901  0.00  0.00    -0.451 OA
ATOM      5  C   UNL     1       7.049  -3.876  25.716  0.00  0.00    +0.181 A 
ATOM      6  C   UNL     1       6.634  -4.311  24.504  0.00  0.00    +0.214 A 
ATOM      7  C   UNL     1       7.465  -3.893  23.338  0.00  0.00    +0.238 A 
ATOM      8  O   UNL     1       7.576  -4.593  22.339  0.00  0.00    -0.283 OA
ATOM      9  C   UNL     1       8.259  -2.666  23.504  0.00  0.00    +0.109 A 
ATOM     10  C   UNL     1       8.780  -1.942  22.428  0.00  0.00    +0.135 A 
ATOM     11  C   UNL     1       9.610  -0.847  22.659  0.00  0.00    +0.092 A 
ENDROOT
BRANCH   5  12
ATOM     12  C   UNL     1       6.500  -4.385  27.009  0.00  0.00    +0.025 A 
ATOM     13  C   UNL     1       6.955  -5.610  27.535  0.00  0.00    +0.015 A 
ATOM     14  C   UNL     1       6.399  -6.156  28.699  0.00  0.00    +0.050 A 
ATOM     15  C   UNL     1       5.386  -5.477  29.352  0.00  0.00    +0.158 A 
ATOM     16  C   UNL     1       4.913  -4.267  28.851  0.00  0.00    +0.159 A 
ATOM     17  C   UNL     1       5.447  -3.728  27.682  0.00  0.00    +0.060 A 
BRANCH  16  18
ATOM     18  O   UNL     1       3.910  -3.650  29.549  0.00  0.00    -0.503 OA
ATOM     19  H   UNL     1       3.901  -2.706  29.318  0.00  0.00    +0.292 HD
ENDBRANCH  16  18
BRANCH  15  20
ATOM     20  O   UNL     1       4.844  -6.011  30.484  0.00  0.00    -0.503 OA
ATOM     21  H   UNL     1       5.318  -6.857  30.613  0.00  0.00    +0.292 HD
ENDBRANCH  15  20
ENDBRANCH   5  12
BRANCH  10  22
ATOM     22  O   UNL     1       8.469  -2.281  21.143  0.00  0.00    -0.506 OA
ATOM     23  H   UNL     1       7.615  -1.893  20.889  0.00  0.00    +0.292 HD
ENDBRANCH  10  22
BRANCH   6  24
ATOM     24  O   UNL     1       5.524  -5.124  24.382  0.00  0.00    -0.453 OA
BRANCH  24  25
ATOM     25  C   UNL     1       4.286  -4.626  23.847  0.00  0.00    +0.340 C 
ATOM     26  O   UNL     1       3.385  -4.082  24.817  0.00  0.00    -0.331 OA
ATOM     27  C   UNL     1       2.846  -4.982  25.788  0.00  0.00    +0.179 C 
ATOM     28  C   UNL     1       2.257  -6.259  25.160  0.00  0.00    +0.177 C 
ATOM     29  C   UNL     1       3.266  -6.873  24.186  0.00  0.00    +0.180 C 
ATOM     30  C   UNL     1       3.612  -5.815  23.129  0.00  0.00    +0.214 C 
BRANCH  30  31
ATOM     31  O   UNL     1       4.443  -6.368  22.101  0.00  0.00    -0.383 OA
ATOM     32  H   UNL     1       4.660  -7.277  22.374  0.00  0.00    +0.210 HD
ENDBRANCH  30  31
BRANCH  29  33
ATOM     33  O   UNL     1       2.753  -8.066  23.595  0.00  0.00    -0.386 OA
ATOM     34  H   UNL     1       2.450  -8.661  24.309  0.00  0.00    +0.210 HD
ENDBRANCH  29  33
BRANCH  28  35
ATOM     35  O   UNL     1       1.866  -7.178  26.185  0.00  0.00    -0.386 OA
ATOM     36  H   UNL     1       0.969  -6.938  26.485  0.00  0.00    +0.210 HD
ENDBRANCH  28  35
BRANCH  27  37
ATOM     37  C   UNL     1       1.743  -4.225  26.556  0.00  0.00    +0.190 C 
BRANCH  37  38
ATOM     38  O   UNL     1       1.546  -4.705  27.883  0.00  0.00    -0.392 OA
ATOM     39  H   UNL     1       0.759  -4.248  28.248  0.00  0.00    +0.210 HD
ENDBRANCH  37  38
ENDBRANCH  27  37
ENDBRANCH  24  25
ENDBRANCH   6  24
BRANCH   1  40
ATOM     40  O   UNL     1      10.775   0.602  24.056  0.00  0.00    -0.461 OA
BRANCH  40  43
ATOM     41  C   UNL     1       8.124   3.046  24.491  0.00  0.00    +0.198 C 
ATOM     42  O   UNL     1       8.769   1.809  24.188  0.00  0.00    -0.337 OA
ATOM     43  C   UNL     1      10.189   1.863  24.405  0.00  0.00    +0.339 C 
ATOM     44  C   UNL     1      10.809   2.936  23.471  0.00  0.00    +0.214 C 
ATOM     45  C   UNL     1      10.162   4.293  23.782  0.00  0.00    +0.180 C 
ATOM     46  C   UNL     1       8.641   4.195  23.622  0.00  0.00    +0.171 C 
BRANCH  46  47
ATOM     47  O   UNL     1       8.050   5.437  24.012  0.00  0.00    -0.387 OA
ATOM     48  H   UNL     1       8.446   5.692  24.865  0.00  0.00    +0.210 HD
ENDBRANCH  46  47
BRANCH  45  49
ATOM     49  O   UNL     1      10.677   5.330  22.942  0.00  0.00    -0.386 OA
ATOM     50  H   UNL     1      11.632   5.149  22.849  0.00  0.00    +0.210 HD
ENDBRANCH  45  49
BRANCH  44  51
ATOM     51  O   UNL     1      10.573   2.595  22.086  0.00  0.00    -0.383 OA
ATOM     52  H   UNL     1      11.438   2.381  21.689  0.00  0.00    +0.210 HD
ENDBRANCH  44  51
ENDBRANCH  40  43
ENDBRANCH   1  40
TORSDOF 16
ENDMDL
MODEL 2
REMARK VINA RESULT:      -7.0      1.078      1.785
REMARK  Name = 
REMARK  16 active torsions:
REMARK  status: ('A' for Active; 'I' for Inactive)
REMARK    1  A    between atoms: C_2  and  O_47
REMARK    2  A    between atoms: C_4  and  O_46
REMARK    3  A    between atoms: C_6  and  O_45
REMARK    4  A    between atoms: C_7  and  O_10
REMARK    5  A    between atoms: O_10  and  C_11
REMARK    6  A    between atoms: C_13  and  O_44
REMARK    7  A    between atoms: C_18  and  C_36
REMARK    8  A    between atoms: C_19  and  O_22
REMARK    9  A    between atoms: O_22  and  C_23
REMARK   10  A    between atoms: C_25  and  O_35
REMARK   11  A    between atoms: C_26  and  O_34
REMARK   12  A    between atoms: C_27  and  O_33
REMARK   13  A    between atoms: C_29  and  C_31
REMARK   14  A    between atoms: C_31  and  O_32
REMARK   15  A    between atoms: C_38  and  O_43
REMARK   16  A    between atoms: C_39  and  O_42
REMARK                            x       y       z     vdW  Elec       q    Type
REMARK                         _______ _______ _______ _____ _____    ______ ____
ROOT
ATOM      1  C   UNL     1      10.020   0.291  24.266  0.00  0.00    +0.131 A 
ATOM      2  C   UNL     1       9.359  -0.452  25.244  0.00  0.00    +0.093 A 
ATOM      3  C   UNL     1       8.696  -1.635  24.888  0.00  0.00    +0.147 A 
ATOM      4  O   UNL     1       8.113  -2.361  25.897  0.00  0.00    -0.451 OA
ATOM      5  C   UNL     1       7.250  -3.402  25.560  0.00  0.00    +0.181 A 
ATOM      6  C   UNL     1       7.086  -3.870  24.302  0.00  0.00    +0.214 A 
ATOM      7  C   UNL     1       8.050  -3.363  23.283  0.00  0.00    +0.238 A 
ATOM      8  O   UNL     1       8.394  -4.043  22.324  0.00  0.00    -0.283 OA
ATOM      9  C   UNL     1       8.677  -2.062  23.563  0.00  0.00    +0.109 A 
ATOM     10  C   UNL     1       9.291  -1.284  22.578  0.00  0.00    +0.135 A 
ATOM     11  C   UNL     1       9.957  -0.110  22.930  0.00  0.00    +0.092 A 
ENDROOT
BRANCH   5  12
ATOM     12  C   UNL     1       6.550  -3.971  26.752  0.00  0.00    +0.025 A 
ATOM     13  C   UNL     1       5.559  -3.219  27.413  0.00  0.00    +0.015 A 
ATOM     14  C   UNL     1       4.947  -3.686  28.583  0.00  0.00    +0.050 A 
ATOM     15  C   UNL     1       5.315  -4.916  29.098  0.00  0.00    +0.158 A 
ATOM     16  C   UNL     1       6.295  -5.678  28.468  0.00  0.00    +0.159 A 
ATOM     17  C   UNL     1       6.925  -5.209  27.316  0.00  0.00    +0.060 A 
BRANCH  16  18
ATOM     18  O   UNL     1       6.610  -6.884  29.034  0.00  0.00    -0.503 OA
ATOM     19  H   UNL     1       7.555  -7.062  28.891  0.00  0.00    +0.292 HD
ENDBRANCH  16  18
BRANCH  15  20
ATOM     20  O   UNL     1       4.719  -5.370  30.238  0.00  0.00    -0.503 OA
ATOM     21  H   UNL     1       4.234  -6.173  29.962  0.00  0.00    +0.292 HD
ENDBRANCH  15  20
ENDBRANCH   5  12
BRANCH  10  22
ATOM     22  O   UNL     1       9.232  -1.645  21.264  0.00  0.00    -0.506 OA
ATOM     23  H   UNL     1       8.426  -2.159  21.091  0.00  0.00    +0.292 HD
ENDBRANCH  10  22
BRANCH   6  24
ATOM     24  O   UNL     1       6.099  -4.791  24.009  0.00  0.00    -0.453 OA
BRANCH  24  25
ATOM     25  C   UNL     1       4.924  -4.421  23.268  0.00  0.00    +0.340 C 
ATOM     26  O   UNL     1       3.955  -3.672  24.009  0.00  0.00    -0.331 OA
ATOM     27  C   UNL     1       3.313  -4.331  25.102  0.00  0.00    +0.179 C 
ATOM     28  C   UNL     1       2.751  -5.714  24.722  0.00  0.00    +0.177 C 
ATOM     29  C   UNL     1       3.827  -6.533  24.003  0.00  0.00    +0.180 C 
ATOM     30  C   UNL     1       4.287  -5.737  22.774  0.00  0.00    +0.214 C 
BRANCH  30  31
ATOM     31  O   UNL     1       5.192  -6.508  21.972  0.00  0.00    -0.383 OA
ATOM     32  H   UNL     1       5.278  -6.043  21.120  0.00  0.00    +0.210 HD
ENDBRANCH  30  31
BRANCH  29  33
ATOM     33  O   UNL     1       3.339  -7.826  23.646  0.00  0.00    -0.386 OA
ATOM     34  H   UNL     1       2.696  -7.725  22.917  0.00  0.00    +0.210 HD
ENDBRANCH  29  33
BRANCH  28  35
ATOM     35  O   UNL     1       2.251  -6.381  25.886  0.00  0.00    -0.386 OA
ATOM     36  H   UNL     1       2.972  -6.919  26.262  0.00  0.00    +0.210 HD
ENDBRANCH  28  35
BRANCH  27  37
ATOM     37  C   UNL     1       2.165  -3.419  25.582  0.00  0.00    +0.190 C 
BRANCH  37  38
ATOM     38  O   UNL     1       0.883  -3.833  25.121  0.00  0.00    -0.392 OA
ATOM     39  H   UNL     1       0.372  -3.024  24.903  0.00  0.00    +0.210 HD
ENDBRANCH  37  38
ENDBRANCH  27  37
ENDBRANCH  24  25
ENDBRANCH   6  24
BRANCH   1  40
ATOM     40  O   UNL     1      10.723   1.442  24.482  0.00  0.00    -0.461 OA
BRANCH  40  43
ATOM     41  C   UNL     1      10.820   4.899  23.373  0.00  0.00    +0.198 C 
ATOM     42  O   UNL     1      11.167   3.709  24.083  0.00  0.00    -0.337 OA
ATOM     43  C   UNL     1      10.341   2.592  23.715  0.00  0.00    +0.339 C 
ATOM     44  C   UNL     1       8.863   2.911  24.065  0.00  0.00    +0.214 C 
ATOM     45  C   UNL     1       8.437   4.172  23.300  0.00  0.00    +0.180 C 
ATOM     46  C   UNL     1       9.378   5.333  23.643  0.00  0.00    +0.171 C 
BRANCH  46  47
ATOM     47  O   UNL     1       9.027   6.468  22.848  0.00  0.00    -0.387 OA
ATOM     48  H   UNL     1       8.855   6.146  21.944  0.00  0.00    +0.210 HD
ENDBRANCH  46  47
BRANCH  45  49
ATOM     49  O   UNL     1       7.084   4.536  23.590  0.00  0.00    -0.386 OA
ATOM     50  H   UNL     1       6.852   5.234  22.948  0.00  0.00    +0.210 HD
ENDBRANCH  45  49
BRANCH  44  51
ATOM     51  O   UNL     1       8.718   3.136  25.486  0.00  0.00    -0.383 OA
ATOM     52  H   UNL     1       8.572   4.092  25.614  0.00  0.00    +0.210 HD
ENDBRANCH  44  51
ENDBRANCH  40  43
ENDBRANCH   1  40
TORSDOF 16
ENDMDL
MODEL 3
REMARK VINA RESULT:      -7.0      2.491      9.672
REMARK  Name = 
REMARK  16 active torsions:
REMARK  status: ('A' for Active; 'I' for Inactive)
REMARK    1  A    between atoms: C_2  and  O_47
REMARK    2  A    between atoms: C_4  and  O_46
REMARK    3  A    between atoms: C_6  and  O_45
REMARK    4  A    between atoms: C_7  and  O_10
REMARK    5  A    between atoms: O_10  and  C_11
REMARK    6  A    between atoms: C_13  and  O_44
REMARK    7  A    between atoms: C_18  and  C_36
REMARK    8  A    between atoms: C_19  and  O_22
REMARK    9  A    between atoms: O_22  and  C_23
REMARK   10  A    between atoms: C_25  and  O_35
REMARK   11  A    between atoms: C_26  and  O_34
REMARK   12  A    between atoms: C_27  and  O_33
REMARK   13  A    between atoms: C_29  and  C_31
REMARK   14  A    between atoms: C_31  and  O_32
REMARK   15  A    between atoms: C_38  and  O_43
REMARK   16  A    between atoms: C_39  and  O_42
REMARK                            x       y       z     vdW  Elec       q    Type
REMARK                         _______ _______ _______ _____ _____    ______ ____
ROOT
ATOM      1  C   UNL     1       7.312  -3.987  24.061  0.00  0.00    +0.131 A 
ATOM      2  C   UNL     1       6.498  -2.854  24.088  0.00  0.00    +0.093 A 
ATOM      3  C   UNL     1       7.026  -1.611  23.711  0.00  0.00    +0.147 A 
ATOM      4  O   UNL     1       6.167  -0.539  23.696  0.00  0.00    -0.451 OA
ATOM      5  C   UNL     1       6.698   0.742  23.563  0.00  0.00    +0.181 A 
ATOM      6  C   UNL     1       7.992   0.995  23.261  0.00  0.00    +0.214 A 
ATOM      7  C   UNL     1       8.812  -0.181  22.851  0.00  0.00    +0.238 A 
ATOM      8  O   UNL     1       9.742  -0.077  22.061  0.00  0.00    -0.283 OA
ATOM      9  C   UNL     1       8.359  -1.496  23.330  0.00  0.00    +0.109 A 
ATOM     10  C   UNL     1       9.185  -2.623  23.360  0.00  0.00    +0.135 A 
ATOM     11  C   UNL     1       8.663  -3.862  23.728  0.00  0.00    +0.092 A 
ENDROOT
BRANCH   5  12
ATOM     12  C   UNL     1       5.670   1.808  23.754  0.00  0.00    +0.025 A 
ATOM     13  C   UNL     1       4.939   1.876  24.957  0.00  0.00    +0.015 A 
ATOM     14  C   UNL     1       3.909   2.807  25.135  0.00  0.00    +0.050 A 
ATOM     15  C   UNL     1       3.604   3.687  24.112  0.00  0.00    +0.158 A 
ATOM     16  C   UNL     1       4.307   3.641  22.910  0.00  0.00    +0.159 A 
ATOM     17  C   UNL     1       5.319   2.701  22.719  0.00  0.00    +0.060 A 
BRANCH  16  18
ATOM     18  O   UNL     1       3.953   4.541  21.943  0.00  0.00    -0.503 OA
ATOM     19  H   UNL     1       3.301   4.127  21.351  0.00  0.00    +0.292 HD
ENDBRANCH  16  18
BRANCH  15  20
ATOM     20  O   UNL     1       2.600   4.594  24.285  0.00  0.00    -0.503 OA
ATOM     21  H   UNL     1       2.402   4.922  23.385  0.00  0.00    +0.292 HD
ENDBRANCH  15  20
ENDBRANCH   5  12
BRANCH  10  22
ATOM     22  O   UNL     1      10.511  -2.525  23.054  0.00  0.00    -0.506 OA
ATOM     23  H   UNL     1      10.637  -2.535  22.091  0.00  0.00    +0.292 HD
ENDBRANCH  10  22
BRANCH   6  24
ATOM     24  O   UNL     1       8.493   2.282  23.302  0.00  0.00    -0.453 OA
BRANCH  24  25
ATOM     25  C   UNL     1       9.280   2.745  24.412  0.00  0.00    +0.340 C 
ATOM     26  O   UNL     1       8.526   3.135  25.565  0.00  0.00    -0.331 OA
ATOM     27  C   UNL     1       7.666   4.268  25.433  0.00  0.00    +0.179 C 
ATOM     28  C   UNL     1       8.372   5.488  24.811  0.00  0.00    +0.177 C 
ATOM     29  C   UNL     1       9.106   5.069  23.534  0.00  0.00    +0.180 C 
ATOM     30  C   UNL     1      10.093   3.951  23.898  0.00  0.00    +0.214 C 
BRANCH  30  31
ATOM     31  O   UNL     1      10.918   3.610  22.777  0.00  0.00    -0.383 OA
ATOM     32  H   UNL     1      11.479   4.385  22.595  0.00  0.00    +0.210 HD
ENDBRANCH  30  31
BRANCH  29  33
ATOM     33  O   UNL     1       9.762   6.181  22.928  0.00  0.00    -0.386 OA
ATOM     34  H   UNL     1       9.105   6.890  22.784  0.00  0.00    +0.210 HD
ENDBRANCH  29  33
BRANCH  28  35
ATOM     35  O   UNL     1       7.427   6.537  24.573  0.00  0.00    -0.386 OA
ATOM     36  H   UNL     1       7.876   7.391  24.722  0.00  0.00    +0.210 HD
ENDBRANCH  28  35
BRANCH  27  37
ATOM     37  C   UNL     1       7.155   4.627  26.844  0.00  0.00    +0.190 C 
BRANCH  37  38
ATOM     38  O   UNL     1       7.918   5.650  27.478  0.00  0.00    -0.392 OA
ATOM     39  H   UNL     1       8.843   5.567  27.160  0.00  0.00    +0.210 HD
ENDBRANCH  37  38
ENDBRANCH  27  37
ENDBRANCH  24  25
ENDBRANCH   6  24
BRANCH   1  40
ATOM     40  O   UNL     1       6.919  -5.256  24.377  0.00  0.00    -0.461 OA
BRANCH  40  43
ATOM     41  C   UNL     1       5.036  -6.537  27.206  0.00  0.00    +0.198 C 
ATOM     42  O   UNL     1       6.121  -6.336  26.298  0.00  0.00    -0.337 OA
ATOM     43  C   UNL     1       5.801  -5.389  25.265  0.00  0.00    +0.339 C 
ATOM     44  C   UNL     1       4.608  -5.926  24.430  0.00  0.00    +0.214 C 
ATOM     45  C   UNL     1       3.407  -6.132  25.364  0.00  0.00    +0.180 C 
ATOM     46  C   UNL     1       3.790  -7.082  26.505  0.00  0.00    +0.171 C 
BRANCH  46  47
ATOM     47  O   UNL     1       2.693  -7.182  27.416  0.00  0.00    -0.387 OA
ATOM     48  H   UNL     1       2.015  -6.545  27.125  0.00  0.00    +0.210 HD
ENDBRANCH  46  47
BRANCH  45  49
ATOM     49  O   UNL     1       2.271  -6.644  24.661  0.00  0.00    -0.386 OA
ATOM     50  H   UNL     1       1.544  -6.670  25.312  0.00  0.00    +0.210 HD
ENDBRANCH  45  49
BRANCH  44  51
ATOM     51  O   UNL     1       4.955  -7.182  23.806  0.00  0.00    -0.383 OA
ATOM     52  H   UNL     1       5.830  -7.069  23.392  0.00  0.00    +0.210 HD
ENDBRANCH  44  51
ENDBRANCH  40  43
ENDBRANCH   1  40
TORSDOF 16
ENDMDL
MODEL 4
REMARK VINA RESULT:      -6.8      1.798      3.222
REMARK  Name = 
REMARK  16 active torsions:
REMARK  status: ('A' for Active; 'I' for Inactive)
REMARK    1  A    between atoms: C_2  and  O_47
REMARK    2  A    between atoms: C_4  and  O_46
REMARK    3  A    between atoms: C_6  and  O_45
REMARK    4  A    between atoms: C_7  and  O_10
REMARK    5  A    between atoms: O_10  and  C_11
REMARK    6  A    between atoms: C_13  and  O_44
REMARK    7  A    between atoms: C_18  and  C_36
REMARK    8  A    between atoms: C_19  and  O_22
REMARK    9  A    between atoms: O_22  and  C_23
REMARK   10  A    between atoms: C_25  and  O_35
REMARK   11  A    between atoms: C_26  and  O_34
REMARK   12  A    between atoms: C_27  and  O_33
REMARK   13  A    between atoms: C_29  and  C_31
REMARK   14  A    between atoms: C_31  and  O_32
REMARK   15  A    between atoms: C_38  and  O_43
REMARK   16  A    between atoms: C_39  and  O_42
REMARK                            x       y       z     vdW  Elec       q    Type
REMARK                         _______ _______ _______ _____ _____    ______ ____
ROOT
ATOM      1  C   UNL     1       8.933  -0.831  23.941  0.00  0.00    +0.131 A 
ATOM      2  C   UNL     1       7.730  -0.755  24.643  0.00  0.00    +0.093 A 
ATOM      3  C   UNL     1       7.318  -1.836  25.435  0.00  0.00    +0.147 A 
ATOM      4  O   UNL     1       6.158  -1.686  26.154  0.00  0.00    -0.451 OA
ATOM      5  C   UNL     1       5.594  -2.809  26.756  0.00  0.00    +0.181 A 
ATOM      6  C   UNL     1       6.209  -4.011  26.838  0.00  0.00    +0.214 A 
ATOM      7  C   UNL     1       7.646  -4.041  26.439  0.00  0.00    +0.238 A 
ATOM      8  O   UNL     1       8.442  -4.820  26.948  0.00  0.00    -0.283 OA
ATOM      9  C   UNL     1       8.091  -2.991  25.510  0.00  0.00    +0.109 A 
ATOM     10  C   UNL     1       9.266  -3.085  24.759  0.00  0.00    +0.135 A 
ATOM     11  C   UNL     1       9.682  -2.009  23.975  0.00  0.00    +0.092 A 
ENDROOT
BRANCH   5  12
ATOM     12  C   UNL     1       4.246  -2.529  27.336  0.00  0.00    +0.025 A 
ATOM     13  C   UNL     1       4.122  -2.180  28.695  0.00  0.00    +0.015 A 
ATOM     14  C   UNL     1       2.867  -1.996  29.291  0.00  0.00    +0.050 A 
ATOM     15  C   UNL     1       1.724  -2.153  28.528  0.00  0.00    +0.158 A 
ATOM     16  C   UNL     1       1.817  -2.502  27.183  0.00  0.00    +0.159 A 
ATOM     17  C   UNL     1       3.062  -2.708  26.590  0.00  0.00    +0.060 A 
BRANCH  16  18
ATOM     18  O   UNL     1       0.644  -2.640  26.490  0.00  0.00    -0.503 OA
ATOM     19  H   UNL     1       0.541  -3.571  26.230  0.00  0.00    +0.292 HD
ENDBRANCH  16  18
BRANCH  15  20
ATOM     20  O   UNL     1       0.502  -1.975  29.109  0.00  0.00    -0.503 OA
ATOM     21  H   UNL     1       0.658  -2.112  30.065  0.00  0.00    +0.292 HD
ENDBRANCH  15  20
ENDBRANCH   5  12
BRANCH  10  22
ATOM     22  O   UNL     1      10.008  -4.230  24.763  0.00  0.00    -0.506 OA
ATOM     23  H   UNL     1      10.460  -4.343  23.910  0.00  0.00    +0.292 HD
ENDBRANCH  10  22
BRANCH   6  24
ATOM     24  O   UNL     1       5.535  -5.124  27.301  0.00  0.00    -0.453 OA
BRANCH  24  25
ATOM     25  C   UNL     1       5.427  -6.318  26.509  0.00  0.00    +0.340 C 
ATOM     26  O   UNL     1       5.113  -6.101  25.130  0.00  0.00    -0.331 OA
ATOM     27  C   UNL     1       3.835  -5.536  24.830  0.00  0.00    +0.179 C 
ATOM     28  C   UNL     1       2.677  -6.262  25.540  0.00  0.00    +0.177 C 
ATOM     29  C   UNL     1       2.993  -6.414  27.031  0.00  0.00    +0.180 C 
ATOM     30  C   UNL     1       4.320  -7.175  27.159  0.00  0.00    +0.214 C 
BRANCH  30  31
ATOM     31  O   UNL     1       4.607  -7.480  28.531  0.00  0.00    -0.383 OA
ATOM     32  H   UNL     1       4.553  -8.448  28.620  0.00  0.00    +0.210 HD
ENDBRANCH  30  31
BRANCH  29  33
ATOM     33  O   UNL     1       1.933  -7.074  27.719  0.00  0.00    -0.386 OA
ATOM     34  H   UNL     1       1.674  -6.529  28.488  0.00  0.00    +0.210 HD
ENDBRANCH  29  33
BRANCH  28  35
ATOM     35  O   UNL     1       1.446  -5.565  25.317  0.00  0.00    -0.386 OA
ATOM     36  H   UNL     1       0.813  -6.187  24.910  0.00  0.00    +0.210 HD
ENDBRANCH  28  35
BRANCH  27  37
ATOM     37  C   UNL     1       3.640  -5.618  23.302  0.00  0.00    +0.190 C 
BRANCH  37  38
ATOM     38  O   UNL     1       2.900  -6.763  22.887  0.00  0.00    -0.392 OA
ATOM     39  H   UNL     1       3.471  -7.549  23.025  0.00  0.00    +0.210 HD
ENDBRANCH  37  38
ENDBRANCH  27  37
ENDBRANCH  24  25
ENDBRANCH   6  24
BRANCH   1  40
ATOM     40  O   UNL     1       9.461   0.156  23.158  0.00  0.00    -0.461 OA
BRANCH  40  43
ATOM     41  C   UNL     1       8.770   3.411  24.613  0.00  0.00    +0.198 C 
ATOM     42  O   UNL     1       8.541   2.140  24.002  0.00  0.00    -0.337 OA
ATOM     43  C   UNL     1       9.759   1.405  23.797  0.00  0.00    +0.339 C 
ATOM     44  C   UNL     1      10.684   2.204  22.842  0.00  0.00    +0.214 C 
ATOM     45  C   UNL     1      10.980   3.572  23.473  0.00  0.00    +0.180 C 
ATOM     46  C   UNL     1       9.667   4.309  23.758  0.00  0.00    +0.171 C 
BRANCH  46  47
ATOM     47  O   UNL     1       9.957   5.534  24.435  0.00  0.00    -0.387 OA
ATOM     48  H   UNL     1      10.825   5.843  24.116  0.00  0.00    +0.210 HD
ENDBRANCH  46  47
BRANCH  45  49
ATOM     49  O   UNL     1      11.819   4.372  22.634  0.00  0.00    -0.386 OA
ATOM     50  H   UNL     1      12.155   5.092  23.202  0.00  0.00    +0.210 HD
ENDBRANCH  45  49
BRANCH  44  51
ATOM     51  O   UNL     1      10.045   2.392  21.560  0.00  0.00    -0.383 OA
ATOM     52  H   UNL     1      10.268   3.291  21.253  0.00  0.00    +0.210 HD
ENDBRANCH  44  51
ENDBRANCH  40  43
ENDBRANCH   1  40
TORSDOF 16
ENDMDL
MODEL 5
REMARK VINA RESULT:      -6.6      2.449      9.850
REMARK  Name = 
REMARK  16 active torsions:
REMARK  status: ('A' for Active; 'I' for Inactive)
REMARK    1  A    between atoms: C_2  and  O_47
REMARK    2  A    between atoms: C_4  and  O_46
REMARK    3  A    between atoms: C_6  and  O_45
REMARK    4  A    between atoms: C_7  and  O_10
REMARK    5  A    between atoms: O_10  and  C_11
REMARK    6  A    between atoms: C_13  and  O_44
REMARK    7  A    between atoms: C_18  and  C_36
REMARK    8  A    between atoms: C_19  and  O_22
REMARK    9  A    between atoms: O_22  and  C_23
REMARK   10  A    between atoms: C_25  and  O_35
REMARK   11  A    between atoms: C_26  and  O_34
REMARK   12  A    between atoms: C_27  and  O_33
REMARK   13  A    between atoms: C_29  and  C_31
REMARK   14  A    between atoms: C_31  and  O_32
REMARK   15  A    between atoms: C_38  and  O_43
REMARK   16  A    between atoms: C_39  and  O_42
REMARK                            x       y       z     vdW  Elec       q    Type
REMARK                         _______ _______ _______ _____ _____    ______ ____
ROOT
ATOM      1  C   UNL     1       6.560  -4.282  24.833  0.00  0.00    +0.131 A 
ATOM      2  C   UNL     1       5.883  -3.066  24.736  0.00  0.00    +0.093 A 
ATOM      3  C   UNL     1       6.561  -1.929  24.272  0.00  0.00    +0.147 A 
ATOM      4  O   UNL     1       5.833  -0.772  24.137  0.00  0.00    -0.451 OA
ATOM      5  C   UNL     1       6.514   0.423  23.913  0.00  0.00    +0.181 A 
ATOM      6  C   UNL     1       7.835   0.499  23.634  0.00  0.00    +0.214 A 
ATOM      7  C   UNL     1       8.522  -0.795  23.354  0.00  0.00    +0.238 A 
ATOM      8  O   UNL     1       9.476  -0.867  22.590  0.00  0.00    -0.283 OA
ATOM      9  C   UNL     1       7.908  -2.002  23.928  0.00  0.00    +0.109 A 
ATOM     10  C   UNL     1       8.595  -3.208  24.082  0.00  0.00    +0.135 A 
ATOM     11  C   UNL     1       7.923  -4.342  24.537  0.00  0.00    +0.092 A 
ENDROOT
BRANCH   5  12
ATOM     12  C   UNL     1       5.612   1.613  23.977  0.00  0.00    +0.025 A 
ATOM     13  C   UNL     1       4.892   1.888  25.156  0.00  0.00    +0.015 A 
ATOM     14  C   UNL     1       3.973   2.943  25.221  0.00  0.00    +0.050 A 
ATOM     15  C   UNL     1       3.773   3.739  24.108  0.00  0.00    +0.158 A 
ATOM     16  C   UNL     1       4.468   3.488  22.928  0.00  0.00    +0.159 A 
ATOM     17  C   UNL     1       5.367   2.425  22.850  0.00  0.00    +0.060 A 
BRANCH  16  18
ATOM     18  O   UNL     1       4.220   4.316  21.866  0.00  0.00    -0.503 OA
ATOM     19  H   UNL     1       3.268   4.510  21.836  0.00  0.00    +0.292 HD
ENDBRANCH  16  18
BRANCH  15  20
ATOM     20  O   UNL     1       2.877   4.767  24.172  0.00  0.00    -0.503 OA
ATOM     21  H   UNL     1       2.175   4.449  24.774  0.00  0.00    +0.292 HD
ENDBRANCH  15  20
ENDBRANCH   5  12
BRANCH  10  22
ATOM     22  O   UNL     1       9.930  -3.290  23.814  0.00  0.00    -0.506 OA
ATOM     23  H   UNL     1      10.347  -2.417  23.901  0.00  0.00    +0.292 HD
ENDBRANCH  10  22
BRANCH   6  24
ATOM     24  O   UNL     1       8.481   1.719  23.583  0.00  0.00    -0.453 OA
BRANCH  24  25
ATOM     25  C   UNL     1       9.145   2.265  24.735  0.00  0.00    +0.340 C 
ATOM     26  O   UNL     1       8.503   3.404  25.318  0.00  0.00    -0.331 OA
ATOM     27  C   UNL     1       8.439   4.595  24.531  0.00  0.00    +0.179 C 
ATOM     28  C   UNL     1       9.802   4.991  23.931  0.00  0.00    +0.177 C 
ATOM     29  C   UNL     1      10.438   3.781  23.240  0.00  0.00    +0.180 C 
ATOM     30  C   UNL     1      10.566   2.656  24.276  0.00  0.00    +0.214 C 
BRANCH  30  31
ATOM     31  O   UNL     1      11.286   1.540  23.735  0.00  0.00    -0.383 OA
ATOM     32  H   UNL     1      11.628   1.033  24.493  0.00  0.00    +0.210 HD
ENDBRANCH  30  31
BRANCH  29  33
ATOM     33  O   UNL     1      11.698   4.120  22.665  0.00  0.00    -0.386 OA
ATOM     34  H   UNL     1      11.554   4.800  21.977  0.00  0.00    +0.210 HD
ENDBRANCH  29  33
BRANCH  28  35
ATOM     35  O   UNL     1       9.645   6.102  23.042  0.00  0.00    -0.386 OA
ATOM     36  H   UNL     1       9.398   6.884  23.570  0.00  0.00    +0.210 HD
ENDBRANCH  28  35
BRANCH  27  37
ATOM     37  C   UNL     1       7.926   5.726  25.445  0.00  0.00    +0.190 C 
BRANCH  37  38
ATOM     38  O   UNL     1       8.807   6.024  26.524  0.00  0.00    -0.392 OA
ATOM     39  H   UNL     1       9.310   5.207  26.728  0.00  0.00    +0.210 HD
ENDBRANCH  37  38
ENDBRANCH  27  37
ENDBRANCH  24  25
ENDBRANCH   6  24
BRANCH   1  40
ATOM     40  O   UNL     1       6.014  -5.465  25.242  0.00  0.00    -0.461 OA
BRANCH  40  43
ATOM     41  C   UNL     1       5.917  -6.418  28.746  0.00  0.00    +0.198 C 
ATOM     42  O   UNL     1       6.384  -6.302  27.401  0.00  0.00    -0.337 OA
ATOM     43  C   UNL     1       5.502  -5.517  26.581  0.00  0.00    +0.339 C 
ATOM     44  C   UNL     1       4.113  -6.206  26.519  0.00  0.00    +0.214 C 
ATOM     45  C   UNL     1       3.559  -6.326  27.946  0.00  0.00    +0.180 C 
ATOM     46  C   UNL     1       4.549  -7.098  28.826  0.00  0.00    +0.171 C 
BRANCH  46  47
ATOM     47  O   UNL     1       4.063  -7.114  30.170  0.00  0.00    -0.387 OA
ATOM     48  H   UNL     1       4.376  -7.939  30.582  0.00  0.00    +0.210 HD
ENDBRANCH  46  47
BRANCH  45  49
ATOM     49  O   UNL     1       2.281  -6.970  27.965  0.00  0.00    -0.386 OA
ATOM     50  H   UNL     1       2.115  -7.260  27.047  0.00  0.00    +0.210 HD
ENDBRANCH  45  49
BRANCH  44  51
ATOM     51  O   UNL     1       4.228  -7.522  25.933  0.00  0.00    -0.383 OA
ATOM     52  H   UNL     1       3.970  -7.445  24.995  0.00  0.00    +0.210 HD
ENDBRANCH  44  51
ENDBRANCH  40  43
ENDBRANCH   1  40
TORSDOF 16
ENDMDL
MODEL 6
REMARK VINA RESULT:      -6.5      2.500      5.322
REMARK  Name = 
REMARK  16 active torsions:
REMARK  status: ('A' for Active; 'I' for Inactive)
REMARK    1  A    between atoms: C_2  and  O_47
REMARK    2  A    between atoms: C_4  and  O_46
REMARK    3  A    between atoms: C_6  and  O_45
REMARK    4  A    between atoms: C_7  and  O_10
REMARK    5  A    between atoms: O_10  and  C_11
REMARK    6  A    between atoms: C_13  and  O_44
REMARK    7  A    between atoms: C_18  and  C_36
REMARK    8  A    between atoms: C_19  and  O_22
REMARK    9  A    between atoms: O_22  and  C_23
REMARK   10  A    between atoms: C_25  and  O_35
REMARK   11  A    between atoms: C_26  and  O_34
REMARK   12  A    between atoms: C_27  and  O_33
REMARK   13  A    between atoms: C_29  and  C_31
REMARK   14  A    between atoms: C_31  and  O_32
REMARK   15  A    between atoms: C_38  and  O_43
REMARK   16  A    between atoms: C_39  and  O_42
REMARK                            x       y       z     vdW  Elec       q    Type
REMARK                         _______ _______ _______ _____ _____    ______ ____
ROOT
ATOM      1  C   UNL     1       6.869   3.681  24.855  0.00  0.00    +0.131 A 
ATOM      2  C   UNL     1       7.065   2.449  24.231  0.00  0.00    +0.093 A 
ATOM      3  C   UNL     1       6.346   1.327  24.668  0.00  0.00    +0.147 A 
ATOM      4  O   UNL     1       6.530   0.152  23.981  0.00  0.00    -0.451 OA
ATOM      5  C   UNL     1       6.026  -1.027  24.525  0.00  0.00    +0.181 A 
ATOM      6  C   UNL     1       5.203  -1.073  25.598  0.00  0.00    +0.214 A 
ATOM      7  C   UNL     1       4.663   0.236  26.066  0.00  0.00    +0.238 A 
ATOM      8  O   UNL     1       3.562   0.329  26.594  0.00  0.00    -0.283 OA
ATOM      9  C   UNL     1       5.454   1.430  25.731  0.00  0.00    +0.109 A 
ATOM     10  C   UNL     1       5.305   2.653  26.390  0.00  0.00    +0.135 A 
ATOM     11  C   UNL     1       6.013   3.773  25.954  0.00  0.00    +0.092 A 
ENDROOT
BRANCH   5  12
ATOM     12  C   UNL     1       6.465  -2.238  23.768  0.00  0.00    +0.025 A 
ATOM     13  C   UNL     1       5.805  -2.605  22.579  0.00  0.00    +0.015 A 
ATOM     14  C   UNL     1       6.134  -3.780  21.893  0.00  0.00    +0.050 A 
ATOM     15  C   UNL     1       7.135  -4.598  22.387  0.00  0.00    +0.158 A 
ATOM     16  C   UNL     1       7.801  -4.263  23.563  0.00  0.00    +0.159 A 
ATOM     17  C   UNL     1       7.463  -3.105  24.262  0.00  0.00    +0.060 A 
BRANCH  16  18
ATOM     18  O   UNL     1       8.780  -5.117  23.993  0.00  0.00    -0.503 OA
ATOM     19  H   UNL     1       9.233  -5.491  23.218  0.00  0.00    +0.292 HD
ENDBRANCH  16  18
BRANCH  15  20
ATOM     20  O   UNL     1       7.455  -5.743  21.719  0.00  0.00    -0.503 OA
ATOM     21  H   UNL     1       6.691  -5.910  21.131  0.00  0.00    +0.292 HD
ENDBRANCH  15  20
ENDBRANCH   5  12
BRANCH  10  22
ATOM     22  O   UNL     1       4.486   2.767  27.476  0.00  0.00    -0.506 OA
ATOM     23  H   UNL     1       5.011   2.912  28.281  0.00  0.00    +0.292 HD
ENDBRANCH  10  22
BRANCH   6  24
ATOM     24  O   UNL     1       4.869  -2.277  26.186  0.00  0.00    -0.453 OA
BRANCH  24  25
ATOM     25  C   UNL     1       5.291  -2.601  27.521  0.00  0.00    +0.340 C 
ATOM     26  O   UNL     1       6.283  -3.628  27.609  0.00  0.00    -0.331 OA
ATOM     27  C   UNL     1       5.908  -4.940  27.184  0.00  0.00    +0.179 C 
ATOM     28  C   UNL     1       4.583  -5.416  27.809  0.00  0.00    +0.177 C 
ATOM     29  C   UNL     1       3.509  -4.338  27.635  0.00  0.00    +0.180 C 
ATOM     30  C   UNL     1       4.024  -3.046  28.283  0.00  0.00    +0.214 C 
BRANCH  30  31
ATOM     31  O   UNL     1       3.009  -2.032  28.285  0.00  0.00    -0.383 OA
ATOM     32  H   UNL     1       2.581  -2.066  29.159  0.00  0.00    +0.210 HD
ENDBRANCH  30  31
BRANCH  29  33
ATOM     33  O   UNL     1       2.265  -4.754  28.195  0.00  0.00    -0.386 OA
ATOM     34  H   UNL     1       1.686  -5.065  27.471  0.00  0.00    +0.210 HD
ENDBRANCH  29  33
BRANCH  28  35
ATOM     35  O   UNL     1       4.189  -6.669  27.238  0.00  0.00    -0.386 OA
ATOM     36  H   UNL     1       3.601  -7.121  27.871  0.00  0.00    +0.210 HD
ENDBRANCH  28  35
BRANCH  27  37
ATOM     37  C   UNL     1       7.046  -5.900  27.588  0.00  0.00    +0.190 C 
BRANCH  37  38
ATOM     38  O   UNL     1       8.234  -5.722  26.822  0.00  0.00    -0.392 OA
ATOM     39  H   UNL     1       8.138  -4.885  26.319  0.00  0.00    +0.210 HD
ENDBRANCH  37  38
ENDBRANCH  27  37
ENDBRANCH  24  25
ENDBRANCH   6  24
BRANCH   1  40
ATOM     40  O   UNL     1       7.482   4.852  24.512  0.00  0.00    -0.461 OA
BRANCH  40  43
ATOM     41  C   UNL     1      10.471   6.427  25.847  0.00  0.00    +0.198 C 
ATOM     42  O   UNL     1       9.096   6.225  25.516  0.00  0.00    -0.337 OA
ATOM     43  C   UNL     1       8.873   4.978  24.837  0.00  0.00    +0.339 C 
ATOM     44  C   UNL     1       9.663   4.975  23.502  0.00  0.00    +0.214 C 
ATOM     45  C   UNL     1      11.155   5.162  23.812  0.00  0.00    +0.180 C 
ATOM     46  C   UNL     1      11.364   6.457  24.605  0.00  0.00    +0.171 C 
BRANCH  46  47
ATOM     47  O   UNL     1      12.743   6.563  24.969  0.00  0.00    -0.387 OA
ATOM     48  H   UNL     1      12.946   7.512  25.060  0.00  0.00    +0.210 HD
ENDBRANCH  46  47
BRANCH  45  49
ATOM     49  O   UNL     1      11.945   5.186  22.618  0.00  0.00    -0.386 OA
ATOM     50  H   UNL     1      12.707   4.600  22.791  0.00  0.00    +0.210 HD
ENDBRANCH  45  49
BRANCH  44  51
ATOM     51  O   UNL     1       9.210   6.047  22.645  0.00  0.00    -0.383 OA
ATOM     52  H   UNL     1       9.584   6.876  22.995  0.00  0.00    +0.210 HD
ENDBRANCH  44  51
ENDBRANCH  40  43
ENDBRANCH   1  40
TORSDOF 16
ENDMDL
MODEL 7
REMARK VINA RESULT:      -6.5      2.302     10.017
REMARK  Name = 
REMARK  16 active torsions:
REMARK  status: ('A' for Active; 'I' for Inactive)
REMARK    1  A    between atoms: C_2  and  O_47
REMARK    2  A    between atoms: C_4  and  O_46
REMARK    3  A    between atoms: C_6  and  O_45
REMARK    4  A    between atoms: C_7  and  O_10
REMARK    5  A    between atoms: O_10  and  C_11
REMARK    6  A    between atoms: C_13  and  O_44
REMARK    7  A    between atoms: C_18  and  C_36
REMARK    8  A    between atoms: C_19  and  O_22
REMARK    9  A    between atoms: O_22  and  C_23
REMARK   10  A    between atoms: C_25  and  O_35
REMARK   11  A    between atoms: C_26  and  O_34
REMARK   12  A    between atoms: C_27  and  O_33
REMARK   13  A    between atoms: C_29  and  C_31
REMARK   14  A    between atoms: C_31  and  O_32
REMARK   15  A    between atoms: C_38  and  O_43
REMARK   16  A    between atoms: C_39  and  O_42
REMARK                            x       y       z     vdW  Elec       q    Type
REMARK                         _______ _______ _______ _____ _____    ______ ____
ROOT
ATOM      1  C   UNL     1       5.494  -4.129  25.262  0.00  0.00    +0.131 A 
ATOM      2  C   UNL     1       5.034  -2.814  25.189  0.00  0.00    +0.093 A 
ATOM      3  C   UNL     1       5.853  -1.822  24.633  0.00  0.00    +0.147 A 
ATOM      4  O   UNL     1       5.330  -0.556  24.527  0.00  0.00    -0.451 OA
ATOM      5  C   UNL     1       6.184   0.496  24.207  0.00  0.00    +0.181 A 
ATOM      6  C   UNL     1       7.467   0.334  23.811  0.00  0.00    +0.214 A 
ATOM      7  C   UNL     1       7.889  -1.065  23.510  0.00  0.00    +0.238 A 
ATOM      8  O   UNL     1       8.740  -1.316  22.667  0.00  0.00    -0.283 OA
ATOM      9  C   UNL     1       7.129  -2.136  24.172  0.00  0.00    +0.109 A 
ATOM     10  C   UNL     1       7.607  -3.442  24.302  0.00  0.00    +0.135 A 
ATOM     11  C   UNL     1       6.792  -4.433  24.848  0.00  0.00    +0.092 A 
ENDROOT
BRANCH   5  12
ATOM     12  C   UNL     1       5.514   1.828  24.316  0.00  0.00    +0.025 A 
ATOM     13  C   UNL     1       4.994   2.256  25.552  0.00  0.00    +0.015 A 
ATOM     14  C   UNL     1       4.284   3.458  25.669  0.00  0.00    +0.050 A 
ATOM     15  C   UNL     1       4.095   4.247  24.549  0.00  0.00    +0.158 A 
ATOM     16  C   UNL     1       4.594   3.846  23.313  0.00  0.00    +0.159 A 
ATOM     17  C   UNL     1       5.283   2.640  23.185  0.00  0.00    +0.060 A 
BRANCH  16  18
ATOM     18  O   UNL     1       4.371   4.676  22.248  0.00  0.00    -0.503 OA
ATOM     19  H   UNL     1       3.418   4.689  22.055  0.00  0.00    +0.292 HD
ENDBRANCH  16  18
BRANCH  15  20
ATOM     20  O   UNL     1       3.403   5.417  24.663  0.00  0.00    -0.503 OA
ATOM     21  H   UNL     1       3.481   5.840  23.784  0.00  0.00    +0.292 HD
ENDBRANCH  15  20
ENDBRANCH   5  12
BRANCH  10  22
ATOM     22  O   UNL     1       8.876  -3.763  23.919  0.00  0.00    -0.506 OA
ATOM     23  H   UNL     1       9.215  -4.500  24.453  0.00  0.00    +0.292 HD
ENDBRANCH  10  22
BRANCH   6  24
ATOM     24  O   UNL     1       8.309   1.420  23.665  0.00  0.00    -0.453 OA
BRANCH  24  25
ATOM     25  C   UNL     1       9.020   1.973  24.785  0.00  0.00    +0.340 C 
ATOM     26  O   UNL     1       8.398   3.110  25.393  0.00  0.00    -0.331 OA
ATOM     27  C   UNL     1       8.292   4.298  24.606  0.00  0.00    +0.179 C 
ATOM     28  C   UNL     1       9.625   4.700  23.946  0.00  0.00    +0.177 C 
ATOM     29  C   UNL     1      10.236   3.492  23.231  0.00  0.00    +0.180 C 
ATOM     30  C   UNL     1      10.417   2.370  24.263  0.00  0.00    +0.214 C 
BRANCH  30  31
ATOM     31  O   UNL     1      11.118   1.257  23.694  0.00  0.00    -0.383 OA
ATOM     32  H   UNL     1      11.559   1.584  22.889  0.00  0.00    +0.210 HD
ENDBRANCH  30  31
BRANCH  29  33
ATOM     33  O   UNL     1      11.468   3.836  22.599  0.00  0.00    -0.386 OA
ATOM     34  H   UNL     1      11.271   4.353  21.793  0.00  0.00    +0.210 HD
ENDBRANCH  29  33
BRANCH  28  35
ATOM     35  O   UNL     1       9.423   5.807  23.061  0.00  0.00    -0.386 OA
ATOM     36  H   UNL     1       9.916   6.572  23.413  0.00  0.00    +0.210 HD
ENDBRANCH  28  35
BRANCH  27  37
ATOM     37  C   UNL     1       7.814   5.429  25.540  0.00  0.00    +0.190 C 
BRANCH  37  38
ATOM     38  O   UNL     1       6.946   6.360  24.901  0.00  0.00    -0.392 OA
ATOM     39  H   UNL     1       7.345   7.251  25.001  0.00  0.00    +0.210 HD
ENDBRANCH  37  38
ENDBRANCH  27  37
ENDBRANCH  24  25
ENDBRANCH   6  24
BRANCH   1  40
ATOM     40  O   UNL     1       4.790  -5.191  25.755  0.00  0.00    -0.461 OA
BRANCH  40  43
ATOM     41  C   UNL     1       2.726  -6.370  23.009  0.00  0.00    +0.198 C 
ATOM     42  O   UNL     1       3.300  -5.481  23.968  0.00  0.00    -0.337 OA
ATOM     43  C   UNL     1       4.276  -6.130  24.800  0.00  0.00    +0.339 C 
ATOM     44  C   UNL     1       3.590  -7.271  25.597  0.00  0.00    +0.214 C 
ATOM     45  C   UNL     1       2.980  -8.269  24.602  0.00  0.00    +0.180 C 
ATOM     46  C   UNL     1       2.002  -7.544  23.671  0.00  0.00    +0.171 C 
BRANCH  46  47
ATOM     47  O   UNL     1       1.521  -8.467  22.691  0.00  0.00    -0.387 OA
ATOM     48  H   UNL     1       1.180  -7.944  21.942  0.00  0.00    +0.210 HD
ENDBRANCH  46  47
BRANCH  45  49
ATOM     49  O   UNL     1       2.314  -9.344  25.272  0.00  0.00    -0.386 OA
ATOM     50  H   UNL     1       2.548  -9.256  26.215  0.00  0.00    +0.210 HD
ENDBRANCH  45  49
BRANCH  44  51
ATOM     51  O   UNL     1       2.549  -6.739  26.447  0.00  0.00    -0.383 OA
ATOM     52  H   UNL     1       2.609  -5.766  26.403  0.00  0.00    +0.210 HD
ENDBRANCH  44  51
ENDBRANCH  40  43
ENDBRANCH   1  40
TORSDOF 16
ENDMDL
MODEL 8
REMARK VINA RESULT:      -6.4      2.172      9.943
REMARK  Name = 
REMARK  16 active torsions:
REMARK  status: ('A' for Active; 'I' for Inactive)
REMARK    1  A    between atoms: C_2  and  O_47
REMARK    2  A    between atoms: C_4  and  O_46
REMARK    3  A    between atoms: C_6  and  O_45
REMARK    4  A    between atoms: C_7  and  O_10
REMARK    5  A    between atoms: O_10  and  C_11
REMARK    6  A    between atoms: C_13  and  O_44
REMARK    7  A    between atoms: C_18  and  C_36
REMARK    8  A    between atoms: C_19  and  O_22
REMARK    9  A    between atoms: O_22  and  C_23
REMARK   10  A    between atoms: C_25  and  O_35
REMARK   11  A    between atoms: C_26  and  O_34
REMARK   12  A    between atoms: C_27  and  O_33
REMARK   13  A    between atoms: C_29  and  C_31
REMARK   14  A    between atoms: C_31  and  O_32
REMARK   15  A    between atoms: C_38  and  O_43
REMARK   16  A    between atoms: C_39  and  O_42
REMARK                            x       y       z     vdW  Elec       q    Type
REMARK                         _______ _______ _______ _____ _____    ______ ____
ROOT
ATOM      1  C   UNL     1       7.118  -3.669  25.520  0.00  0.00    +0.131 A 
ATOM      2  C   UNL     1       6.635  -2.386  25.775  0.00  0.00    +0.093 A 
ATOM      3  C   UNL     1       7.326  -1.272  25.277  0.00  0.00    +0.147 A 
ATOM      4  O   UNL     1       6.775  -0.034  25.503  0.00  0.00    -0.451 OA
ATOM      5  C   UNL     1       7.542   1.098  25.239  0.00  0.00    +0.181 A 
ATOM      6  C   UNL     1       8.734   1.070  24.598  0.00  0.00    +0.214 A 
ATOM      7  C   UNL     1       9.112  -0.230  23.973  0.00  0.00    +0.238 A 
ATOM      8  O   UNL     1       9.799  -0.284  22.961  0.00  0.00    -0.283 OA
ATOM      9  C   UNL     1       8.500  -1.437  24.548  0.00  0.00    +0.109 A 
ATOM     10  C   UNL     1       9.011  -2.722  24.345  0.00  0.00    +0.135 A 
ATOM     11  C   UNL     1       8.323  -3.832  24.833  0.00  0.00    +0.092 A 
ENDROOT
BRANCH   5  12
ATOM     12  C   UNL     1       6.885   2.355  25.710  0.00  0.00    +0.025 A 
ATOM     13  C   UNL     1       5.693   2.796  25.104  0.00  0.00    +0.015 A 
ATOM     14  C   UNL     1       5.099   4.014  25.462  0.00  0.00    +0.050 A 
ATOM     15  C   UNL     1       5.690   4.797  26.436  0.00  0.00    +0.158 A 
ATOM     16  C   UNL     1       6.872   4.388  27.048  0.00  0.00    +0.159 A 
ATOM     17  C   UNL     1       7.480   3.188  26.681  0.00  0.00    +0.060 A 
BRANCH  16  18
ATOM     18  O   UNL     1       7.401   5.213  28.004  0.00  0.00    -0.503 OA
ATOM     19  H   UNL     1       7.414   6.123  27.661  0.00  0.00    +0.292 HD
ENDBRANCH  16  18
BRANCH  15  20
ATOM     20  O   UNL     1       5.112   5.983  26.784  0.00  0.00    -0.503 OA
ATOM     21  H   UNL     1       4.338   5.733  27.328  0.00  0.00    +0.292 HD
ENDBRANCH  15  20
ENDBRANCH   5  12
BRANCH  10  22
ATOM     22  O   UNL     1      10.193  -2.908  23.691  0.00  0.00    -0.506 OA
ATOM     23  H   UNL     1      10.940  -2.694  24.275  0.00  0.00    +0.292 HD
ENDBRANCH  10  22
BRANCH   6  24
ATOM     24  O   UNL     1       9.520   2.203  24.511  0.00  0.00    -0.453 OA
BRANCH  24  25
ATOM     25  C   UNL     1      10.008   2.680  23.246  0.00  0.00    +0.340 C 
ATOM     26  O   UNL     1      11.180   3.497  23.321  0.00  0.00    -0.331 OA
ATOM     27  C   UNL     1      11.060   4.756  23.987  0.00  0.00    +0.179 C 
ATOM     28  C   UNL     1       9.857   5.582  23.493  0.00  0.00    +0.177 C 
ATOM     29  C   UNL     1       8.594   4.715  23.497  0.00  0.00    +0.180 C 
ATOM     30  C   UNL     1       8.858   3.489  22.611  0.00  0.00    +0.214 C 
BRANCH  30  31
ATOM     31  O   UNL     1       7.667   2.706  22.452  0.00  0.00    -0.383 OA
ATOM     32  H   UNL     1       7.355   2.486  23.348  0.00  0.00    +0.210 HD
ENDBRANCH  30  31
BRANCH  29  33
ATOM     33  O   UNL     1       7.459   5.457  23.055  0.00  0.00    -0.386 OA
ATOM     34  H   UNL     1       7.273   6.160  23.708  0.00  0.00    +0.210 HD
ENDBRANCH  29  33
BRANCH  28  35
ATOM     35  O   UNL     1       9.706   6.761  24.293  0.00  0.00    -0.386 OA
ATOM     36  H   UNL     1       8.799   7.098  24.171  0.00  0.00    +0.210 HD
ENDBRANCH  28  35
BRANCH  27  37
ATOM     37  C   UNL     1      12.365   5.539  23.734  0.00  0.00    +0.190 C 
BRANCH  37  38
ATOM     38  O   UNL     1      12.720   6.408  24.804  0.00  0.00    -0.392 OA
ATOM     39  H   UNL     1      13.319   5.911  25.402  0.00  0.00    +0.210 HD
ENDBRANCH  37  38
ENDBRANCH  27  37
ENDBRANCH  24  25
ENDBRANCH   6  24
BRANCH   1  40
ATOM     40  O   UNL     1       6.530  -4.835  25.922  0.00  0.00    -0.461 OA
BRANCH  40  43
ATOM     41  C   UNL     1       4.253  -5.371  23.145  0.00  0.00    +0.198 C 
ATOM     42  O   UNL     1       5.013  -4.687  24.141  0.00  0.00    -0.337 OA
ATOM     43  C   UNL     1       5.817  -5.582  24.927  0.00  0.00    +0.339 C 
ATOM     44  C   UNL     1       4.892  -6.580  25.673  0.00  0.00    +0.214 C 
ATOM     45  C   UNL     1       4.072  -7.360  24.636  0.00  0.00    +0.180 C 
ATOM     46  C   UNL     1       3.282  -6.386  23.755  0.00  0.00    +0.171 C 
BRANCH  46  47
ATOM     47  O   UNL     1       2.605  -7.123  22.735  0.00  0.00    -0.387 OA
ATOM     48  H   UNL     1       3.191  -7.855  22.469  0.00  0.00    +0.210 HD
ENDBRANCH  46  47
BRANCH  45  49
ATOM     49  O   UNL     1       3.181  -8.291  25.258  0.00  0.00    -0.386 OA
ATOM     50  H   UNL     1       2.421  -7.764  25.571  0.00  0.00    +0.210 HD
ENDBRANCH  45  49
BRANCH  44  51
ATOM     51  O   UNL     1       3.998  -5.871  26.561  0.00  0.00    -0.383 OA
ATOM     52  H   UNL     1       3.989  -4.938  26.279  0.00  0.00    +0.210 HD
ENDBRANCH  44  51
ENDBRANCH  40  43
ENDBRANCH   1  40
TORSDOF 16
ENDMDL
MODEL 9
REMARK VINA RESULT:      -6.4      2.577      9.667
REMARK  Name = 
REMARK  16 active torsions:
REMARK  status: ('A' for Active; 'I' for Inactive)
REMARK    1  A    between atoms: C_2  and  O_47
REMARK    2  A    between atoms: C_4  and  O_46
REMARK    3  A    between atoms: C_6  and  O_45
REMARK    4  A    between atoms: C_7  and  O_10
REMARK    5  A    between atoms: O_10  and  C_11
REMARK    6  A    between atoms: C_13  and  O_44
REMARK    7  A    between atoms: C_18  and  C_36
REMARK    8  A    between atoms: C_19  and  O_22
REMARK    9  A    between atoms: O_22  and  C_23
REMARK   10  A    between atoms: C_25  and  O_35
REMARK   11  A    between atoms: C_26  and  O_34
REMARK   12  A    between atoms: C_27  and  O_33
REMARK   13  A    between atoms: C_29  and  C_31
REMARK   14  A    between atoms: C_31  and  O_32
REMARK   15  A    between atoms: C_38  and  O_43
REMARK   16  A    between atoms: C_39  and  O_42
REMARK                            x       y       z     vdW  Elec       q    Type
REMARK                         _______ _______ _______ _____ _____    ______ ____
ROOT
ATOM      1  C   UNL     1       6.652  -4.058  23.991  0.00  0.00    +0.131 A 
ATOM      2  C   UNL     1       5.938  -2.935  24.409  0.00  0.00    +0.093 A 
ATOM      3  C   UNL     1       6.393  -1.655  24.064  0.00  0.00    +0.147 A 
ATOM      4  O   UNL     1       5.621  -0.586  24.447  0.00  0.00    -0.451 OA
ATOM      5  C   UNL     1       6.153   0.697  24.336  0.00  0.00    +0.181 A 
ATOM      6  C   UNL     1       7.314   0.982  23.704  0.00  0.00    +0.214 A 
ATOM      7  C   UNL     1       7.920  -0.130  22.915  0.00  0.00    +0.238 A 
ATOM      8  O   UNL     1       8.584   0.080  21.908  0.00  0.00    -0.283 OA
ATOM      9  C   UNL     1       7.562  -1.496  23.325  0.00  0.00    +0.109 A 
ATOM     10  C   UNL     1       8.305  -2.622  22.959  0.00  0.00    +0.135 A 
ATOM     11  C   UNL     1       7.852  -3.897  23.295  0.00  0.00    +0.092 A 
ENDROOT
BRANCH   5  12
ATOM     12  C   UNL     1       5.278   1.733  24.964  0.00  0.00    +0.025 A 
ATOM     13  C   UNL     1       4.516   2.598  24.154  0.00  0.00    +0.015 A 
ATOM     14  C   UNL     1       3.754   3.635  24.707  0.00  0.00    +0.050 A 
ATOM     15  C   UNL     1       3.741   3.812  26.079  0.00  0.00    +0.158 A 
ATOM     16  C   UNL     1       4.488   2.975  26.904  0.00  0.00    +0.159 A 
ATOM     17  C   UNL     1       5.266   1.954  26.358  0.00  0.00    +0.060 A 
BRANCH  16  18
ATOM     18  O   UNL     1       4.428   3.207  28.251  0.00  0.00    -0.503 OA
ATOM     19  H   UNL     1       4.739   2.415  28.721  0.00  0.00    +0.292 HD
ENDBRANCH  16  18
BRANCH  15  20
ATOM     20  O   UNL     1       3.000   4.822  26.617  0.00  0.00    -0.503 OA
ATOM     21  H   UNL     1       2.585   4.432  27.412  0.00  0.00    +0.292 HD
ENDBRANCH  15  20
ENDBRANCH   5  12
BRANCH  10  22
ATOM     22  O   UNL     1       9.487  -2.492  22.292  0.00  0.00    -0.506 OA
ATOM     23  H   UNL     1       9.886  -3.364  22.137  0.00  0.00    +0.292 HD
ENDBRANCH  10  22
BRANCH   6  24
ATOM     24  O   UNL     1       7.867   2.246  23.768  0.00  0.00    -0.453 OA
BRANCH  24  25
ATOM     25  C   UNL     1       8.705   2.642  24.867  0.00  0.00    +0.340 C 
ATOM     26  O   UNL     1       8.344   3.881  25.485  0.00  0.00    -0.331 OA
ATOM     27  C   UNL     1       8.462   5.066  24.694  0.00  0.00    +0.179 C 
ATOM     28  C   UNL     1       9.831   5.188  23.999  0.00  0.00    +0.177 C 
ATOM     29  C   UNL     1      10.165   3.881  23.274  0.00  0.00    +0.180 C 
ATOM     30  C   UNL     1      10.139   2.745  24.307  0.00  0.00    +0.214 C 
BRANCH  30  31
ATOM     31  O   UNL     1      10.584   1.512  23.726  0.00  0.00    -0.383 OA
ATOM     32  H   UNL     1       9.823   0.905  23.741  0.00  0.00    +0.210 HD
ENDBRANCH  30  31
BRANCH  29  33
ATOM     33  O   UNL     1      11.424   3.966  22.609  0.00  0.00    -0.386 OA
ATOM     34  H   UNL     1      11.388   3.415  21.803  0.00  0.00    +0.210 HD
ENDBRANCH  29  33
BRANCH  28  35
ATOM     35  O   UNL     1       9.837   6.314  23.114  0.00  0.00    -0.386 OA
ATOM     36  H   UNL     1      10.667   6.807  23.253  0.00  0.00    +0.210 HD
ENDBRANCH  28  35
BRANCH  27  37
ATOM     37  C   UNL     1       8.249   6.271  25.634  0.00  0.00    +0.190 C 
BRANCH  37  38
ATOM     38  O   UNL     1       9.130   6.278  26.753  0.00  0.00    -0.392 OA
ATOM     39  H   UNL     1       8.577   6.308  27.563  0.00  0.00    +0.210 HD
ENDBRANCH  37  38
ENDBRANCH  27  37
ENDBRANCH  24  25
ENDBRANCH   6  24
BRANCH   1  40
ATOM     40  O   UNL     1       6.306  -5.357  24.235  0.00  0.00    -0.461 OA
BRANCH  40  43
ATOM     41  C   UNL     1       4.578  -6.791  27.090  0.00  0.00    +0.198 C 
ATOM     42  O   UNL     1       5.628  -6.502  26.165  0.00  0.00    -0.337 OA
ATOM     43  C   UNL     1       5.217  -5.581  25.141  0.00  0.00    +0.339 C 
ATOM     44  C   UNL     1       4.057  -6.209  24.324  0.00  0.00    +0.214 C 
ATOM     45  C   UNL     1       2.892  -6.512  25.276  0.00  0.00    +0.180 C 
ATOM     46  C   UNL     1       3.367  -7.432  26.407  0.00  0.00    +0.171 C 
BRANCH  46  47
ATOM     47  O   UNL     1       2.297  -7.622  27.335  0.00  0.00    -0.387 OA
ATOM     48  H   UNL     1       2.460  -7.028  28.091  0.00  0.00    +0.210 HD
ENDBRANCH  46  47
BRANCH  45  49
ATOM     49  O   UNL     1       1.789  -7.112  24.589  0.00  0.00    -0.386 OA
ATOM     50  H   UNL     1       1.361  -6.390  24.090  0.00  0.00    +0.210 HD
ENDBRANCH  45  49
BRANCH  44  51
ATOM     51  O   UNL     1       4.492  -7.432  23.689  0.00  0.00    -0.383 OA
ATOM     52  H   UNL     1       4.000  -8.165  24.103  0.00  0.00    +0.210 HD
ENDBRANCH  44  51
ENDBRANCH  40  43
ENDBRANCH   1  40
TORSDOF 16
ENDMDL
