MODEL 1
REMARK VINA RESULT:      -6.7      0.000      0.000
REMARK  Name = 
REMARK  12 active torsions:
REMARK  status: ('A' for Active; 'I' for Inactive)
REMARK    1  A    between atoms: C_3  and  O_37
REMARK    2  A    between atoms: C_4  and  O_36
REMARK    3  A    between atoms: C_6  and  C_7
REMARK    4  A    between atoms: C_8  and  O_20
REMARK    5  A    between atoms: C_12  and  O_19
REMARK    6  A    between atoms: C_14  and  O_18
REMARK    7  A    between atoms: O_20  and  C_21
REMARK    8  A    between atoms: C_23  and  O_35
REMARK    9  A    between atoms: C_24  and  O_34
REMARK   10  A    between atoms: C_25  and  O_33
REMARK   11  A    between atoms: C_27  and  C_30
REMARK   12  A    between atoms: C_30  and  O_32
REMARK                            x       y       z     vdW  Elec       q    Type
REMARK                         _______ _______ _______ _____ _____    ______ ____
ROOT
ATOM      1  C   UNL     1       5.623  -0.967  25.773  0.00  0.00    +0.181 A 
ATOM      2  O   UNL     1       4.551  -1.767  26.183  0.00  0.00    -0.451 OA
ATOM      3  C   UNL     1       4.138  -2.817  25.427  0.00  0.00    +0.147 A 
ATOM      4  C   UNL     1       4.722  -3.134  24.221  0.00  0.00    +0.109 A 
ATOM      5  C   UNL     1       4.219  -4.244  23.515  0.00  0.00    +0.135 A 
ATOM      6  C   UNL     1       3.175  -5.016  24.040  0.00  0.00    +0.091 A 
ATOM      7  C   UNL     1       2.623  -4.678  25.258  0.00  0.00    +0.124 A 
ATOM      8  C   UNL     1       5.871  -2.306  23.768  0.00  0.00    +0.238 A 
ATOM      9  O   UNL     1       6.448  -2.595  22.718  0.00  0.00    -0.283 OA
ATOM     10  C   UNL     1       3.091  -3.576  25.960  0.00  0.00    +0.092 A 
ATOM     11  C   UNL     1       6.337  -1.170  24.642  0.00  0.00    +0.214 A 
ENDROOT
BRANCH   1  13
ATOM     12  C   UNL     1       5.326   1.325  26.537  0.00  0.00    +0.015 A 
ATOM     13  C   UNL     1       5.848   0.041  26.813  0.00  0.00    +0.025 A 
ATOM     14  C   UNL     1       6.804  -0.108  27.821  0.00  0.00    +0.060 A 
ATOM     15  C   UNL     1       7.295   1.033  28.457  0.00  0.00    +0.159 A 
ATOM     16  C   UNL     1       6.853   2.305  28.096  0.00  0.00    +0.158 A 
ATOM     17  C   UNL     1       5.841   2.460  27.162  0.00  0.00    +0.050 A 
BRANCH  15  18
ATOM     18  O   UNL     1       8.283   0.911  29.392  0.00  0.00    -0.503 OA
ATOM     19  H   UNL     1       8.727   1.782  29.400  0.00  0.00    +0.292 HD
ENDBRANCH  15  18
BRANCH  16  20
ATOM     20  O   UNL     1       7.480   3.386  28.649  0.00  0.00    -0.503 OA
ATOM     21  H   UNL     1       8.108   3.055  29.315  0.00  0.00    +0.292 HD
ENDBRANCH  16  20
ENDBRANCH   1  13
BRANCH   5  22
ATOM     22  O   UNL     1       4.712  -4.642  22.302  0.00  0.00    -0.506 OA
ATOM     23  H   UNL     1       5.157  -5.512  22.407  0.00  0.00    +0.292 HD
ENDBRANCH   5  22
BRANCH   7  24
ATOM     24  O   UNL     1       1.615  -5.402  25.825  0.00  0.00    -0.507 OA
ATOM     25  H   UNL     1       1.209  -5.970  25.151  0.00  0.00    +0.292 HD
ENDBRANCH   7  24
BRANCH  11  26
ATOM     26  O   UNL     1       7.341  -0.298  24.215  0.00  0.00    -0.453 OA
BRANCH  26  27
ATOM     27  C   UNL     1       8.700  -0.603  24.598  0.00  0.00    +0.340 C 
ATOM     28  O   UNL     1       9.387   0.587  25.065  0.00  0.00    -0.322 OA
ATOM     29  C   UNL     1       9.697   1.575  24.061  0.00  0.00    +0.261 C 
ATOM     30  C   UNL     1      10.084   1.081  22.643  0.00  0.00    +0.185 C 
ATOM     31  C   UNL     1       9.391  -0.238  22.246  0.00  0.00    +0.180 C 
ATOM     32  C   UNL     1       9.563  -1.177  23.454  0.00  0.00    +0.214 C 
BRANCH  29  33
ATOM     33  C   UNL     1       8.627   2.645  24.110  0.00  0.00    +0.337 C 
ATOM     34  O   UNL     1       8.583   3.558  24.927  0.00  0.00    -0.248 OA
BRANCH  33  35
ATOM     35  O   UNL     1       7.659   2.451  23.180  0.00  0.00    -0.479 OA
ATOM     36  H   UNL     1       7.302   1.539  23.228  0.00  0.00    +0.295 HD
ENDBRANCH  33  35
ENDBRANCH  29  33
BRANCH  30  37
ATOM     37  O   UNL     1       9.984   2.073  21.621  0.00  0.00    -0.386 OA
ATOM     38  H   UNL     1      10.803   2.048  21.079  0.00  0.00    +0.210 HD
ENDBRANCH  30  37
BRANCH  31  39
ATOM     39  O   UNL     1       9.952  -0.797  21.054  0.00  0.00    -0.386 OA
ATOM     40  H   UNL     1       9.348  -0.650  20.307  0.00  0.00    +0.210 HD
ENDBRANCH  31  39
BRANCH  32  41
ATOM     41  O   UNL     1       9.352  -2.562  23.223  0.00  0.00    -0.383 OA
ATOM     42  H   UNL     1       8.540  -2.675  22.695  0.00  0.00    +0.210 HD
ENDBRANCH  32  41
ENDBRANCH  26  27
ENDBRANCH  11  26
TORSDOF 12
ENDMDL
MODEL 2
REMARK VINA RESULT:      -6.5      1.692      5.058
REMARK  Name = 
REMARK  12 active torsions:
REMARK  status: ('A' for Active; 'I' for Inactive)
REMARK    1  A    between atoms: C_3  and  O_37
REMARK    2  A    between atoms: C_4  and  O_36
REMARK    3  A    between atoms: C_6  and  C_7
REMARK    4  A    between atoms: C_8  and  O_20
REMARK    5  A    between atoms: C_12  and  O_19
REMARK    6  A    between atoms: C_14  and  O_18
REMARK    7  A    between atoms: O_20  and  C_21
REMARK    8  A    between atoms: C_23  and  O_35
REMARK    9  A    between atoms: C_24  and  O_34
REMARK   10  A    between atoms: C_25  and  O_33
REMARK   11  A    between atoms: C_27  and  C_30
REMARK   12  A    between atoms: C_30  and  O_32
REMARK                            x       y       z     vdW  Elec       q    Type
REMARK                         _______ _______ _______ _____ _____    ______ ____
ROOT
ATOM      1  C   UNL     1       6.935  -0.925  23.294  0.00  0.00    +0.181 A 
ATOM      2  O   UNL     1       6.910  -2.077  22.500  0.00  0.00    -0.451 OA
ATOM      3  C   UNL     1       6.113  -3.127  22.826  0.00  0.00    +0.147 A 
ATOM      4  C   UNL     1       5.318  -3.132  23.951  0.00  0.00    +0.109 A 
ATOM      5  C   UNL     1       4.529  -4.272  24.197  0.00  0.00    +0.135 A 
ATOM      6  C   UNL     1       4.533  -5.354  23.309  0.00  0.00    +0.091 A 
ATOM      7  C   UNL     1       5.331  -5.310  22.184  0.00  0.00    +0.124 A 
ATOM      8  C   UNL     1       5.319  -1.914  24.805  0.00  0.00    +0.238 A 
ATOM      9  O   UNL     1       4.580  -1.867  25.790  0.00  0.00    -0.283 OA
ATOM     10  C   UNL     1       6.132  -4.204  21.933  0.00  0.00    +0.092 A 
ATOM     11  C   UNL     1       6.181  -0.746  24.403  0.00  0.00    +0.214 A 
ENDROOT
BRANCH   1  13
ATOM     12  C   UNL     1       9.223  -0.281  22.766  0.00  0.00    +0.015 A 
ATOM     13  C   UNL     1       7.849   0.031  22.661  0.00  0.00    +0.025 A 
ATOM     14  C   UNL     1       7.465   1.327  22.307  0.00  0.00    +0.060 A 
ATOM     15  C   UNL     1       8.450   2.306  22.169  0.00  0.00    +0.159 A 
ATOM     16  C   UNL     1       9.795   2.010  22.387  0.00  0.00    +0.158 A 
ATOM     17  C   UNL     1      10.196   0.710  22.649  0.00  0.00    +0.050 A 
BRANCH  15  18
ATOM     18  O   UNL     1       8.087   3.594  21.897  0.00  0.00    -0.503 OA
ATOM     19  H   UNL     1       7.788   3.956  22.754  0.00  0.00    +0.292 HD
ENDBRANCH  15  18
BRANCH  16  20
ATOM     20  O   UNL     1      10.691   3.042  22.384  0.00  0.00    -0.503 OA
ATOM     21  H   UNL     1      10.305   3.768  21.861  0.00  0.00    +0.292 HD
ENDBRANCH  16  20
ENDBRANCH   1  13
BRANCH   5  22
ATOM     22  O   UNL     1       3.714  -4.392  25.290  0.00  0.00    -0.506 OA
ATOM     23  H   UNL     1       2.806  -4.104  25.045  0.00  0.00    +0.292 HD
ENDBRANCH   5  22
BRANCH   7  24
ATOM     24  O   UNL     1       5.365  -6.328  21.276  0.00  0.00    -0.507 OA
ATOM     25  H   UNL     1       6.251  -6.724  21.271  0.00  0.00    +0.292 HD
ENDBRANCH   7  24
BRANCH  11  26
ATOM     26  O   UNL     1       6.298   0.378  25.224  0.00  0.00    -0.453 OA
BRANCH  26  27
ATOM     27  C   UNL     1       5.245   1.364  25.164  0.00  0.00    +0.340 C 
ATOM     28  O   UNL     1       5.778   2.675  24.842  0.00  0.00    -0.322 OA
ATOM     29  C   UNL     1       6.565   3.310  25.871  0.00  0.00    +0.261 C 
ATOM     30  C   UNL     1       6.150   3.090  27.349  0.00  0.00    +0.185 C 
ATOM     31  C   UNL     1       5.504   1.714  27.605  0.00  0.00    +0.180 C 
ATOM     32  C   UNL     1       4.463   1.530  26.486  0.00  0.00    +0.214 C 
BRANCH  29  33
ATOM     33  C   UNL     1       8.026   3.067  25.560  0.00  0.00    +0.337 C 
ATOM     34  O   UNL     1       8.757   3.847  24.961  0.00  0.00    -0.248 OA
BRANCH  33  35
ATOM     35  O   UNL     1       8.442   1.839  25.960  0.00  0.00    -0.479 OA
ATOM     36  H   UNL     1       8.281   1.167  25.264  0.00  0.00    +0.295 HD
ENDBRANCH  33  35
ENDBRANCH  29  33
BRANCH  30  37
ATOM     37  O   UNL     1       7.168   3.394  28.302  0.00  0.00    -0.386 OA
ATOM     38  H   UNL     1       7.849   2.686  28.271  0.00  0.00    +0.210 HD
ENDBRANCH  30  37
BRANCH  31  39
ATOM     39  O   UNL     1       4.907   1.638  28.903  0.00  0.00    -0.386 OA
ATOM     40  H   UNL     1       5.263   0.872  29.383  0.00  0.00    +0.210 HD
ENDBRANCH  31  39
BRANCH  32  41
ATOM     41  O   UNL     1       3.473   0.533  26.689  0.00  0.00    -0.383 OA
ATOM     42  H   UNL     1       2.723   0.703  26.090  0.00  0.00    +0.210 HD
ENDBRANCH  32  41
ENDBRANCH  26  27
ENDBRANCH  11  26
TORSDOF 12
ENDMDL
MODEL 3
REMARK VINA RESULT:      -6.5      2.512      4.999
REMARK  Name = 
REMARK  12 active torsions:
REMARK  status: ('A' for Active; 'I' for Inactive)
REMARK    1  A    between atoms: C_3  and  O_37
REMARK    2  A    between atoms: C_4  and  O_36
REMARK    3  A    between atoms: C_6  and  C_7
REMARK    4  A    between atoms: C_8  and  O_20
REMARK    5  A    between atoms: C_12  and  O_19
REMARK    6  A    between atoms: C_14  and  O_18
REMARK    7  A    between atoms: O_20  and  C_21
REMARK    8  A    between atoms: C_23  and  O_35
REMARK    9  A    between atoms: C_24  and  O_34
REMARK   10  A    between atoms: C_25  and  O_33
REMARK   11  A    between atoms: C_27  and  C_30
REMARK   12  A    between atoms: C_30  and  O_32
REMARK                            x       y       z     vdW  Elec       q    Type
REMARK                         _______ _______ _______ _____ _____    ______ ____
ROOT
ATOM      1  C   UNL     1       7.512  -0.701  24.935  0.00  0.00    +0.181 A 
ATOM      2  O   UNL     1       8.041  -1.909  25.402  0.00  0.00    -0.451 OA
ATOM      3  C   UNL     1       7.282  -2.761  26.140  0.00  0.00    +0.147 A 
ATOM      4  C   UNL     1       5.979  -2.479  26.487  0.00  0.00    +0.109 A 
ATOM      5  C   UNL     1       5.279  -3.431  27.253  0.00  0.00    +0.135 A 
ATOM      6  C   UNL     1       5.883  -4.639  27.625  0.00  0.00    +0.091 A 
ATOM      7  C   UNL     1       7.185  -4.895  27.247  0.00  0.00    +0.124 A 
ATOM      8  C   UNL     1       5.390  -1.206  25.993  0.00  0.00    +0.238 A 
ATOM      9  O   UNL     1       4.212  -0.949  26.243  0.00  0.00    -0.283 OA
ATOM     10  C   UNL     1       7.899  -3.961  26.509  0.00  0.00    +0.092 A 
ATOM     11  C   UNL     1       6.238  -0.295  25.144  0.00  0.00    +0.214 A 
ENDROOT
BRANCH   1  13
ATOM     12  C   UNL     1       9.667   0.429  24.880  0.00  0.00    +0.015 A 
ATOM     13  C   UNL     1       8.553  -0.036  24.146  0.00  0.00    +0.025 A 
ATOM     14  C   UNL     1       8.334   0.446  22.853  0.00  0.00    +0.060 A 
ATOM     15  C   UNL     1       9.164   1.455  22.362  0.00  0.00    +0.159 A 
ATOM     16  C   UNL     1      10.191   1.985  23.141  0.00  0.00    +0.158 A 
ATOM     17  C   UNL     1      10.475   1.454  24.389  0.00  0.00    +0.050 A 
BRANCH  15  18
ATOM     18  O   UNL     1       8.918   1.990  21.130  0.00  0.00    -0.503 OA
ATOM     19  H   UNL     1       8.464   2.836  21.311  0.00  0.00    +0.292 HD
ENDBRANCH  15  18
BRANCH  16  20
ATOM     20  O   UNL     1      10.869   3.070  22.661  0.00  0.00    -0.503 OA
ATOM     21  H   UNL     1      11.821   2.901  22.781  0.00  0.00    +0.292 HD
ENDBRANCH  16  20
ENDBRANCH   1  13
BRANCH   5  22
ATOM     22  O   UNL     1       3.987  -3.251  27.667  0.00  0.00    -0.506 OA
ATOM     23  H   UNL     1       3.932  -2.420  28.190  0.00  0.00    +0.292 HD
ENDBRANCH   5  22
BRANCH   7  24
ATOM     24  O   UNL     1       7.819  -6.059  27.568  0.00  0.00    -0.507 OA
ATOM     25  H   UNL     1       7.378  -6.466  28.331  0.00  0.00    +0.292 HD
ENDBRANCH   7  24
BRANCH  11  26
ATOM     26  O   UNL     1       5.770   0.958  24.743  0.00  0.00    -0.453 OA
BRANCH  26  27
ATOM     27  C   UNL     1       5.417   1.903  25.777  0.00  0.00    +0.340 C 
ATOM     28  O   UNL     1       4.342   2.775  25.341  0.00  0.00    -0.322 OA
ATOM     29  C   UNL     1       4.680   3.737  24.320  0.00  0.00    +0.261 C 
ATOM     30  C   UNL     1       6.095   4.369  24.352  0.00  0.00    +0.185 C 
ATOM     31  C   UNL     1       7.175   3.424  24.914  0.00  0.00    +0.180 C 
ATOM     32  C   UNL     1       6.576   2.831  26.204  0.00  0.00    +0.214 C 
BRANCH  29  33
ATOM     33  C   UNL     1       4.246   3.174  22.983  0.00  0.00    +0.337 C 
ATOM     34  O   UNL     1       3.121   3.279  22.508  0.00  0.00    -0.248 OA
BRANCH  33  35
ATOM     35  O   UNL     1       5.231   2.465  22.377  0.00  0.00    -0.479 OA
ATOM     36  H   UNL     1       5.772   3.039  21.794  0.00  0.00    +0.295 HD
ENDBRANCH  33  35
ENDBRANCH  29  33
BRANCH  30  37
ATOM     37  O   UNL     1       6.499   4.982  23.127  0.00  0.00    -0.386 OA
ATOM     38  H   UNL     1       5.708   5.080  22.550  0.00  0.00    +0.210 HD
ENDBRANCH  30  37
BRANCH  31  39
ATOM     39  O   UNL     1       8.405   4.110  25.167  0.00  0.00    -0.386 OA
ATOM     40  H   UNL     1       8.611   4.699  24.422  0.00  0.00    +0.210 HD
ENDBRANCH  31  39
BRANCH  32  41
ATOM     41  O   UNL     1       7.484   2.226  27.111  0.00  0.00    -0.383 OA
ATOM     42  H   UNL     1       7.513   1.266  26.939  0.00  0.00    +0.210 HD
ENDBRANCH  32  41
ENDBRANCH  26  27
ENDBRANCH  11  26
TORSDOF 12
ENDMDL
MODEL 4
REMARK VINA RESULT:      -6.5      1.985      5.133
REMARK  Name = 
REMARK  12 active torsions:
REMARK  status: ('A' for Active; 'I' for Inactive)
REMARK    1  A    between atoms: C_3  and  O_37
REMARK    2  A    between atoms: C_4  and  O_36
REMARK    3  A    between atoms: C_6  and  C_7
REMARK    4  A    between atoms: C_8  and  O_20
REMARK    5  A    between atoms: C_12  and  O_19
REMARK    6  A    between atoms: C_14  and  O_18
REMARK    7  A    between atoms: O_20  and  C_21
REMARK    8  A    between atoms: C_23  and  O_35
REMARK    9  A    between atoms: C_24  and  O_34
REMARK   10  A    between atoms: C_25  and  O_33
REMARK   11  A    between atoms: C_27  and  C_30
REMARK   12  A    between atoms: C_30  and  O_32
REMARK                            x       y       z     vdW  Elec       q    Type
REMARK                         _______ _______ _______ _____ _____    ______ ____
ROOT
ATOM      1  C   UNL     1       5.947  -2.210  25.532  0.00  0.00    +0.181 A 
ATOM      2  O   UNL     1       5.042  -2.567  26.537  0.00  0.00    -0.451 OA
ATOM      3  C   UNL     1       4.814  -1.742  27.592  0.00  0.00    +0.147 A 
ATOM      4  C   UNL     1       5.467  -0.539  27.744  0.00  0.00    +0.109 A 
ATOM      5  C   UNL     1       5.156   0.243  28.873  0.00  0.00    +0.135 A 
ATOM      6  C   UNL     1       4.192  -0.180  29.796  0.00  0.00    +0.091 A 
ATOM      7  C   UNL     1       3.547  -1.384  29.605  0.00  0.00    +0.124 A 
ATOM      8  C   UNL     1       6.425  -0.131  26.682  0.00  0.00    +0.238 A 
ATOM      9  O   UNL     1       6.987   0.963  26.763  0.00  0.00    -0.283 OA
ATOM     10  C   UNL     1       3.853  -2.179  28.509  0.00  0.00    +0.092 A 
ATOM     11  C   UNL     1       6.634  -1.044  25.502  0.00  0.00    +0.214 A 
ENDROOT
BRANCH   1  13
ATOM     12  C   UNL     1       6.735  -4.403  24.829  0.00  0.00    +0.015 A 
ATOM     13  C   UNL     1       5.937  -3.277  24.527  0.00  0.00    +0.025 A 
ATOM     14  C   UNL     1       5.499  -3.080  23.214  0.00  0.00    +0.060 A 
ATOM     15  C   UNL     1       5.948  -3.946  22.217  0.00  0.00    +0.159 A 
ATOM     16  C   UNL     1       6.827  -4.988  22.512  0.00  0.00    +0.158 A 
ATOM     17  C   UNL     1       7.197  -5.248  23.821  0.00  0.00    +0.050 A 
BRANCH  15  18
ATOM     18  O   UNL     1       5.589  -3.724  20.918  0.00  0.00    -0.503 OA
ATOM     19  H   UNL     1       5.281  -2.797  20.900  0.00  0.00    +0.292 HD
ENDBRANCH  15  18
BRANCH  16  20
ATOM     20  O   UNL     1       7.347  -5.706  21.472  0.00  0.00    -0.503 OA
ATOM     21  H   UNL     1       7.833  -5.086  20.898  0.00  0.00    +0.292 HD
ENDBRANCH  16  20
ENDBRANCH   1  13
BRANCH   5  22
ATOM     22  O   UNL     1       5.753   1.447  29.133  0.00  0.00    -0.506 OA
ATOM     23  H   UNL     1       6.042   1.851  28.284  0.00  0.00    +0.292 HD
ENDBRANCH   5  22
BRANCH   7  24
ATOM     24  O   UNL     1       2.589  -1.839  30.463  0.00  0.00    -0.507 OA
ATOM     25  H   UNL     1       1.717  -1.752  30.046  0.00  0.00    +0.292 HD
ENDBRANCH   7  24
BRANCH  11  26
ATOM     26  O   UNL     1       7.597  -0.759  24.533  0.00  0.00    -0.453 OA
BRANCH  26  27
ATOM     27  C   UNL     1       8.985  -0.912  24.902  0.00  0.00    +0.340 C 
ATOM     28  O   UNL     1       9.591   0.374  25.193  0.00  0.00    -0.322 OA
ATOM     29  C   UNL     1       9.798   1.247  24.064  0.00  0.00    +0.261 C 
ATOM     30  C   UNL     1      10.184   0.607  22.706  0.00  0.00    +0.185 C 
ATOM     31  C   UNL     1       9.585  -0.799  22.500  0.00  0.00    +0.180 C 
ATOM     32  C   UNL     1       9.860  -1.563  23.808  0.00  0.00    +0.214 C 
BRANCH  29  33
ATOM     33  C   UNL     1       8.650   2.233  24.018  0.00  0.00    +0.337 C 
ATOM     34  O   UNL     1       7.915   2.411  23.053  0.00  0.00    -0.248 OA
BRANCH  33  35
ATOM     35  O   UNL     1       8.554   2.968  25.154  0.00  0.00    -0.479 OA
ATOM     36  H   UNL     1       8.216   2.424  25.898  0.00  0.00    +0.295 HD
ENDBRANCH  33  35
ENDBRANCH  29  33
BRANCH  30  37
ATOM     37  O   UNL     1       9.982   1.451  21.573  0.00  0.00    -0.386 OA
ATOM     38  H   UNL     1      10.850   1.826  21.302  0.00  0.00    +0.210 HD
ENDBRANCH  30  37
BRANCH  31  39
ATOM     39  O   UNL     1      10.157  -1.461  21.367  0.00  0.00    -0.386 OA
ATOM     40  H   UNL     1       9.648  -2.264  21.167  0.00  0.00    +0.210 HD
ENDBRANCH  31  39
BRANCH  32  41
ATOM     41  O   UNL     1       9.751  -2.977  23.758  0.00  0.00    -0.383 OA
ATOM     42  H   UNL     1      10.282  -3.310  23.011  0.00  0.00    +0.210 HD
ENDBRANCH  32  41
ENDBRANCH  26  27
ENDBRANCH  11  26
TORSDOF 12
ENDMDL
MODEL 5
REMARK VINA RESULT:      -6.5      1.941      6.502
REMARK  Name = 
REMARK  12 active torsions:
REMARK  status: ('A' for Active; 'I' for Inactive)
REMARK    1  A    between atoms: C_3  and  O_37
REMARK    2  A    between atoms: C_4  and  O_36
REMARK    3  A    between atoms: C_6  and  C_7
REMARK    4  A    between atoms: C_8  and  O_20
REMARK    5  A    between atoms: C_12  and  O_19
REMARK    6  A    between atoms: C_14  and  O_18
REMARK    7  A    between atoms: O_20  and  C_21
REMARK    8  A    between atoms: C_23  and  O_35
REMARK    9  A    between atoms: C_24  and  O_34
REMARK   10  A    between atoms: C_25  and  O_33
REMARK   11  A    between atoms: C_27  and  C_30
REMARK   12  A    between atoms: C_30  and  O_32
REMARK                            x       y       z     vdW  Elec       q    Type
REMARK                         _______ _______ _______ _____ _____    ______ ____
ROOT
ATOM      1  C   UNL     1       6.769  -0.919  25.145  0.00  0.00    +0.181 A 
ATOM      2  O   UNL     1       7.512   0.266  25.084  0.00  0.00    -0.451 OA
ATOM      3  C   UNL     1       8.309   0.531  24.017  0.00  0.00    +0.147 A 
ATOM      4  C   UNL     1       8.452  -0.346  22.964  0.00  0.00    +0.109 A 
ATOM      5  C   UNL     1       9.304   0.027  21.906  0.00  0.00    +0.135 A 
ATOM      6  C   UNL     1       9.961   1.263  21.914  0.00  0.00    +0.091 A 
ATOM      7  C   UNL     1       9.783   2.123  22.977  0.00  0.00    +0.124 A 
ATOM      8  C   UNL     1       7.664  -1.607  23.001  0.00  0.00    +0.238 A 
ATOM      9  O   UNL     1       7.731  -2.388  22.050  0.00  0.00    -0.283 OA
ATOM     10  C   UNL     1       8.965   1.767  24.040  0.00  0.00    +0.092 A 
ATOM     11  C   UNL     1       6.757  -1.862  24.176  0.00  0.00    +0.214 A 
ENDROOT
BRANCH   1  13
ATOM     12  C   UNL     1       4.644  -1.307  26.267  0.00  0.00    +0.015 A 
ATOM     13  C   UNL     1       5.988  -0.889  26.385  0.00  0.00    +0.025 A 
ATOM     14  C   UNL     1       6.383  -0.167  27.515  0.00  0.00    +0.060 A 
ATOM     15  C   UNL     1       5.415   0.211  28.445  0.00  0.00    +0.159 A 
ATOM     16  C   UNL     1       4.072  -0.112  28.258  0.00  0.00    +0.158 A 
ATOM     17  C   UNL     1       3.680  -0.903  27.189  0.00  0.00    +0.050 A 
BRANCH  15  18
ATOM     18  O   UNL     1       5.772   0.980  29.516  0.00  0.00    -0.503 OA
ATOM     19  H   UNL     1       5.872   1.882  29.153  0.00  0.00    +0.292 HD
ENDBRANCH  15  18
BRANCH  16  20
ATOM     20  O   UNL     1       3.155   0.415  29.123  0.00  0.00    -0.503 OA
ATOM     21  H   UNL     1       3.161   1.382  29.008  0.00  0.00    +0.292 HD
ENDBRANCH  16  20
ENDBRANCH   1  13
BRANCH   5  22
ATOM     22  O   UNL     1       9.532  -0.771  20.818  0.00  0.00    -0.506 OA
ATOM     23  H   UNL     1      10.471  -1.061  20.825  0.00  0.00    +0.292 HD
ENDBRANCH   5  22
BRANCH   7  24
ATOM     24  O   UNL     1      10.386   3.346  23.032  0.00  0.00    -0.507 OA
ATOM     25  H   UNL     1       9.708   4.039  23.013  0.00  0.00    +0.292 HD
ENDBRANCH   7  24
BRANCH  11  26
ATOM     26  O   UNL     1       6.077  -3.075  24.310  0.00  0.00    -0.453 OA
BRANCH  26  27
ATOM     27  C   UNL     1       6.820  -4.207  24.814  0.00  0.00    +0.340 C 
ATOM     28  O   UNL     1       7.194  -5.104  23.737  0.00  0.00    -0.322 OA
ATOM     29  C   UNL     1       6.118  -5.848  23.128  0.00  0.00    +0.261 C 
ATOM     30  C   UNL     1       4.954  -6.324  24.035  0.00  0.00    +0.185 C 
ATOM     31  C   UNL     1       4.670  -5.374  25.215  0.00  0.00    +0.180 C 
ATOM     32  C   UNL     1       6.043  -5.064  25.838  0.00  0.00    +0.214 C 
BRANCH  29  33
ATOM     33  C   UNL     1       5.706  -5.125  21.863  0.00  0.00    +0.337 C 
ATOM     34  O   UNL     1       6.107  -5.396  20.737  0.00  0.00    -0.248 OA
BRANCH  33  35
ATOM     35  O   UNL     1       4.881  -4.078  22.112  0.00  0.00    -0.479 OA
ATOM     36  H   UNL     1       5.168  -3.585  22.910  0.00  0.00    +0.295 HD
ENDBRANCH  33  35
ENDBRANCH  29  33
BRANCH  30  37
ATOM     37  O   UNL     1       3.765  -6.685  23.333  0.00  0.00    -0.386 OA
ATOM     38  H   UNL     1       3.895  -6.494  22.377  0.00  0.00    +0.210 HD
ENDBRANCH  30  37
BRANCH  31  39
ATOM     39  O   UNL     1       3.775  -5.958  26.167  0.00  0.00    -0.386 OA
ATOM     40  H   UNL     1       2.860  -5.878  25.848  0.00  0.00    +0.210 HD
ENDBRANCH  31  39
BRANCH  32  41
ATOM     41  O   UNL     1       6.043  -4.521  27.149  0.00  0.00    -0.383 OA
ATOM     42  H   UNL     1       6.354  -5.202  27.775  0.00  0.00    +0.210 HD
ENDBRANCH  32  41
ENDBRANCH  26  27
ENDBRANCH  11  26
TORSDOF 12
ENDMDL
MODEL 6
REMARK VINA RESULT:      -6.4      2.630      5.222
REMARK  Name = 
REMARK  12 active torsions:
REMARK  status: ('A' for Active; 'I' for Inactive)
REMARK    1  A    between atoms: C_3  and  O_37
REMARK    2  A    between atoms: C_4  and  O_36
REMARK    3  A    between atoms: C_6  and  C_7
REMARK    4  A    between atoms: C_8  and  O_20
REMARK    5  A    between atoms: C_12  and  O_19
REMARK    6  A    between atoms: C_14  and  O_18
REMARK    7  A    between atoms: O_20  and  C_21
REMARK    8  A    between atoms: C_23  and  O_35
REMARK    9  A    between atoms: C_24  and  O_34
REMARK   10  A    between atoms: C_25  and  O_33
REMARK   11  A    between atoms: C_27  and  C_30
REMARK   12  A    between atoms: C_30  and  O_32
REMARK                            x       y       z     vdW  Elec       q    Type
REMARK                         _______ _______ _______ _____ _____    ______ ____
ROOT
ATOM      1  C   UNL     1       6.544  -1.470  25.904  0.00  0.00    +0.181 A 
ATOM      2  O   UNL     1       5.736  -1.792  27.000  0.00  0.00    -0.451 OA
ATOM      3  C   UNL     1       5.000  -0.837  27.625  0.00  0.00    +0.147 A 
ATOM      4  C   UNL     1       5.025   0.485  27.239  0.00  0.00    +0.109 A 
ATOM      5  C   UNL     1       4.222   1.396  27.954  0.00  0.00    +0.135 A 
ATOM      6  C   UNL     1       3.404   0.963  29.004  0.00  0.00    +0.091 A 
ATOM      7  C   UNL     1       3.393  -0.372  29.353  0.00  0.00    +0.124 A 
ATOM      8  C   UNL     1       5.867   0.851  26.070  0.00  0.00    +0.238 A 
ATOM      9  O   UNL     1       5.871   2.016  25.669  0.00  0.00    -0.283 OA
ATOM     10  C   UNL     1       4.192  -1.283  28.676  0.00  0.00    +0.092 A 
ATOM     11  C   UNL     1       6.645  -0.232  25.368  0.00  0.00    +0.214 A 
ENDROOT
BRANCH   1  13
ATOM     12  C   UNL     1       6.560  -3.905  25.881  0.00  0.00    +0.015 A 
ATOM     13  C   UNL     1       7.168  -2.711  25.434  0.00  0.00    +0.025 A 
ATOM     14  C   UNL     1       8.461  -2.757  24.904  0.00  0.00    +0.060 A 
ATOM     15  C   UNL     1       9.155  -3.966  24.930  0.00  0.00    +0.159 A 
ATOM     16  C   UNL     1       8.584  -5.113  25.478  0.00  0.00    +0.158 A 
ATOM     17  C   UNL     1       7.272  -5.102  25.924  0.00  0.00    +0.050 A 
BRANCH  15  18
ATOM     18  O   UNL     1      10.446  -4.012  24.485  0.00  0.00    -0.503 OA
ATOM     19  H   UNL     1      10.401  -3.708  23.557  0.00  0.00    +0.292 HD
ENDBRANCH  15  18
BRANCH  16  20
ATOM     20  O   UNL     1       9.368  -6.224  25.610  0.00  0.00    -0.503 OA
ATOM     21  H   UNL     1       9.715  -6.448  24.727  0.00  0.00    +0.292 HD
ENDBRANCH  16  20
ENDBRANCH   1  13
BRANCH   5  22
ATOM     22  O   UNL     1       4.179   2.734  27.668  0.00  0.00    -0.506 OA
ATOM     23  H   UNL     1       5.067   3.125  27.832  0.00  0.00    +0.292 HD
ENDBRANCH   5  22
BRANCH   7  24
ATOM     24  O   UNL     1       2.605  -0.854  30.358  0.00  0.00    -0.507 OA
ATOM     25  H   UNL     1       2.006  -1.528  30.001  0.00  0.00    +0.292 HD
ENDBRANCH   7  24
BRANCH  11  26
ATOM     26  O   UNL     1       7.531   0.073  24.333  0.00  0.00    -0.453 OA
BRANCH  26  27
ATOM     27  C   UNL     1       7.020   0.041  22.983  0.00  0.00    +0.340 C 
ATOM     28  O   UNL     1       7.924  -0.674  22.101  0.00  0.00    -0.322 OA
ATOM     29  C   UNL     1       9.175  -0.017  21.808  0.00  0.00    +0.261 C 
ATOM     30  C   UNL     1       9.174   1.528  21.673  0.00  0.00    +0.185 C 
ATOM     31  C   UNL     1       8.125   2.220  22.566  0.00  0.00    +0.180 C 
ATOM     32  C   UNL     1       6.817   1.436  22.352  0.00  0.00    +0.214 C 
BRANCH  29  33
ATOM     33  C   UNL     1      10.233  -0.591  22.725  0.00  0.00    +0.337 C 
ATOM     34  O   UNL     1      10.740   0.001  23.671  0.00  0.00    -0.248 OA
BRANCH  33  35
ATOM     35  O   UNL     1      10.625  -1.834  22.348  0.00  0.00    -0.479 OA
ATOM     36  H   UNL     1      10.756  -2.414  23.128  0.00  0.00    +0.295 HD
ENDBRANCH  33  35
ENDBRANCH  29  33
BRANCH  30  37
ATOM     37  O   UNL     1      10.462   2.134  21.785  0.00  0.00    -0.386 OA
ATOM     38  H   UNL     1      11.133   1.514  21.420  0.00  0.00    +0.210 HD
ENDBRANCH  30  37
BRANCH  31  39
ATOM     39  O   UNL     1       7.974   3.605  22.236  0.00  0.00    -0.386 OA
ATOM     40  H   UNL     1       7.978   3.713  21.271  0.00  0.00    +0.210 HD
ENDBRANCH  31  39
BRANCH  32  41
ATOM     41  O   UNL     1       5.616   2.074  22.757  0.00  0.00    -0.383 OA
ATOM     42  H   UNL     1       5.544   2.934  22.303  0.00  0.00    +0.210 HD
ENDBRANCH  32  41
ENDBRANCH  26  27
ENDBRANCH  11  26
TORSDOF 12
ENDMDL
MODEL 7
REMARK VINA RESULT:      -6.4      1.381      1.447
REMARK  Name = 
REMARK  12 active torsions:
REMARK  status: ('A' for Active; 'I' for Inactive)
REMARK    1  A    between atoms: C_3  and  O_37
REMARK    2  A    between atoms: C_4  and  O_36
REMARK    3  A    between atoms: C_6  and  C_7
REMARK    4  A    between atoms: C_8  and  O_20
REMARK    5  A    between atoms: C_12  and  O_19
REMARK    6  A    between atoms: C_14  and  O_18
REMARK    7  A    between atoms: O_20  and  C_21
REMARK    8  A    between atoms: C_23  and  O_35
REMARK    9  A    between atoms: C_24  and  O_34
REMARK   10  A    between atoms: C_25  and  O_33
REMARK   11  A    between atoms: C_27  and  C_30
REMARK   12  A    between atoms: C_30  and  O_32
REMARK                            x       y       z     vdW  Elec       q    Type
REMARK                         _______ _______ _______ _____ _____    ______ ____
ROOT
ATOM      1  C   UNL     1       5.842  -2.160  25.751  0.00  0.00    +0.181 A 
ATOM      2  O   UNL     1       4.998  -3.173  26.220  0.00  0.00    -0.451 OA
ATOM      3  C   UNL     1       4.928  -4.369  25.581  0.00  0.00    +0.147 A 
ATOM      4  C   UNL     1       5.650  -4.642  24.440  0.00  0.00    +0.109 A 
ATOM      5  C   UNL     1       5.505  -5.916  23.856  0.00  0.00    +0.135 A 
ATOM      6  C   UNL     1       4.674  -6.882  24.436  0.00  0.00    +0.091 A 
ATOM      7  C   UNL     1       3.977  -6.579  25.588  0.00  0.00    +0.124 A 
ATOM      8  C   UNL     1       6.562  -3.586  23.929  0.00  0.00    +0.238 A 
ATOM      9  O   UNL     1       7.260  -3.817  22.940  0.00  0.00    -0.283 OA
ATOM     10  C   UNL     1       4.089  -5.324  26.168  0.00  0.00    +0.092 A 
ATOM     11  C   UNL     1       6.653  -2.280  24.676  0.00  0.00    +0.214 A 
ENDROOT
BRANCH   1  13
ATOM     12  C   UNL     1       4.681  -0.116  26.384  0.00  0.00    +0.015 A 
ATOM     13  C   UNL     1       5.724  -1.024  26.670  0.00  0.00    +0.025 A 
ATOM     14  C   UNL     1       6.753  -0.635  27.532  0.00  0.00    +0.060 A 
ATOM     15  C   UNL     1       6.777   0.678  28.004  0.00  0.00    +0.159 A 
ATOM     16  C   UNL     1       5.801   1.597  27.622  0.00  0.00    +0.158 A 
ATOM     17  C   UNL     1       4.727   1.200  26.841  0.00  0.00    +0.050 A 
BRANCH  15  18
ATOM     18  O   UNL     1       7.815   1.095  28.787  0.00  0.00    -0.503 OA
ATOM     19  H   UNL     1       8.606   0.671  28.399  0.00  0.00    +0.292 HD
ENDBRANCH  15  18
BRANCH  16  20
ATOM     20  O   UNL     1       5.962   2.901  27.995  0.00  0.00    -0.503 OA
ATOM     21  H   UNL     1       6.690   3.273  27.464  0.00  0.00    +0.292 HD
ENDBRANCH  16  20
ENDBRANCH   1  13
BRANCH   5  22
ATOM     22  O   UNL     1       6.161  -6.291  22.715  0.00  0.00    -0.506 OA
ATOM     23  H   UNL     1       7.089  -5.967  22.759  0.00  0.00    +0.292 HD
ENDBRANCH   5  22
BRANCH   7  24
ATOM     24  O   UNL     1       3.164  -7.485  26.205  0.00  0.00    -0.507 OA
ATOM     25  H   UNL     1       3.618  -8.341  26.255  0.00  0.00    +0.292 HD
ENDBRANCH   7  24
BRANCH  11  26
ATOM     26  O   UNL     1       7.413  -1.219  24.180  0.00  0.00    -0.453 OA
BRANCH  26  27
ATOM     27  C   UNL     1       8.752  -1.054  24.697  0.00  0.00    +0.340 C 
ATOM     28  O   UNL     1       9.035   0.342  24.973  0.00  0.00    -0.322 OA
ATOM     29  C   UNL     1       9.178   1.199  23.821  0.00  0.00    +0.261 C 
ATOM     30  C   UNL     1       9.840   0.610  22.549  0.00  0.00    +0.185 C 
ATOM     31  C   UNL     1       9.579  -0.898  22.365  0.00  0.00    +0.180 C 
ATOM     32  C   UNL     1       9.862  -1.538  23.738  0.00  0.00    +0.214 C 
BRANCH  29  33
ATOM     33  C   UNL     1       7.859   1.911  23.601  0.00  0.00    +0.337 C 
ATOM     34  O   UNL     1       7.481   2.897  24.222  0.00  0.00    -0.248 OA
BRANCH  33  35
ATOM     35  O   UNL     1       7.088   1.294  22.672  0.00  0.00    -0.479 OA
ATOM     36  H   UNL     1       7.640   0.844  21.997  0.00  0.00    +0.295 HD
ENDBRANCH  33  35
ENDBRANCH  29  33
BRANCH  30  37
ATOM     37  O   UNL     1       9.592   1.351  21.354  0.00  0.00    -0.386 OA
ATOM     38  H   UNL     1       8.928   0.864  20.816  0.00  0.00    +0.210 HD
ENDBRANCH  30  37
BRANCH  31  39
ATOM     39  O   UNL     1      10.402  -1.460  21.338  0.00  0.00    -0.386 OA
ATOM     40  H   UNL     1      10.490  -0.827  20.606  0.00  0.00    +0.210 HD
ENDBRANCH  31  39
BRANCH  32  41
ATOM     41  O   UNL     1      10.060  -2.943  23.760  0.00  0.00    -0.383 OA
ATOM     42  H   UNL     1       9.947  -3.293  22.857  0.00  0.00    +0.210 HD
ENDBRANCH  32  41
ENDBRANCH  26  27
ENDBRANCH  11  26
TORSDOF 12
ENDMDL
MODEL 8
REMARK VINA RESULT:      -6.4      2.012      4.981
REMARK  Name = 
REMARK  12 active torsions:
REMARK  status: ('A' for Active; 'I' for Inactive)
REMARK    1  A    between atoms: C_3  and  O_37
REMARK    2  A    between atoms: C_4  and  O_36
REMARK    3  A    between atoms: C_6  and  C_7
REMARK    4  A    between atoms: C_8  and  O_20
REMARK    5  A    between atoms: C_12  and  O_19
REMARK    6  A    between atoms: C_14  and  O_18
REMARK    7  A    between atoms: O_20  and  C_21
REMARK    8  A    between atoms: C_23  and  O_35
REMARK    9  A    between atoms: C_24  and  O_34
REMARK   10  A    between atoms: C_25  and  O_33
REMARK   11  A    between atoms: C_27  and  C_30
REMARK   12  A    between atoms: C_30  and  O_32
REMARK                            x       y       z     vdW  Elec       q    Type
REMARK                         _______ _______ _______ _____ _____    ______ ____
ROOT
ATOM      1  C   UNL     1       6.925  -1.112  23.198  0.00  0.00    +0.181 A 
ATOM      2  O   UNL     1       7.158  -2.357  22.604  0.00  0.00    -0.451 OA
ATOM      3  C   UNL     1       6.474  -3.459  23.008  0.00  0.00    +0.147 A 
ATOM      4  C   UNL     1       5.545  -3.421  24.025  0.00  0.00    +0.109 A 
ATOM      5  C   UNL     1       4.890  -4.620  24.365  0.00  0.00    +0.135 A 
ATOM      6  C   UNL     1       5.155  -5.806  23.670  0.00  0.00    +0.091 A 
ATOM      7  C   UNL     1       6.081  -5.804  22.647  0.00  0.00    +0.124 A 
ATOM      8  C   UNL     1       5.271  -2.107  24.664  0.00  0.00    +0.238 A 
ATOM      9  O   UNL     1       4.410  -2.031  25.542  0.00  0.00    -0.283 OA
ATOM     10  C   UNL     1       6.753  -4.638  22.309  0.00  0.00    +0.092 A 
ATOM     11  C   UNL     1       6.015  -0.891  24.174  0.00  0.00    +0.214 A 
ENDROOT
BRANCH   1  13
ATOM     12  C   UNL     1       9.138  -0.492  22.396  0.00  0.00    +0.015 A 
ATOM     13  C   UNL     1       7.778  -0.131  22.522  0.00  0.00    +0.025 A 
ATOM     14  C   UNL     1       7.404   1.204  22.341  0.00  0.00    +0.060 A 
ATOM     15  C   UNL     1       8.400   2.161  22.144  0.00  0.00    +0.159 A 
ATOM     16  C   UNL     1       9.748   1.805  22.135  0.00  0.00    +0.158 A 
ATOM     17  C   UNL     1      10.127   0.475  22.223  0.00  0.00    +0.050 A 
BRANCH  15  18
ATOM     18  O   UNL     1       8.058   3.479  22.040  0.00  0.00    -0.503 OA
ATOM     19  H   UNL     1       7.147   3.472  21.685  0.00  0.00    +0.292 HD
ENDBRANCH  15  18
BRANCH  16  20
ATOM     20  O   UNL     1      10.678   2.806  22.089  0.00  0.00    -0.503 OA
ATOM     21  H   UNL     1      10.213   3.649  22.236  0.00  0.00    +0.292 HD
ENDBRANCH  16  20
ENDBRANCH   1  13
BRANCH   5  22
ATOM     22  O   UNL     1       3.961  -4.703  25.367  0.00  0.00    -0.506 OA
ATOM     23  H   UNL     1       4.189  -4.052  26.068  0.00  0.00    +0.292 HD
ENDBRANCH   5  22
BRANCH   7  24
ATOM     24  O   UNL     1       6.369  -6.926  21.925  0.00  0.00    -0.507 OA
ATOM     25  H   UNL     1       6.161  -7.712  22.456  0.00  0.00    +0.292 HD
ENDBRANCH   7  24
BRANCH  11  26
ATOM     26  O   UNL     1       5.872   0.344  24.810  0.00  0.00    -0.453 OA
BRANCH  26  27
ATOM     27  C   UNL     1       6.521   0.519  26.088  0.00  0.00    +0.340 C 
ATOM     28  O   UNL     1       5.561   0.876  27.115  0.00  0.00    -0.322 OA
ATOM     29  C   UNL     1       4.990   2.197  27.018  0.00  0.00    +0.261 C 
ATOM     30  C   UNL     1       5.894   3.348  26.505  0.00  0.00    +0.185 C 
ATOM     31  C   UNL     1       6.955   2.884  25.487  0.00  0.00    +0.180 C 
ATOM     32  C   UNL     1       7.598   1.627  26.101  0.00  0.00    +0.214 C 
BRANCH  29  33
ATOM     33  C   UNL     1       3.641   2.076  26.342  0.00  0.00    +0.337 C 
ATOM     34  O   UNL     1       2.589   1.815  26.915  0.00  0.00    -0.248 OA
BRANCH  33  35
ATOM     35  O   UNL     1       3.722   2.222  24.996  0.00  0.00    -0.479 OA
ATOM     36  H   UNL     1       4.656   2.237  24.698  0.00  0.00    +0.295 HD
ENDBRANCH  33  35
ENDBRANCH  29  33
BRANCH  30  37
ATOM     37  O   UNL     1       5.186   4.504  26.057  0.00  0.00    -0.386 OA
ATOM     38  H   UNL     1       5.486   4.723  25.147  0.00  0.00    +0.210 HD
ENDBRANCH  30  37
BRANCH  31  39
ATOM     39  O   UNL     1       7.926   3.904  25.227  0.00  0.00    -0.386 OA
ATOM     40  H   UNL     1       8.088   4.415  26.037  0.00  0.00    +0.210 HD
ENDBRANCH  31  39
BRANCH  32  41
ATOM     41  O   UNL     1       8.844   1.215  25.560  0.00  0.00    -0.383 OA
ATOM     42  H   UNL     1       8.749   1.101  24.596  0.00  0.00    +0.210 HD
ENDBRANCH  32  41
ENDBRANCH  26  27
ENDBRANCH  11  26
TORSDOF 12
ENDMDL
MODEL 9
REMARK VINA RESULT:      -6.4      2.189      6.384
REMARK  Name = 
REMARK  12 active torsions:
REMARK  status: ('A' for Active; 'I' for Inactive)
REMARK    1  A    between atoms: C_3  and  O_37
REMARK    2  A    between atoms: C_4  and  O_36
REMARK    3  A    between atoms: C_6  and  C_7
REMARK    4  A    between atoms: C_8  and  O_20
REMARK    5  A    between atoms: C_12  and  O_19
REMARK    6  A    between atoms: C_14  and  O_18
REMARK    7  A    between atoms: O_20  and  C_21
REMARK    8  A    between atoms: C_23  and  O_35
REMARK    9  A    between atoms: C_24  and  O_34
REMARK   10  A    between atoms: C_25  and  O_33
REMARK   11  A    between atoms: C_27  and  C_30
REMARK   12  A    between atoms: C_30  and  O_32
REMARK                            x       y       z     vdW  Elec       q    Type
REMARK                         _______ _______ _______ _____ _____    ______ ____
ROOT
ATOM      1  C   UNL     1       7.401  -0.120  25.296  0.00  0.00    +0.181 A 
ATOM      2  O   UNL     1       7.400   0.956  26.190  0.00  0.00    -0.451 OA
ATOM      3  C   UNL     1       6.638   0.924  27.314  0.00  0.00    +0.147 A 
ATOM      4  C   UNL     1       5.817  -0.139  27.620  0.00  0.00    +0.109 A 
ATOM      5  C   UNL     1       5.068  -0.072  28.812  0.00  0.00    +0.135 A 
ATOM      6  C   UNL     1       5.180   1.029  29.670  0.00  0.00    +0.091 A 
ATOM      7  C   UNL     1       6.023   2.069  29.338  0.00  0.00    +0.124 A 
ATOM      8  C   UNL     1       5.809  -1.300  26.692  0.00  0.00    +0.238 A 
ATOM      9  O   UNL     1       5.124  -2.287  26.965  0.00  0.00    -0.283 OA
ATOM     10  C   UNL     1       6.754   2.033  28.159  0.00  0.00    +0.092 A 
ATOM     11  C   UNL     1       6.692  -1.259  25.471  0.00  0.00    +0.214 A 
ENDROOT
BRANCH   1  13
ATOM     12  C   UNL     1       9.618   0.645  24.641  0.00  0.00    +0.015 A 
ATOM     13  C   UNL     1       8.346   0.198  24.220  0.00  0.00    +0.025 A 
ATOM     14  C   UNL     1       7.946   0.413  22.898  0.00  0.00    +0.060 A 
ATOM     15  C   UNL     1       8.774   1.158  22.058  0.00  0.00    +0.159 A 
ATOM     16  C   UNL     1       9.976   1.691  22.521  0.00  0.00    +0.158 A 
ATOM     17  C   UNL     1      10.426   1.409  23.801  0.00  0.00    +0.050 A 
BRANCH  15  18
ATOM     18  O   UNL     1       8.365   1.441  20.786  0.00  0.00    -0.503 OA
ATOM     19  H   UNL     1       8.584   0.641  20.270  0.00  0.00    +0.292 HD
ENDBRANCH  15  18
BRANCH  16  20
ATOM     20  O   UNL     1      10.667   2.535  21.697  0.00  0.00    -0.503 OA
ATOM     21  H   UNL     1      10.941   3.306  22.225  0.00  0.00    +0.292 HD
ENDBRANCH  16  20
ENDBRANCH   1  13
BRANCH   5  22
ATOM     22  O   UNL     1       4.211  -1.061  29.209  0.00  0.00    -0.506 OA
ATOM     23  H   UNL     1       4.284  -1.818  28.585  0.00  0.00    +0.292 HD
ENDBRANCH   5  22
BRANCH   7  24
ATOM     24  O   UNL     1       6.183   3.160  30.142  0.00  0.00    -0.507 OA
ATOM     25  H   UNL     1       6.702   3.832  29.672  0.00  0.00    +0.292 HD
ENDBRANCH   7  24
BRANCH  11  26
ATOM     26  O   UNL     1       6.644  -2.275  24.514  0.00  0.00    -0.453 OA
BRANCH  26  27
ATOM     27  C   UNL     1       7.820  -3.097  24.350  0.00  0.00    +0.340 C 
ATOM     28  O   UNL     1       7.876  -3.664  23.016  0.00  0.00    -0.322 OA
ATOM     29  C   UNL     1       6.899  -4.682  22.718  0.00  0.00    +0.261 C 
ATOM     30  C   UNL     1       6.489  -5.656  23.853  0.00  0.00    +0.185 C 
ATOM     31  C   UNL     1       6.541  -5.018  25.255  0.00  0.00    +0.180 C 
ATOM     32  C   UNL     1       7.896  -4.290  25.329  0.00  0.00    +0.214 C 
BRANCH  29  33
ATOM     33  C   UNL     1       5.754  -4.029  21.973  0.00  0.00    +0.337 C 
ATOM     34  O   UNL     1       5.762  -3.745  20.781  0.00  0.00    -0.248 OA
BRANCH  33  35
ATOM     35  O   UNL     1       4.716  -3.720  22.789  0.00  0.00    -0.479 OA
ATOM     36  H   UNL     1       3.935  -3.427  22.272  0.00  0.00    +0.295 HD
ENDBRANCH  33  35
ENDBRANCH  29  33
BRANCH  30  37
ATOM     37  O   UNL     1       5.265  -6.354  23.623  0.00  0.00    -0.386 OA
ATOM     38  H   UNL     1       5.383  -6.947  22.847  0.00  0.00    +0.210 HD
ENDBRANCH  30  37
BRANCH  31  39
ATOM     39  O   UNL     1       6.408  -5.996  26.291  0.00  0.00    -0.386 OA
ATOM     40  H   UNL     1       6.471  -5.564  27.159  0.00  0.00    +0.210 HD
ENDBRANCH  31  39
BRANCH  32  41
ATOM     41  O   UNL     1       8.363  -3.935  26.621  0.00  0.00    -0.383 OA
ATOM     42  H   UNL     1       9.284  -3.621  26.551  0.00  0.00    +0.210 HD
ENDBRANCH  32  41
ENDBRANCH  26  27
ENDBRANCH  11  26
TORSDOF 12
ENDMDL
