MODEL 1
REMARK VINA RESULT:      -7.2      0.000      0.000
REMARK  Name = 
REMARK  16 active torsions:
REMARK  status: ('A' for Active; 'I' for Inactive)
REMARK    1  A    between atoms: C_3  and  O_49
REMARK    2  A    between atoms: C_6  and  C_7
REMARK    3  A    between atoms: C_8  and  C_9
REMARK    4  A    between atoms: C_9  and  O_11
REMARK    5  A    between atoms: O_11  and  C_12
REMARK    6  A    between atoms: C_12  and  C_13
REMARK    7  A    between atoms: C_15  and  O_48
REMARK    8  A    between atoms: C_17  and  O_47
REMARK    9  A    between atoms: C_19  and  O_46
REMARK   10  A    between atoms: C_21  and  O_24
REMARK   11  A    between atoms: O_24  and  C_25
REMARK   12  A    between atoms: C_26  and  C_38
REMARK   13  A    between atoms: C_30  and  O_37
REMARK   14  A    between atoms: C_32  and  O_36
REMARK   15  A    between atoms: C_40  and  O_45
REMARK   16  A    between atoms: C_41  and  O_44
REMARK                            x       y       z     vdW  Elec       q    Type
REMARK                         _______ _______ _______ _____ _____    ______ ____
ROOT
ATOM      1  C   UNL     1       7.476  -5.930  23.939  0.00  0.00    +0.191 C 
ATOM      2  O   UNL     1       6.699  -4.935  24.627  0.00  0.00    -0.330 OA
ATOM      3  C   UNL     1       5.288  -5.086  24.348  0.00  0.00    +0.340 C 
ATOM      4  C   UNL     1       4.971  -4.976  22.831  0.00  0.00    +0.214 C 
ATOM      5  C   UNL     1       5.911  -5.884  22.033  0.00  0.00    +0.180 C 
ATOM      6  C   UNL     1       7.361  -5.638  22.441  0.00  0.00    +0.178 C 
ENDROOT
BRANCH   6   7
ATOM      7  O   UNL     1       7.719  -4.277  22.162  0.00  0.00    -0.386 OA
ATOM      8  H   UNL     1       8.662  -4.152  22.391  0.00  0.00    +0.210 HD
ENDBRANCH   6   7
BRANCH   5   9
ATOM      9  O   UNL     1       5.696  -5.695  20.631  0.00  0.00    -0.386 OA
ATOM     10  H   UNL     1       6.451  -5.182  20.283  0.00  0.00    +0.210 HD
ENDBRANCH   5   9
BRANCH   4  11
ATOM     11  O   UNL     1       3.592  -5.329  22.587  0.00  0.00    -0.383 OA
ATOM     12  H   UNL     1       3.111  -5.214  23.427  0.00  0.00    +0.210 HD
ENDBRANCH   4  11
BRANCH   3  13
ATOM     13  O   UNL     1       4.559  -4.028  24.968  0.00  0.00    -0.453 OA
BRANCH  13  14
ATOM     14  C   UNL     1       5.160  -2.894  25.479  0.00  0.00    +0.214 A 
ATOM     15  C   UNL     1       5.683  -1.783  24.627  0.00  0.00    +0.238 A 
ATOM     16  O   UNL     1       5.936  -1.938  23.439  0.00  0.00    -0.283 OA
ATOM     17  C   UNL     1       5.956  -0.499  25.291  0.00  0.00    +0.109 A 
ATOM     18  C   UNL     1       5.945  -0.478  26.685  0.00  0.00    +0.147 A 
ATOM     19  C   UNL     1       6.160   0.722  27.370  0.00  0.00    +0.092 A 
ATOM     20  C   UNL     1       6.415   1.886  26.645  0.00  0.00    +0.124 A 
ATOM     21  C   UNL     1       6.463   1.871  25.258  0.00  0.00    +0.091 A 
ATOM     22  O   UNL     1       5.761  -1.609  27.444  0.00  0.00    -0.451 OA
ATOM     23  C   UNL     1       6.232   0.677  24.580  0.00  0.00    +0.135 A 
ATOM     24  C   UNL     1       5.322  -2.769  26.816  0.00  0.00    +0.181 A 
BRANCH  24  25
ATOM     25  C   UNL     1       5.040  -3.894  27.762  0.00  0.00    +0.025 A 
ATOM     26  C   UNL     1       3.841  -3.951  28.495  0.00  0.00    +0.015 A 
ATOM     27  C   UNL     1       3.575  -5.017  29.371  0.00  0.00    +0.050 A 
ATOM     28  C   UNL     1       4.510  -6.031  29.516  0.00  0.00    +0.158 A 
ATOM     29  C   UNL     1       5.712  -5.982  28.827  0.00  0.00    +0.159 A 
ATOM     30  C   UNL     1       5.994  -4.913  27.982  0.00  0.00    +0.060 A 
BRANCH  29  31
ATOM     31  O   UNL     1       6.593  -7.015  29.001  0.00  0.00    -0.503 OA
ATOM     32  H   UNL     1       6.492  -7.343  29.914  0.00  0.00    +0.292 HD
ENDBRANCH  29  31
BRANCH  28  33
ATOM     33  O   UNL     1       4.239  -7.086  30.341  0.00  0.00    -0.503 OA
ATOM     34  H   UNL     1       3.720  -6.697  31.073  0.00  0.00    +0.292 HD
ENDBRANCH  28  33
ENDBRANCH  24  25
BRANCH  20  35
ATOM     35  O   UNL     1       6.628   3.088  27.260  0.00  0.00    -0.507 OA
ATOM     36  H   UNL     1       7.449   3.037  27.777  0.00  0.00    +0.292 HD
ENDBRANCH  20  35
BRANCH  23  37
ATOM     37  O   UNL     1       6.266   0.685  23.214  0.00  0.00    -0.506 OA
ATOM     38  H   UNL     1       5.543   1.225  22.860  0.00  0.00    +0.292 HD
ENDBRANCH  23  37
ENDBRANCH  13  14
ENDBRANCH   3  13
BRANCH   1  39
ATOM     39  C   UNL     1       8.955  -5.946  24.372  0.00  0.00    +0.266 C 
BRANCH  39  40
ATOM     40  O   UNL     1       9.490  -4.601  24.496  0.00  0.00    -0.459 OA
BRANCH  40  41
ATOM     41  C   UNL     1       9.202  -3.945  25.650  0.00  0.00    +0.332 C 
ATOM     42  O   UNL     1       9.130  -4.454  26.756  0.00  0.00    -0.246 OA
BRANCH  41  44
ATOM     43  C   UNL     1       9.696  -2.005  24.267  0.00  0.00    +0.015 C 
ATOM     44  C   UNL     1       9.136  -2.487  25.389  0.00  0.00    +0.092 C 
BRANCH  43  46
ATOM     45  C   UNL     1       9.553  -0.259  22.443  0.00  0.00    +0.011 A 
ATOM     46  C   UNL     1       9.677  -0.609  23.794  0.00  0.00    -0.025 A 
ATOM     47  C   UNL     1       9.906   0.415  24.730  0.00  0.00    +0.011 A 
ATOM     48  C   UNL     1      10.011   1.750  24.326  0.00  0.00    +0.046 A 
ATOM     49  C   UNL     1       9.899   2.072  22.981  0.00  0.00    +0.117 A 
ATOM     50  C   UNL     1       9.665   1.078  22.036  0.00  0.00    +0.046 A 
BRANCH  49  51
ATOM     51  O   UNL     1      10.046   3.379  22.626  0.00  0.00    -0.507 OA
ATOM     52  H   UNL     1       9.239   3.862  22.866  0.00  0.00    +0.292 HD
ENDBRANCH  49  51
ENDBRANCH  43  46
ENDBRANCH  41  44
ENDBRANCH  40  41
ENDBRANCH  39  40
ENDBRANCH   1  39
TORSDOF 16
ENDMDL
MODEL 2
REMARK VINA RESULT:      -7.2      2.360      4.598
REMARK  Name = 
REMARK  16 active torsions:
REMARK  status: ('A' for Active; 'I' for Inactive)
REMARK    1  A    between atoms: C_3  and  O_49
REMARK    2  A    between atoms: C_6  and  C_7
REMARK    3  A    between atoms: C_8  and  C_9
REMARK    4  A    between atoms: C_9  and  O_11
REMARK    5  A    between atoms: O_11  and  C_12
REMARK    6  A    between atoms: C_12  and  C_13
REMARK    7  A    between atoms: C_15  and  O_48
REMARK    8  A    between atoms: C_17  and  O_47
REMARK    9  A    between atoms: C_19  and  O_46
REMARK   10  A    between atoms: C_21  and  O_24
REMARK   11  A    between atoms: O_24  and  C_25
REMARK   12  A    between atoms: C_26  and  C_38
REMARK   13  A    between atoms: C_30  and  O_37
REMARK   14  A    between atoms: C_32  and  O_36
REMARK   15  A    between atoms: C_40  and  O_45
REMARK   16  A    between atoms: C_41  and  O_44
REMARK                            x       y       z     vdW  Elec       q    Type
REMARK                         _______ _______ _______ _____ _____    ______ ____
ROOT
ATOM      1  C   UNL     1       9.775  -1.964  24.197  0.00  0.00    +0.191 C 
ATOM      2  O   UNL     1       8.581  -1.579  24.900  0.00  0.00    -0.330 OA
ATOM      3  C   UNL     1       8.434  -2.321  26.132  0.00  0.00    +0.340 C 
ATOM      4  C   UNL     1       8.374  -3.855  25.893  0.00  0.00    +0.214 C 
ATOM      5  C   UNL     1       9.529  -4.288  24.984  0.00  0.00    +0.180 C 
ATOM      6  C   UNL     1       9.582  -3.410  23.737  0.00  0.00    +0.178 C 
ENDROOT
BRANCH   6   7
ATOM      7  O   UNL     1       8.362  -3.547  22.995  0.00  0.00    -0.386 OA
ATOM      8  H   UNL     1       7.950  -4.402  23.231  0.00  0.00    +0.210 HD
ENDBRANCH   6   7
BRANCH   5   9
ATOM      9  O   UNL     1       9.407  -5.679  24.672  0.00  0.00    -0.386 OA
ATOM     10  H   UNL     1       9.227  -5.751  23.714  0.00  0.00    +0.210 HD
ENDBRANCH   5   9
BRANCH   4  11
ATOM     11  O   UNL     1       8.428  -4.555  27.155  0.00  0.00    -0.383 OA
ATOM     12  H   UNL     1       8.758  -3.925  27.821  0.00  0.00    +0.210 HD
ENDBRANCH   4  11
BRANCH   3  13
ATOM     13  O   UNL     1       7.195  -1.984  26.752  0.00  0.00    -0.453 OA
BRANCH  13  14
ATOM     14  C   UNL     1       6.514  -0.810  26.493  0.00  0.00    +0.214 A 
ATOM     15  C   UNL     1       6.803   0.481  27.188  0.00  0.00    +0.238 A 
ATOM     16  O   UNL     1       7.399   0.525  28.256  0.00  0.00    -0.283 OA
ATOM     17  C   UNL     1       6.275   1.708  26.572  0.00  0.00    +0.109 A 
ATOM     18  C   UNL     1       5.350   1.565  25.539  0.00  0.00    +0.147 A 
ATOM     19  C   UNL     1       4.843   2.696  24.890  0.00  0.00    +0.092 A 
ATOM     20  C   UNL     1       5.248   3.963  25.309  0.00  0.00    +0.124 A 
ATOM     21  C   UNL     1       6.142   4.119  26.360  0.00  0.00    +0.091 A 
ATOM     22  O   UNL     1       4.872   0.342  25.132  0.00  0.00    -0.451 OA
ATOM     23  C   UNL     1       6.657   2.990  26.991  0.00  0.00    +0.135 A 
ATOM     24  C   UNL     1       5.510  -0.807  25.586  0.00  0.00    +0.181 A 
BRANCH  24  25
ATOM     25  C   UNL     1       4.979  -2.068  24.980  0.00  0.00    +0.025 A 
ATOM     26  C   UNL     1       4.016  -2.850  25.643  0.00  0.00    +0.015 A 
ATOM     27  C   UNL     1       3.512  -4.025  25.062  0.00  0.00    +0.050 A 
ATOM     28  C   UNL     1       3.970  -4.424  23.815  0.00  0.00    +0.158 A 
ATOM     29  C   UNL     1       4.941  -3.685  23.156  0.00  0.00    +0.159 A 
ATOM     30  C   UNL     1       5.467  -2.537  23.740  0.00  0.00    +0.060 A 
BRANCH  29  31
ATOM     31  O   UNL     1       5.349  -4.120  21.923  0.00  0.00    -0.503 OA
ATOM     32  H   UNL     1       6.324  -4.104  21.909  0.00  0.00    +0.292 HD
ENDBRANCH  29  31
BRANCH  28  33
ATOM     33  O   UNL     1       3.455  -5.548  23.233  0.00  0.00    -0.503 OA
ATOM     34  H   UNL     1       3.845  -5.558  22.336  0.00  0.00    +0.292 HD
ENDBRANCH  28  33
ENDBRANCH  24  25
BRANCH  20  35
ATOM     35  O   UNL     1       4.790   5.102  24.710  0.00  0.00    -0.507 OA
ATOM     36  H   UNL     1       3.823   5.052  24.635  0.00  0.00    +0.292 HD
ENDBRANCH  20  35
BRANCH  23  37
ATOM     37  O   UNL     1       7.549   3.163  28.012  0.00  0.00    -0.506 OA
ATOM     38  H   UNL     1       8.059   3.977  27.883  0.00  0.00    +0.292 HD
ENDBRANCH  23  37
ENDBRANCH  13  14
ENDBRANCH   3  13
BRANCH   1  39
ATOM     39  C   UNL     1      10.087  -1.053  22.994  0.00  0.00    +0.266 C 
BRANCH  39  40
ATOM     40  O   UNL     1       8.899  -0.792  22.200  0.00  0.00    -0.459 OA
BRANCH  40  41
ATOM     41  C   UNL     1       8.297   0.410  22.399  0.00  0.00    +0.332 C 
ATOM     42  O   UNL     1       7.104   0.584  22.581  0.00  0.00    -0.246 OA
BRANCH  41  44
ATOM     43  C   UNL     1       9.097   2.516  23.321  0.00  0.00    +0.015 C 
ATOM     44  C   UNL     1       9.329   1.469  22.511  0.00  0.00    +0.092 C 
BRANCH  43  46
ATOM     45  C   UNL     1       9.586   4.868  24.108  0.00  0.00    +0.011 A 
ATOM     46  C   UNL     1      10.018   3.627  23.621  0.00  0.00    -0.025 A 
ATOM     47  C   UNL     1      11.377   3.473  23.297  0.00  0.00    +0.011 A 
ATOM     48  C   UNL     1      12.279   4.530  23.453  0.00  0.00    +0.046 A 
ATOM     49  C   UNL     1      11.828   5.755  23.924  0.00  0.00    +0.117 A 
ATOM     50  C   UNL     1      10.488   5.931  24.259  0.00  0.00    +0.046 A 
BRANCH  49  51
ATOM     51  O   UNL     1      12.731   6.769  24.025  0.00  0.00    -0.507 OA
ATOM     52  H   UNL     1      13.494   6.568  23.460  0.00  0.00    +0.292 HD
ENDBRANCH  49  51
ENDBRANCH  43  46
ENDBRANCH  41  44
ENDBRANCH  40  41
ENDBRANCH  39  40
ENDBRANCH   1  39
TORSDOF 16
ENDMDL
MODEL 3
REMARK VINA RESULT:      -6.9      1.251      1.557
REMARK  Name = 
REMARK  16 active torsions:
REMARK  status: ('A' for Active; 'I' for Inactive)
REMARK    1  A    between atoms: C_3  and  O_49
REMARK    2  A    between atoms: C_6  and  C_7
REMARK    3  A    between atoms: C_8  and  C_9
REMARK    4  A    between atoms: C_9  and  O_11
REMARK    5  A    between atoms: O_11  and  C_12
REMARK    6  A    between atoms: C_12  and  C_13
REMARK    7  A    between atoms: C_15  and  O_48
REMARK    8  A    between atoms: C_17  and  O_47
REMARK    9  A    between atoms: C_19  and  O_46
REMARK   10  A    between atoms: C_21  and  O_24
REMARK   11  A    between atoms: O_24  and  C_25
REMARK   12  A    between atoms: C_26  and  C_38
REMARK   13  A    between atoms: C_30  and  O_37
REMARK   14  A    between atoms: C_32  and  O_36
REMARK   15  A    between atoms: C_40  and  O_45
REMARK   16  A    between atoms: C_41  and  O_44
REMARK                            x       y       z     vdW  Elec       q    Type
REMARK                         _______ _______ _______ _____ _____    ______ ____
ROOT
ATOM      1  C   UNL     1       7.643  -5.296  24.052  0.00  0.00    +0.191 C 
ATOM      2  O   UNL     1       6.590  -4.551  24.685  0.00  0.00    -0.330 OA
ATOM      3  C   UNL     1       5.292  -5.108  24.372  0.00  0.00    +0.340 C 
ATOM      4  C   UNL     1       5.011  -5.128  22.845  0.00  0.00    +0.214 C 
ATOM      5  C   UNL     1       6.201  -5.745  22.103  0.00  0.00    +0.180 C 
ATOM      6  C   UNL     1       7.503  -5.084  22.543  0.00  0.00    +0.178 C 
ENDROOT
BRANCH   6   7
ATOM      7  O   UNL     1       7.466  -3.684  22.230  0.00  0.00    -0.386 OA
ATOM      8  H   UNL     1       6.531  -3.402  22.182  0.00  0.00    +0.210 HD
ENDBRANCH   6   7
BRANCH   5   9
ATOM      9  O   UNL     1       5.991  -5.659  20.690  0.00  0.00    -0.386 OA
ATOM     10  H   UNL     1       6.661  -6.223  20.257  0.00  0.00    +0.210 HD
ENDBRANCH   5   9
BRANCH   4  11
ATOM     11  O   UNL     1       3.801  -5.869  22.574  0.00  0.00    -0.383 OA
ATOM     12  H   UNL     1       3.989  -6.464  21.825  0.00  0.00    +0.210 HD
ENDBRANCH   4  11
BRANCH   3  13
ATOM     13  O   UNL     1       4.269  -4.290  24.937  0.00  0.00    -0.453 OA
BRANCH  13  14
ATOM     14  C   UNL     1       4.532  -3.166  25.696  0.00  0.00    +0.214 A 
ATOM     15  C   UNL     1       5.061  -1.891  25.125  0.00  0.00    +0.238 A 
ATOM     16  O   UNL     1       5.623  -1.849  24.038  0.00  0.00    -0.283 OA
ATOM     17  C   UNL     1       4.949  -0.685  25.959  0.00  0.00    +0.109 A 
ATOM     18  C   UNL     1       4.589  -0.854  27.295  0.00  0.00    +0.147 A 
ATOM     19  C   UNL     1       4.429   0.260  28.125  0.00  0.00    +0.092 A 
ATOM     20  C   UNL     1       4.664   1.535  27.611  0.00  0.00    +0.124 A 
ATOM     21  C   UNL     1       5.056   1.714  26.291  0.00  0.00    +0.091 A 
ATOM     22  O   UNL     1       4.409  -2.092  27.865  0.00  0.00    -0.451 OA
ATOM     23  C   UNL     1       5.197   0.604  25.464  0.00  0.00    +0.135 A 
ATOM     24  C   UNL     1       4.334  -3.204  27.034  0.00  0.00    +0.181 A 
BRANCH  24  25
ATOM     25  C   UNL     1       4.014  -4.474  27.758  0.00  0.00    +0.025 A 
ATOM     26  C   UNL     1       2.745  -4.693  28.325  0.00  0.00    +0.015 A 
ATOM     27  C   UNL     1       2.445  -5.893  28.991  0.00  0.00    +0.050 A 
ATOM     28  C   UNL     1       3.415  -6.880  29.092  0.00  0.00    +0.158 A 
ATOM     29  C   UNL     1       4.682  -6.675  28.567  0.00  0.00    +0.159 A 
ATOM     30  C   UNL     1       4.994  -5.476  27.933  0.00  0.00    +0.060 A 
BRANCH  29  31
ATOM     31  O   UNL     1       5.596  -7.686  28.687  0.00  0.00    -0.503 OA
ATOM     32  H   UNL     1       6.472  -7.327  28.455  0.00  0.00    +0.292 HD
ENDBRANCH  29  31
BRANCH  28  33
ATOM     33  O   UNL     1       3.115  -8.061  29.709  0.00  0.00    -0.503 OA
ATOM     34  H   UNL     1       3.369  -7.921  30.642  0.00  0.00    +0.292 HD
ENDBRANCH  28  33
ENDBRANCH  24  25
BRANCH  20  35
ATOM     35  O   UNL     1       4.519   2.659  28.373  0.00  0.00    -0.507 OA
ATOM     36  H   UNL     1       3.807   2.514  29.018  0.00  0.00    +0.292 HD
ENDBRANCH  20  35
BRANCH  23  37
ATOM     37  O   UNL     1       5.567   0.801  24.163  0.00  0.00    -0.506 OA
ATOM     38  H   UNL     1       6.004   0.010  23.812  0.00  0.00    +0.292 HD
ENDBRANCH  23  37
ENDBRANCH  13  14
ENDBRANCH   3  13
BRANCH   1  39
ATOM     39  C   UNL     1       9.048  -4.876  24.526  0.00  0.00    +0.266 C 
BRANCH  39  40
ATOM     40  O   UNL     1       9.365  -3.518  24.120  0.00  0.00    -0.459 OA
BRANCH  40  41
ATOM     41  C   UNL     1       9.076  -2.540  25.018  0.00  0.00    +0.332 C 
ATOM     42  O   UNL     1       8.702  -2.719  26.165  0.00  0.00    -0.246 OA
BRANCH  41  44
ATOM     43  C   UNL     1       9.015  -0.108  25.075  0.00  0.00    +0.015 C 
ATOM     44  C   UNL     1       9.426  -1.219  24.442  0.00  0.00    +0.092 C 
BRANCH  43  46
ATOM     45  C   UNL     1       8.503   2.368  25.071  0.00  0.00    +0.011 A 
ATOM     46  C   UNL     1       9.316   1.287  24.706  0.00  0.00    -0.025 A 
ATOM     47  C   UNL     1      10.407   1.530  23.853  0.00  0.00    +0.011 A 
ATOM     48  C   UNL     1      10.676   2.817  23.377  0.00  0.00    +0.046 A 
ATOM     49  C   UNL     1       9.849   3.871  23.740  0.00  0.00    +0.117 A 
ATOM     50  C   UNL     1       8.767   3.658  24.589  0.00  0.00    +0.046 A 
BRANCH  49  51
ATOM     51  O   UNL     1      10.124   5.101  23.224  0.00  0.00    -0.507 OA
ATOM     52  H   UNL     1      11.060   5.135  22.972  0.00  0.00    +0.292 HD
ENDBRANCH  49  51
ENDBRANCH  43  46
ENDBRANCH  41  44
ENDBRANCH  40  41
ENDBRANCH  39  40
ENDBRANCH   1  39
TORSDOF 16
ENDMDL
MODEL 4
REMARK VINA RESULT:      -6.9      2.075      3.690
REMARK  Name = 
REMARK  16 active torsions:
REMARK  status: ('A' for Active; 'I' for Inactive)
REMARK    1  A    between atoms: C_3  and  O_49
REMARK    2  A    between atoms: C_6  and  C_7
REMARK    3  A    between atoms: C_8  and  C_9
REMARK    4  A    between atoms: C_9  and  O_11
REMARK    5  A    between atoms: O_11  and  C_12
REMARK    6  A    between atoms: C_12  and  C_13
REMARK    7  A    between atoms: C_15  and  O_48
REMARK    8  A    between atoms: C_17  and  O_47
REMARK    9  A    between atoms: C_19  and  O_46
REMARK   10  A    between atoms: C_21  and  O_24
REMARK   11  A    between atoms: O_24  and  C_25
REMARK   12  A    between atoms: C_26  and  C_38
REMARK   13  A    between atoms: C_30  and  O_37
REMARK   14  A    between atoms: C_32  and  O_36
REMARK   15  A    between atoms: C_40  and  O_45
REMARK   16  A    between atoms: C_41  and  O_44
REMARK                            x       y       z     vdW  Elec       q    Type
REMARK                         _______ _______ _______ _____ _____    ______ ____
ROOT
ATOM      1  C   UNL     1       4.738  -6.377  23.125  0.00  0.00    +0.191 C 
ATOM      2  O   UNL     1       5.423  -6.002  24.332  0.00  0.00    -0.330 OA
ATOM      3  C   UNL     1       4.949  -6.768  25.463  0.00  0.00    +0.340 C 
ATOM      4  C   UNL     1       3.425  -6.586  25.703  0.00  0.00    +0.214 C 
ATOM      5  C   UNL     1       2.662  -6.790  24.390  0.00  0.00    +0.180 C 
ATOM      6  C   UNL     1       3.279  -5.944  23.280  0.00  0.00    +0.178 C 
ENDROOT
BRANCH   6   7
ATOM      7  O   UNL     1       3.197  -4.555  23.627  0.00  0.00    -0.386 OA
ATOM      8  H   UNL     1       3.202  -4.029  22.802  0.00  0.00    +0.210 HD
ENDBRANCH   6   7
BRANCH   5   9
ATOM      9  O   UNL     1       1.273  -6.510  24.586  0.00  0.00    -0.386 OA
ATOM     10  H   UNL     1       0.771  -7.034  23.932  0.00  0.00    +0.210 HD
ENDBRANCH   5   9
BRANCH   4  11
ATOM     11  O   UNL     1       2.967  -7.517  26.708  0.00  0.00    -0.383 OA
ATOM     12  H   UNL     1       3.154  -8.415  26.377  0.00  0.00    +0.210 HD
ENDBRANCH   4  11
BRANCH   3  13
ATOM     13  O   UNL     1       5.580  -6.305  26.656  0.00  0.00    -0.453 OA
BRANCH  13  14
ATOM     14  C   UNL     1       6.323  -5.142  26.716  0.00  0.00    +0.214 A 
ATOM     15  C   UNL     1       7.687  -5.004  26.120  0.00  0.00    +0.238 A 
ATOM     16  O   UNL     1       8.380  -5.977  25.851  0.00  0.00    -0.283 OA
ATOM     17  C   UNL     1       8.203  -3.640  25.933  0.00  0.00    +0.109 A 
ATOM     18  C   UNL     1       7.504  -2.597  26.539  0.00  0.00    +0.147 A 
ATOM     19  C   UNL     1       7.927  -1.275  26.364  0.00  0.00    +0.092 A 
ATOM     20  C   UNL     1       9.068  -1.017  25.606  0.00  0.00    +0.124 A 
ATOM     21  C   UNL     1       9.792  -2.050  25.026  0.00  0.00    +0.091 A 
ATOM     22  O   UNL     1       6.412  -2.804  27.348  0.00  0.00    -0.451 OA
ATOM     23  C   UNL     1       9.358  -3.363  25.188  0.00  0.00    +0.135 A 
ATOM     24  C   UNL     1       5.826  -4.065  27.366  0.00  0.00    +0.181 A 
BRANCH  24  25
ATOM     25  C   UNL     1       4.575  -4.134  28.184  0.00  0.00    +0.025 A 
ATOM     26  C   UNL     1       4.574  -4.701  29.472  0.00  0.00    +0.015 A 
ATOM     27  C   UNL     1       3.400  -4.750  30.241  0.00  0.00    +0.050 A 
ATOM     28  C   UNL     1       2.221  -4.233  29.724  0.00  0.00    +0.158 A 
ATOM     29  C   UNL     1       2.191  -3.698  28.445  0.00  0.00    +0.159 A 
ATOM     30  C   UNL     1       3.344  -3.674  27.667  0.00  0.00    +0.060 A 
BRANCH  29  31
ATOM     31  O   UNL     1       1.003  -3.194  27.990  0.00  0.00    -0.503 OA
ATOM     32  H   UNL     1       1.002  -2.233  28.156  0.00  0.00    +0.292 HD
ENDBRANCH  29  31
BRANCH  28  33
ATOM     33  O   UNL     1       1.085  -4.250  30.484  0.00  0.00    -0.503 OA
ATOM     34  H   UNL     1       0.770  -3.324  30.472  0.00  0.00    +0.292 HD
ENDBRANCH  28  33
ENDBRANCH  24  25
BRANCH  20  35
ATOM     35  O   UNL     1       9.525   0.253  25.397  0.00  0.00    -0.507 OA
ATOM     36  H   UNL     1      10.484   0.274  25.557  0.00  0.00    +0.292 HD
ENDBRANCH  20  35
BRANCH  23  37
ATOM     37  O   UNL     1      10.073  -4.366  24.596  0.00  0.00    -0.506 OA
ATOM     38  H   UNL     1      10.937  -4.465  25.025  0.00  0.00    +0.292 HD
ENDBRANCH  23  37
ENDBRANCH  13  14
ENDBRANCH   3  13
BRANCH   1  39
ATOM     39  C   UNL     1       5.355  -5.747  21.861  0.00  0.00    +0.266 C 
BRANCH  39  40
ATOM     40  O   UNL     1       5.611  -4.328  22.042  0.00  0.00    -0.459 OA
BRANCH  40  41
ATOM     41  C   UNL     1       6.883  -3.986  22.376  0.00  0.00    +0.332 C 
ATOM     42  O   UNL     1       7.836  -4.747  22.412  0.00  0.00    -0.246 OA
BRANCH  41  44
ATOM     43  C   UNL     1       8.074  -1.880  22.111  0.00  0.00    +0.015 C 
ATOM     44  C   UNL     1       6.973  -2.516  22.544  0.00  0.00    +0.092 C 
BRANCH  43  46
ATOM     45  C   UNL     1       9.535   0.144  21.711  0.00  0.00    +0.011 A 
ATOM     46  C   UNL     1       8.324  -0.428  22.123  0.00  0.00    -0.025 A 
ATOM     47  C   UNL     1       7.344   0.412  22.680  0.00  0.00    +0.011 A 
ATOM     48  C   UNL     1       7.569   1.785  22.822  0.00  0.00    +0.046 A 
ATOM     49  C   UNL     1       8.781   2.329  22.420  0.00  0.00    +0.117 A 
ATOM     50  C   UNL     1       9.764   1.520  21.860  0.00  0.00    +0.046 A 
BRANCH  49  51
ATOM     51  O   UNL     1       8.974   3.664  22.612  0.00  0.00    -0.507 OA
ATOM     52  H   UNL     1       8.979   4.108  21.749  0.00  0.00    +0.292 HD
ENDBRANCH  49  51
ENDBRANCH  43  46
ENDBRANCH  41  44
ENDBRANCH  40  41
ENDBRANCH  39  40
ENDBRANCH   1  39
TORSDOF 16
ENDMDL
MODEL 5
REMARK VINA RESULT:      -6.8      2.270      8.601
REMARK  Name = 
REMARK  16 active torsions:
REMARK  status: ('A' for Active; 'I' for Inactive)
REMARK    1  A    between atoms: C_3  and  O_49
REMARK    2  A    between atoms: C_6  and  C_7
REMARK    3  A    between atoms: C_8  and  C_9
REMARK    4  A    between atoms: C_9  and  O_11
REMARK    5  A    between atoms: O_11  and  C_12
REMARK    6  A    between atoms: C_12  and  C_13
REMARK    7  A    between atoms: C_15  and  O_48
REMARK    8  A    between atoms: C_17  and  O_47
REMARK    9  A    between atoms: C_19  and  O_46
REMARK   10  A    between atoms: C_21  and  O_24
REMARK   11  A    between atoms: O_24  and  C_25
REMARK   12  A    between atoms: C_26  and  C_38
REMARK   13  A    between atoms: C_30  and  O_37
REMARK   14  A    between atoms: C_32  and  O_36
REMARK   15  A    between atoms: C_40  and  O_45
REMARK   16  A    between atoms: C_41  and  O_44
REMARK                            x       y       z     vdW  Elec       q    Type
REMARK                         _______ _______ _______ _____ _____    ______ ____
ROOT
ATOM      1  C   UNL     1       5.096  -0.740  27.915  0.00  0.00    +0.191 C 
ATOM      2  O   UNL     1       6.231  -1.364  27.290  0.00  0.00    -0.330 OA
ATOM      3  C   UNL     1       7.346  -0.447  27.192  0.00  0.00    +0.340 C 
ATOM      4  C   UNL     1       6.992   0.827  26.377  0.00  0.00    +0.214 C 
ATOM      5  C   UNL     1       5.677   1.425  26.887  0.00  0.00    +0.180 C 
ATOM      6  C   UNL     1       4.598   0.349  26.963  0.00  0.00    +0.178 C 
ENDROOT
BRANCH   6   7
ATOM      7  O   UNL     1       4.360  -0.193  25.655  0.00  0.00    -0.386 OA
ATOM      8  H   UNL     1       5.210  -0.224  25.173  0.00  0.00    +0.210 HD
ENDBRANCH   6   7
BRANCH   5   9
ATOM      9  O   UNL     1       5.293   2.530  26.063  0.00  0.00    -0.386 OA
ATOM     10  H   UNL     1       5.547   2.315  25.144  0.00  0.00    +0.210 HD
ENDBRANCH   5   9
BRANCH   4  11
ATOM     11  O   UNL     1       8.063   1.792  26.477  0.00  0.00    -0.383 OA
ATOM     12  H   UNL     1       8.102   2.084  27.406  0.00  0.00    +0.210 HD
ENDBRANCH   4  11
BRANCH   3  13
ATOM     13  O   UNL     1       8.417  -1.067  26.484  0.00  0.00    -0.453 OA
BRANCH  13  14
ATOM     14  C   UNL     1       8.224  -1.993  25.477  0.00  0.00    +0.214 A 
ATOM     15  C   UNL     1       7.790  -3.401  25.725  0.00  0.00    +0.238 A 
ATOM     16  O   UNL     1       7.911  -3.936  26.820  0.00  0.00    -0.283 OA
ATOM     17  C   UNL     1       7.274  -4.157  24.574  0.00  0.00    +0.109 A 
ATOM     18  C   UNL     1       7.452  -3.604  23.307  0.00  0.00    +0.147 A 
ATOM     19  C   UNL     1       6.948  -4.260  22.179  0.00  0.00    +0.092 A 
ATOM     20  C   UNL     1       6.297  -5.484  22.334  0.00  0.00    +0.124 A 
ATOM     21  C   UNL     1       6.144  -6.061  23.587  0.00  0.00    +0.091 A 
ATOM     22  O   UNL     1       8.141  -2.434  23.096  0.00  0.00    -0.451 OA
ATOM     23  C   UNL     1       6.632  -5.397  24.709  0.00  0.00    +0.135 A 
ATOM     24  C   UNL     1       8.458  -1.640  24.192  0.00  0.00    +0.181 A 
BRANCH  24  25
ATOM     25  C   UNL     1       9.096  -0.337  23.826  0.00  0.00    +0.025 A 
ATOM     26  C   UNL     1      10.283   0.095  24.445  0.00  0.00    +0.015 A 
ATOM     27  C   UNL     1      10.885   1.313  24.087  0.00  0.00    +0.050 A 
ATOM     28  C   UNL     1      10.301   2.104  23.109  0.00  0.00    +0.158 A 
ATOM     29  C   UNL     1       9.114   1.713  22.507  0.00  0.00    +0.159 A 
ATOM     30  C   UNL     1       8.497   0.523  22.879  0.00  0.00    +0.060 A 
BRANCH  29  31
ATOM     31  O   UNL     1       8.587   2.528  21.542  0.00  0.00    -0.503 OA
ATOM     32  H   UNL     1       8.176   3.292  21.987  0.00  0.00    +0.292 HD
ENDBRANCH  29  31
BRANCH  28  33
ATOM     33  O   UNL     1      10.903   3.272  22.735  0.00  0.00    -0.503 OA
ATOM     34  H   UNL     1      11.680   2.989  22.212  0.00  0.00    +0.292 HD
ENDBRANCH  28  33
ENDBRANCH  24  25
BRANCH  20  35
ATOM     35  O   UNL     1       5.780  -6.167  21.269  0.00  0.00    -0.507 OA
ATOM     36  H   UNL     1       4.849  -6.379  21.451  0.00  0.00    +0.292 HD
ENDBRANCH  20  35
BRANCH  23  37
ATOM     37  O   UNL     1       6.458  -5.972  25.936  0.00  0.00    -0.506 OA
ATOM     38  H   UNL     1       6.293  -5.293  26.608  0.00  0.00    +0.292 HD
ENDBRANCH  23  37
ENDBRANCH  13  14
ENDBRANCH   3  13
BRANCH   1  39
ATOM     39  C   UNL     1       3.964  -1.735  28.236  0.00  0.00    +0.266 C 
BRANCH  39  40
ATOM     40  O   UNL     1       3.500  -2.420  27.042  0.00  0.00    -0.459 OA
BRANCH  40  41
ATOM     41  C   UNL     1       3.914  -3.705  26.889  0.00  0.00    +0.332 C 
ATOM     42  O   UNL     1       4.651  -4.308  27.651  0.00  0.00    -0.246 OA
BRANCH  41  44
ATOM     43  C   UNL     1       3.073  -5.652  25.695  0.00  0.00    +0.015 C 
ATOM     44  C   UNL     1       3.214  -4.317  25.734  0.00  0.00    +0.092 C 
BRANCH  43  46
ATOM     45  C   UNL     1       2.153  -7.823  24.782  0.00  0.00    +0.011 A 
ATOM     46  C   UNL     1       2.355  -6.440  24.677  0.00  0.00    -0.025 A 
ATOM     47  C   UNL     1       1.954  -5.794  23.495  0.00  0.00    +0.011 A 
ATOM     48  C   UNL     1       1.369  -6.510  22.446  0.00  0.00    +0.046 A 
ATOM     49  C   UNL     1       1.192  -7.881  22.564  0.00  0.00    +0.117 A 
ATOM     50  C   UNL     1       1.574  -8.543  23.728  0.00  0.00    +0.046 A 
BRANCH  49  51
ATOM     51  O   UNL     1       0.654  -8.547  21.505  0.00  0.00    -0.507 OA
ATOM     52  H   UNL     1      -0.087  -8.029  21.151  0.00  0.00    +0.292 HD
ENDBRANCH  49  51
ENDBRANCH  43  46
ENDBRANCH  41  44
ENDBRANCH  40  41
ENDBRANCH  39  40
ENDBRANCH   1  39
TORSDOF 16
ENDMDL
MODEL 6
REMARK VINA RESULT:      -6.7      2.074      7.170
REMARK  Name = 
REMARK  16 active torsions:
REMARK  status: ('A' for Active; 'I' for Inactive)
REMARK    1  A    between atoms: C_3  and  O_49
REMARK    2  A    between atoms: C_6  and  C_7
REMARK    3  A    between atoms: C_8  and  C_9
REMARK    4  A    between atoms: C_9  and  O_11
REMARK    5  A    between atoms: O_11  and  C_12
REMARK    6  A    between atoms: C_12  and  C_13
REMARK    7  A    between atoms: C_15  and  O_48
REMARK    8  A    between atoms: C_17  and  O_47
REMARK    9  A    between atoms: C_19  and  O_46
REMARK   10  A    between atoms: C_21  and  O_24
REMARK   11  A    between atoms: O_24  and  C_25
REMARK   12  A    between atoms: C_26  and  C_38
REMARK   13  A    between atoms: C_30  and  O_37
REMARK   14  A    between atoms: C_32  and  O_36
REMARK   15  A    between atoms: C_40  and  O_45
REMARK   16  A    between atoms: C_41  and  O_44
REMARK                            x       y       z     vdW  Elec       q    Type
REMARK                         _______ _______ _______ _____ _____    ______ ____
ROOT
ATOM      1  C   UNL     1       8.983   1.614  22.904  0.00  0.00    +0.191 C 
ATOM      2  O   UNL     1       8.939   0.816  24.098  0.00  0.00    -0.330 OA
ATOM      3  C   UNL     1       7.967   1.329  25.038  0.00  0.00    +0.340 C 
ATOM      4  C   UNL     1       8.267   2.795  25.455  0.00  0.00    +0.214 C 
ATOM      5  C   UNL     1       8.512   3.653  24.209  0.00  0.00    +0.180 C 
ATOM      6  C   UNL     1       9.537   2.985  23.297  0.00  0.00    +0.178 C 
ENDROOT
BRANCH   6   7
ATOM      7  O   UNL     1      10.786   2.846  23.990  0.00  0.00    -0.386 OA
ATOM      8  H   UNL     1      11.250   2.061  23.638  0.00  0.00    +0.210 HD
ENDBRANCH   6   7
BRANCH   5   9
ATOM      9  O   UNL     1       8.901   4.974  24.597  0.00  0.00    -0.386 OA
ATOM     10  H   UNL     1       9.844   5.084  24.366  0.00  0.00    +0.210 HD
ENDBRANCH   5   9
BRANCH   4  11
ATOM     11  O   UNL     1       7.169   3.324  26.230  0.00  0.00    -0.383 OA
ATOM     12  H   UNL     1       7.554   3.869  26.941  0.00  0.00    +0.210 HD
ENDBRANCH   4  11
BRANCH   3  13
ATOM     13  O   UNL     1       8.018   0.572  26.245  0.00  0.00    -0.453 OA
BRANCH  13  14
ATOM     14  C   UNL     1       7.441  -0.676  26.381  0.00  0.00    +0.214 A 
ATOM     15  C   UNL     1       8.145  -1.950  26.042  0.00  0.00    +0.238 A 
ATOM     16  O   UNL     1       9.124  -1.977  25.308  0.00  0.00    -0.283 OA
ATOM     17  C   UNL     1       7.567  -3.196  26.568  0.00  0.00    +0.109 A 
ATOM     18  C   UNL     1       6.293  -3.131  27.129  0.00  0.00    +0.147 A 
ATOM     19  C   UNL     1       5.709  -4.276  27.680  0.00  0.00    +0.092 A 
ATOM     20  C   UNL     1       6.403  -5.485  27.634  0.00  0.00    +0.124 A 
ATOM     21  C   UNL     1       7.658  -5.570  27.048  0.00  0.00    +0.091 A 
ATOM     22  O   UNL     1       5.544  -1.978  27.141  0.00  0.00    -0.451 OA
ATOM     23  C   UNL     1       8.242  -4.424  26.516  0.00  0.00    +0.135 A 
ATOM     24  C   UNL     1       6.164  -0.777  26.815  0.00  0.00    +0.181 A 
BRANCH  24  25
ATOM     25  C   UNL     1       5.282   0.420  26.984  0.00  0.00    +0.025 A 
ATOM     26  C   UNL     1       5.143   1.056  28.231  0.00  0.00    +0.015 A 
ATOM     27  C   UNL     1       4.324   2.188  28.380  0.00  0.00    +0.050 A 
ATOM     28  C   UNL     1       3.641   2.688  27.281  0.00  0.00    +0.158 A 
ATOM     29  C   UNL     1       3.738   2.059  26.049  0.00  0.00    +0.159 A 
ATOM     30  C   UNL     1       4.523   0.920  25.902  0.00  0.00    +0.060 A 
BRANCH  29  31
ATOM     31  O   UNL     1       3.049   2.601  24.997  0.00  0.00    -0.503 OA
ATOM     32  H   UNL     1       2.864   1.886  24.361  0.00  0.00    +0.292 HD
ENDBRANCH  29  31
BRANCH  28  33
ATOM     33  O   UNL     1       2.871   3.809  27.417  0.00  0.00    -0.503 OA
ATOM     34  H   UNL     1       2.519   3.973  26.519  0.00  0.00    +0.292 HD
ENDBRANCH  28  33
ENDBRANCH  24  25
BRANCH  20  35
ATOM     35  O   UNL     1       5.885  -6.635  28.161  0.00  0.00    -0.507 OA
ATOM     36  H   UNL     1       5.894  -7.327  27.478  0.00  0.00    +0.292 HD
ENDBRANCH  20  35
BRANCH  23  37
ATOM     37  O   UNL     1       9.486  -4.523  25.958  0.00  0.00    -0.506 OA
ATOM     38  H   UNL     1       9.614  -3.832  25.291  0.00  0.00    +0.292 HD
ENDBRANCH  23  37
ENDBRANCH  13  14
ENDBRANCH   3  13
BRANCH   1  39
ATOM     39  C   UNL     1       9.842   0.986  21.790  0.00  0.00    +0.266 C 
BRANCH  39  40
ATOM     40  O   UNL     1       9.165  -0.134  21.160  0.00  0.00    -0.459 OA
BRANCH  40  41
ATOM     41  C   UNL     1       9.300  -1.339  21.775  0.00  0.00    +0.332 C 
ATOM     42  O   UNL     1      10.358  -1.884  22.041  0.00  0.00    -0.246 OA
BRANCH  41  44
ATOM     43  C   UNL     1       7.834  -3.117  22.557  0.00  0.00    +0.015 C 
ATOM     44  C   UNL     1       7.969  -1.827  22.208  0.00  0.00    +0.092 C 
BRANCH  43  46
ATOM     45  C   UNL     1       5.472  -3.069  23.457  0.00  0.00    +0.011 A 
ATOM     46  C   UNL     1       6.622  -3.774  23.077  0.00  0.00    -0.025 A 
ATOM     47  C   UNL     1       6.662  -5.160  23.309  0.00  0.00    +0.011 A 
ATOM     48  C   UNL     1       5.584  -5.822  23.905  0.00  0.00    +0.046 A 
ATOM     49  C   UNL     1       4.460  -5.102  24.286  0.00  0.00    +0.117 A 
ATOM     50  C   UNL     1       4.393  -3.730  24.061  0.00  0.00    +0.046 A 
BRANCH  49  51
ATOM     51  O   UNL     1       3.449  -5.779  24.898  0.00  0.00    -0.507 OA
ATOM     52  H   UNL     1       2.838  -5.138  25.296  0.00  0.00    +0.292 HD
ENDBRANCH  49  51
ENDBRANCH  43  46
ENDBRANCH  41  44
ENDBRANCH  40  41
ENDBRANCH  39  40
ENDBRANCH   1  39
TORSDOF 16
ENDMDL
MODEL 7
REMARK VINA RESULT:      -6.6      2.755      5.769
REMARK  Name = 
REMARK  16 active torsions:
REMARK  status: ('A' for Active; 'I' for Inactive)
REMARK    1  A    between atoms: C_3  and  O_49
REMARK    2  A    between atoms: C_6  and  C_7
REMARK    3  A    between atoms: C_8  and  C_9
REMARK    4  A    between atoms: C_9  and  O_11
REMARK    5  A    between atoms: O_11  and  C_12
REMARK    6  A    between atoms: C_12  and  C_13
REMARK    7  A    between atoms: C_15  and  O_48
REMARK    8  A    between atoms: C_17  and  O_47
REMARK    9  A    between atoms: C_19  and  O_46
REMARK   10  A    between atoms: C_21  and  O_24
REMARK   11  A    between atoms: O_24  and  C_25
REMARK   12  A    between atoms: C_26  and  C_38
REMARK   13  A    between atoms: C_30  and  O_37
REMARK   14  A    between atoms: C_32  and  O_36
REMARK   15  A    between atoms: C_40  and  O_45
REMARK   16  A    between atoms: C_41  and  O_44
REMARK                            x       y       z     vdW  Elec       q    Type
REMARK                         _______ _______ _______ _____ _____    ______ ____
ROOT
ATOM      1  C   UNL     1      10.529   0.358  24.037  0.00  0.00    +0.191 C 
ATOM      2  O   UNL     1       9.451  -0.046  24.899  0.00  0.00    -0.330 OA
ATOM      3  C   UNL     1       9.295  -1.484  24.905  0.00  0.00    +0.340 C 
ATOM      4  C   UNL     1       9.012  -2.053  23.487  0.00  0.00    +0.214 C 
ATOM      5  C   UNL     1      10.029  -1.494  22.488  0.00  0.00    +0.180 C 
ATOM      6  C   UNL     1      10.110   0.025  22.604  0.00  0.00    +0.178 C 
ENDROOT
BRANCH   6   7
ATOM      7  O   UNL     1       8.832   0.603  22.303  0.00  0.00    -0.386 OA
ATOM      8  H   UNL     1       8.429   0.915  23.138  0.00  0.00    +0.210 HD
ENDBRANCH   6   7
BRANCH   5   9
ATOM      9  O   UNL     1       9.699  -1.927  21.164  0.00  0.00    -0.386 OA
ATOM     10  H   UNL     1      10.537  -2.050  20.677  0.00  0.00    +0.210 HD
ENDBRANCH   5   9
BRANCH   4  11
ATOM     11  O   UNL     1       9.062  -3.496  23.514  0.00  0.00    -0.383 OA
ATOM     12  H   UNL     1       8.151  -3.814  23.649  0.00  0.00    +0.210 HD
ENDBRANCH   4  11
BRANCH   3  13
ATOM     13  O   UNL     1       8.161  -1.842  25.692  0.00  0.00    -0.453 OA
BRANCH  13  14
ATOM     14  C   UNL     1       7.121  -0.972  25.959  0.00  0.00    +0.214 A 
ATOM     15  C   UNL     1       7.230   0.175  26.911  0.00  0.00    +0.238 A 
ATOM     16  O   UNL     1       8.101   0.228  27.769  0.00  0.00    -0.283 OA
ATOM     17  C   UNL     1       6.196   1.218  26.827  0.00  0.00    +0.109 A 
ATOM     18  C   UNL     1       5.069   0.948  26.051  0.00  0.00    +0.147 A 
ATOM     19  C   UNL     1       4.071   1.917  25.903  0.00  0.00    +0.092 A 
ATOM     20  C   UNL     1       4.202   3.138  26.564  0.00  0.00    +0.124 A 
ATOM     21  C   UNL     1       5.302   3.405  27.368  0.00  0.00    +0.091 A 
ATOM     22  O   UNL     1       4.864  -0.262  25.432  0.00  0.00    -0.451 OA
ATOM     23  C   UNL     1       6.301   2.444  27.498  0.00  0.00    +0.135 A 
ATOM     24  C   UNL     1       5.922  -1.162  25.363  0.00  0.00    +0.181 A 
BRANCH  24  25
ATOM     25  C   UNL     1       5.616  -2.387  24.560  0.00  0.00    +0.025 A 
ATOM     26  C   UNL     1       5.205  -3.583  25.177  0.00  0.00    +0.015 A 
ATOM     27  C   UNL     1       4.906  -4.726  24.417  0.00  0.00    +0.050 A 
ATOM     28  C   UNL     1       5.017  -4.677  23.035  0.00  0.00    +0.158 A 
ATOM     29  C   UNL     1       5.449  -3.519  22.407  0.00  0.00    +0.159 A 
ATOM     30  C   UNL     1       5.776  -2.393  23.156  0.00  0.00    +0.060 A 
BRANCH  29  31
ATOM     31  O   UNL     1       5.531  -3.524  21.040  0.00  0.00    -0.503 OA
ATOM     32  H   UNL     1       5.744  -4.432  20.757  0.00  0.00    +0.292 HD
ENDBRANCH  29  31
BRANCH  28  33
ATOM     33  O   UNL     1       4.693  -5.777  22.292  0.00  0.00    -0.503 OA
ATOM     34  H   UNL     1       5.376  -6.437  22.523  0.00  0.00    +0.292 HD
ENDBRANCH  28  33
ENDBRANCH  24  25
BRANCH  20  35
ATOM     35  O   UNL     1       3.261   4.124  26.454  0.00  0.00    -0.507 OA
ATOM     36  H   UNL     1       3.492   4.849  27.058  0.00  0.00    +0.292 HD
ENDBRANCH  20  35
BRANCH  23  37
ATOM     37  O   UNL     1       7.385   2.731  28.279  0.00  0.00    -0.506 OA
ATOM     38  H   UNL     1       7.950   1.949  28.375  0.00  0.00    +0.292 HD
ENDBRANCH  23  37
ENDBRANCH  13  14
ENDBRANCH   3  13
BRANCH   1  39
ATOM     39  C   UNL     1      10.873   1.855  24.164  0.00  0.00    +0.266 C 
BRANCH  39  40
ATOM     40  O   UNL     1       9.676   2.670  24.281  0.00  0.00    -0.459 OA
BRANCH  40  41
ATOM     41  C   UNL     1       9.767   3.940  23.806  0.00  0.00    +0.332 C 
ATOM     42  O   UNL     1      10.805   4.545  23.594  0.00  0.00    -0.246 OA
BRANCH  41  44
ATOM     43  C   UNL     1       7.370   3.597  23.563  0.00  0.00    +0.015 C 
ATOM     44  C   UNL     1       8.416   4.431  23.443  0.00  0.00    +0.092 C 
BRANCH  43  46
ATOM     45  C   UNL     1       5.084   3.056  22.628  0.00  0.00    +0.011 A 
ATOM     46  C   UNL     1       5.951   3.912  23.320  0.00  0.00    -0.025 A 
ATOM     47  C   UNL     1       5.475   5.179  23.703  0.00  0.00    +0.011 A 
ATOM     48  C   UNL     1       4.169   5.578  23.400  0.00  0.00    +0.046 A 
ATOM     49  C   UNL     1       3.332   4.721  22.701  0.00  0.00    +0.117 A 
ATOM     50  C   UNL     1       3.777   3.459  22.317  0.00  0.00    +0.046 A 
BRANCH  49  51
ATOM     51  O   UNL     1       2.081   5.164  22.393  0.00  0.00    -0.507 OA
ATOM     52  H   UNL     1       2.156   5.922  21.792  0.00  0.00    +0.292 HD
ENDBRANCH  49  51
ENDBRANCH  43  46
ENDBRANCH  41  44
ENDBRANCH  40  41
ENDBRANCH  39  40
ENDBRANCH   1  39
TORSDOF 16
ENDMDL
MODEL 8
REMARK VINA RESULT:      -6.4      2.047      6.439
REMARK  Name = 
REMARK  16 active torsions:
REMARK  status: ('A' for Active; 'I' for Inactive)
REMARK    1  A    between atoms: C_3  and  O_49
REMARK    2  A    between atoms: C_6  and  C_7
REMARK    3  A    between atoms: C_8  and  C_9
REMARK    4  A    between atoms: C_9  and  O_11
REMARK    5  A    between atoms: O_11  and  C_12
REMARK    6  A    between atoms: C_12  and  C_13
REMARK    7  A    between atoms: C_15  and  O_48
REMARK    8  A    between atoms: C_17  and  O_47
REMARK    9  A    between atoms: C_19  and  O_46
REMARK   10  A    between atoms: C_21  and  O_24
REMARK   11  A    between atoms: O_24  and  C_25
REMARK   12  A    between atoms: C_26  and  C_38
REMARK   13  A    between atoms: C_30  and  O_37
REMARK   14  A    between atoms: C_32  and  O_36
REMARK   15  A    between atoms: C_40  and  O_45
REMARK   16  A    between atoms: C_41  and  O_44
REMARK                            x       y       z     vdW  Elec       q    Type
REMARK                         _______ _______ _______ _____ _____    ______ ____
ROOT
ATOM      1  C   UNL     1       7.999   1.360  22.036  0.00  0.00    +0.191 C 
ATOM      2  O   UNL     1       7.717   0.742  23.303  0.00  0.00    -0.330 OA
ATOM      3  C   UNL     1       6.302   0.775  23.599  0.00  0.00    +0.340 C 
ATOM      4  C   UNL     1       5.741   2.224  23.639  0.00  0.00    +0.214 C 
ATOM      5  C   UNL     1       6.181   2.988  22.386  0.00  0.00    +0.180 C 
ATOM      6  C   UNL     1       7.686   2.851  22.180  0.00  0.00    +0.178 C 
ENDROOT
BRANCH   6   7
ATOM      7  O   UNL     1       8.383   3.407  23.305  0.00  0.00    -0.386 OA
ATOM      8  H   UNL     1       7.733   3.861  23.878  0.00  0.00    +0.210 HD
ENDBRANCH   6   7
BRANCH   5   9
ATOM      9  O   UNL     1       5.762   4.354  22.478  0.00  0.00    -0.386 OA
ATOM     10  H   UNL     1       4.785   4.362  22.489  0.00  0.00    +0.210 HD
ENDBRANCH   5   9
BRANCH   4  11
ATOM     11  O   UNL     1       4.300   2.194  23.739  0.00  0.00    -0.383 OA
ATOM     12  H   UNL     1       3.947   2.233  22.831  0.00  0.00    +0.210 HD
ENDBRANCH   4  11
BRANCH   3  13
ATOM     13  O   UNL     1       6.070   0.242  24.901  0.00  0.00    -0.453 OA
BRANCH  13  14
ATOM     14  C   UNL     1       5.513  -1.003  25.120  0.00  0.00    +0.214 A 
ATOM     15  C   UNL     1       5.635  -2.141  24.160  0.00  0.00    +0.238 A 
ATOM     16  O   UNL     1       5.922  -1.971  22.982  0.00  0.00    -0.283 OA
ATOM     17  C   UNL     1       5.322  -3.485  24.668  0.00  0.00    +0.109 A 
ATOM     18  C   UNL     1       4.706  -3.576  25.916  0.00  0.00    +0.147 A 
ATOM     19  C   UNL     1       4.420  -4.830  26.467  0.00  0.00    +0.092 A 
ATOM     20  C   UNL     1       4.728  -5.981  25.742  0.00  0.00    +0.124 A 
ATOM     21  C   UNL     1       5.309  -5.902  24.484  0.00  0.00    +0.091 A 
ATOM     22  O   UNL     1       4.326  -2.472  26.640  0.00  0.00    -0.451 OA
ATOM     23  C   UNL     1       5.608  -4.653  23.947  0.00  0.00    +0.135 A 
ATOM     24  C   UNL     1       4.790  -1.222  26.243  0.00  0.00    +0.181 A 
BRANCH  24  25
ATOM     25  C   UNL     1       4.412  -0.116  27.177  0.00  0.00    +0.025 A 
ATOM     26  C   UNL     1       3.231   0.625  26.994  0.00  0.00    +0.015 A 
ATOM     27  C   UNL     1       2.875   1.653  27.882  0.00  0.00    +0.050 A 
ATOM     28  C   UNL     1       3.700   1.944  28.959  0.00  0.00    +0.158 A 
ATOM     29  C   UNL     1       4.885   1.247  29.142  0.00  0.00    +0.159 A 
ATOM     30  C   UNL     1       5.258   0.248  28.248  0.00  0.00    +0.060 A 
BRANCH  29  31
ATOM     31  O   UNL     1       5.655   1.569  30.227  0.00  0.00    -0.503 OA
ATOM     32  H   UNL     1       5.151   1.342  31.030  0.00  0.00    +0.292 HD
ENDBRANCH  29  31
BRANCH  28  33
ATOM     33  O   UNL     1       3.338   2.920  29.843  0.00  0.00    -0.503 OA
ATOM     34  H   UNL     1       4.101   3.532  29.857  0.00  0.00    +0.292 HD
ENDBRANCH  28  33
ENDBRANCH  24  25
BRANCH  20  35
ATOM     35  O   UNL     1       4.475  -7.232  26.232  0.00  0.00    -0.507 OA
ATOM     36  H   UNL     1       4.775  -7.276  27.155  0.00  0.00    +0.292 HD
ENDBRANCH  20  35
BRANCH  23  37
ATOM     37  O   UNL     1       6.196  -4.596  22.715  0.00  0.00    -0.506 OA
ATOM     38  H   UNL     1       6.033  -5.415  22.223  0.00  0.00    +0.292 HD
ENDBRANCH  23  37
ENDBRANCH  13  14
ENDBRANCH   3  13
BRANCH   1  39
ATOM     39  C   UNL     1       9.457   1.157  21.578  0.00  0.00    +0.266 C 
BRANCH  39  40
ATOM     40  O   UNL     1      10.142   0.173  22.398  0.00  0.00    -0.459 OA
BRANCH  40  41
ATOM     41  C   UNL     1      10.503   0.578  23.644  0.00  0.00    +0.332 C 
ATOM     42  O   UNL     1      10.929   1.683  23.935  0.00  0.00    -0.246 OA
BRANCH  41  44
ATOM     43  C   UNL     1       9.602  -1.618  24.184  0.00  0.00    +0.015 C 
ATOM     44  C   UNL     1      10.161  -0.479  24.626  0.00  0.00    +0.092 C 
BRANCH  43  46
ATOM     45  C   UNL     1       9.464  -4.117  24.538  0.00  0.00    +0.011 A 
ATOM     46  C   UNL     1       9.255  -2.805  24.985  0.00  0.00    -0.025 A 
ATOM     47  C   UNL     1       8.580  -2.614  26.203  0.00  0.00    +0.011 A 
ATOM     48  C   UNL     1       8.126  -3.703  26.953  0.00  0.00    +0.046 A 
ATOM     49  C   UNL     1       8.331  -4.994  26.486  0.00  0.00    +0.117 A 
ATOM     50  C   UNL     1       9.003  -5.210  25.286  0.00  0.00    +0.046 A 
BRANCH  49  51
ATOM     51  O   UNL     1       7.839  -6.025  27.228  0.00  0.00    -0.507 OA
ATOM     52  H   UNL     1       7.347  -5.662  27.982  0.00  0.00    +0.292 HD
ENDBRANCH  49  51
ENDBRANCH  43  46
ENDBRANCH  41  44
ENDBRANCH  40  41
ENDBRANCH  39  40
ENDBRANCH   1  39
TORSDOF 16
ENDMDL
MODEL 9
REMARK VINA RESULT:      -6.3      2.332      4.411
REMARK  Name = 
REMARK  16 active torsions:
REMARK  status: ('A' for Active; 'I' for Inactive)
REMARK    1  A    between atoms: C_3  and  O_49
REMARK    2  A    between atoms: C_6  and  C_7
REMARK    3  A    between atoms: C_8  and  C_9
REMARK    4  A    between atoms: C_9  and  O_11
REMARK    5  A    between atoms: O_11  and  C_12
REMARK    6  A    between atoms: C_12  and  C_13
REMARK    7  A    between atoms: C_15  and  O_48
REMARK    8  A    between atoms: C_17  and  O_47
REMARK    9  A    between atoms: C_19  and  O_46
REMARK   10  A    between atoms: C_21  and  O_24
REMARK   11  A    between atoms: O_24  and  C_25
REMARK   12  A    between atoms: C_26  and  C_38
REMARK   13  A    between atoms: C_30  and  O_37
REMARK   14  A    between atoms: C_32  and  O_36
REMARK   15  A    between atoms: C_40  and  O_45
REMARK   16  A    between atoms: C_41  and  O_44
REMARK                            x       y       z     vdW  Elec       q    Type
REMARK                         _______ _______ _______ _____ _____    ______ ____
ROOT
ATOM      1  C   UNL     1       9.370  -1.889  24.140  0.00  0.00    +0.191 C 
ATOM      2  O   UNL     1       8.219  -1.619  24.958  0.00  0.00    -0.330 OA
ATOM      3  C   UNL     1       8.266  -2.369  26.194  0.00  0.00    +0.340 C 
ATOM      4  C   UNL     1       8.330  -3.902  25.951  0.00  0.00    +0.214 C 
ATOM      5  C   UNL     1       9.426  -4.224  24.931  0.00  0.00    +0.180 C 
ATOM      6  C   UNL     1       9.272  -3.349  23.691  0.00  0.00    +0.178 C 
ENDROOT
BRANCH   6   7
ATOM      7  O   UNL     1       8.004  -3.603  23.071  0.00  0.00    -0.386 OA
ATOM      8  H   UNL     1       8.005  -3.195  22.182  0.00  0.00    +0.210 HD
ENDBRANCH   6   7
BRANCH   5   9
ATOM      9  O   UNL     1       9.408  -5.621  24.622  0.00  0.00    -0.386 OA
ATOM     10  H   UNL     1      10.325  -5.891  24.422  0.00  0.00    +0.210 HD
ENDBRANCH   5   9
BRANCH   4  11
ATOM     11  O   UNL     1       8.574  -4.591  27.197  0.00  0.00    -0.383 OA
ATOM     12  H   UNL     1       8.628  -5.543  26.995  0.00  0.00    +0.210 HD
ENDBRANCH   4  11
BRANCH   3  13
ATOM     13  O   UNL     1       7.067  -2.151  26.935  0.00  0.00    -0.453 OA
BRANCH  13  14
ATOM     14  C   UNL     1       6.291  -1.015  26.801  0.00  0.00    +0.214 A 
ATOM     15  C   UNL     1       6.664   0.311  27.380  0.00  0.00    +0.238 A 
ATOM     16  O   UNL     1       7.477   0.418  28.289  0.00  0.00    -0.283 OA
ATOM     17  C   UNL     1       5.956   1.492  26.863  0.00  0.00    +0.109 A 
ATOM     18  C   UNL     1       4.835   1.274  26.063  0.00  0.00    +0.147 A 
ATOM     19  C   UNL     1       4.145   2.359  25.513  0.00  0.00    +0.092 A 
ATOM     20  C   UNL     1       4.572   3.656  25.798  0.00  0.00    +0.124 A 
ATOM     21  C   UNL     1       5.666   3.886  26.621  0.00  0.00    +0.091 A 
ATOM     22  O   UNL     1       4.338   0.019  25.805  0.00  0.00    -0.451 OA
ATOM     23  C   UNL     1       6.360   2.803  27.153  0.00  0.00    +0.135 A 
ATOM     24  C   UNL     1       5.113  -1.086  26.138  0.00  0.00    +0.181 A 
BRANCH  24  25
ATOM     25  C   UNL     1       4.524  -2.389  25.698  0.00  0.00    +0.025 A 
ATOM     26  C   UNL     1       4.791  -2.919  24.422  0.00  0.00    +0.015 A 
ATOM     27  C   UNL     1       4.245  -4.149  24.020  0.00  0.00    +0.050 A 
ATOM     28  C   UNL     1       3.429  -4.855  24.892  0.00  0.00    +0.158 A 
ATOM     29  C   UNL     1       3.127  -4.337  26.142  0.00  0.00    +0.159 A 
ATOM     30  C   UNL     1       3.639  -3.105  26.535  0.00  0.00    +0.060 A 
BRANCH  29  31
ATOM     31  O   UNL     1       2.324  -5.080  26.966  0.00  0.00    -0.503 OA
ATOM     32  H   UNL     1       1.528  -5.329  26.461  0.00  0.00    +0.292 HD
ENDBRANCH  29  31
BRANCH  28  33
ATOM     33  O   UNL     1       2.926  -6.067  24.515  0.00  0.00    -0.503 OA
ATOM     34  H   UNL     1       3.694  -6.672  24.550  0.00  0.00    +0.292 HD
ENDBRANCH  28  33
ENDBRANCH  24  25
BRANCH  20  35
ATOM     35  O   UNL     1       3.940   4.753  25.284  0.00  0.00    -0.507 OA
ATOM     36  H   UNL     1       4.102   5.513  25.869  0.00  0.00    +0.292 HD
ENDBRANCH  20  35
BRANCH  23  37
ATOM     37  O   UNL     1       7.444   3.049  27.947  0.00  0.00    -0.506 OA
ATOM     38  H   UNL     1       7.799   3.934  27.772  0.00  0.00    +0.292 HD
ENDBRANCH  23  37
ENDBRANCH  13  14
ENDBRANCH   3  13
BRANCH   1  39
ATOM     39  C   UNL     1       9.474  -0.956  22.918  0.00  0.00    +0.266 C 
BRANCH  39  40
ATOM     40  O   UNL     1      10.591  -0.035  23.043  0.00  0.00    -0.459 OA
BRANCH  40  41
ATOM     41  C   UNL     1      10.629   0.711  24.178  0.00  0.00    +0.332 C 
ATOM     42  O   UNL     1      11.530   0.706  24.999  0.00  0.00    -0.246 OA
BRANCH  41  44
ATOM     43  C   UNL     1       9.417   2.613  23.264  0.00  0.00    +0.015 C 
ATOM     44  C   UNL     1       9.479   1.647  24.195  0.00  0.00    +0.092 C 
BRANCH  43  46
ATOM     45  C   UNL     1       8.407   4.918  23.514  0.00  0.00    +0.011 A 
ATOM     46  C   UNL     1       8.331   3.591  23.070  0.00  0.00    -0.025 A 
ATOM     47  C   UNL     1       7.120   3.141  22.515  0.00  0.00    +0.011 A 
ATOM     48  C   UNL     1       6.017   3.993  22.409  0.00  0.00    +0.046 A 
ATOM     49  C   UNL     1       6.109   5.299  22.868  0.00  0.00    +0.117 A 
ATOM     50  C   UNL     1       7.299   5.771  23.415  0.00  0.00    +0.046 A 
BRANCH  49  51
ATOM     51  O   UNL     1       4.999   6.084  22.781  0.00  0.00    -0.507 OA
ATOM     52  H   UNL     1       5.002   6.714  23.519  0.00  0.00    +0.292 HD
ENDBRANCH  49  51
ENDBRANCH  43  46
ENDBRANCH  41  44
ENDBRANCH  40  41
ENDBRANCH  39  40
ENDBRANCH   1  39
TORSDOF 16
ENDMDL
