MODEL 1
REMARK VINA RESULT:      -6.8      0.000      0.000
REMARK  Name = 
REMARK  22 active torsions:
REMARK  status: ('A' for Active; 'I' for Inactive)
REMARK    1  A    between atoms: C_2  and  O_61
REMARK    2  A    between atoms: C_4  and  O_60
REMARK    3  A    between atoms: C_5  and  O_59
REMARK    4  A    between atoms: C_7  and  O_10
REMARK    5  A    between atoms: O_10  and  C_11
REMARK    6  A    between atoms: C_12  and  O_23
REMARK    7  A    between atoms: C_15  and  C_21
REMARK    8  A    between atoms: C_16  and  O_20
REMARK    9  A    between atoms: C_18  and  O_19
REMARK   10  A    between atoms: C_21  and  O_22
REMARK   11  A    between atoms: O_23  and  C_24
REMARK   12  A    between atoms: C_25  and  C_37
REMARK   13  A    between atoms: C_29  and  O_36
REMARK   14  A    between atoms: C_31  and  O_35
REMARK   15  A    between atoms: C_39  and  O_44
REMARK   16  A    between atoms: C_40  and  O_43
REMARK   17  A    between atoms: O_44  and  C_45
REMARK   18  A    between atoms: C_47  and  O_58
REMARK   19  A    between atoms: C_48  and  O_57
REMARK   20  A    between atoms: C_50  and  O_56
REMARK   21  A    between atoms: C_52  and  C_54
REMARK   22  A    between atoms: C_54  and  O_55
REMARK                            x       y       z     vdW  Elec       q    Type
REMARK                         _______ _______ _______ _____ _____    ______ ____
ROOT
ATOM      1  C   UNL     1       4.969  -1.225  25.996  0.00  0.00    +0.214 A 
ATOM      2  C   UNL     1       3.919  -2.301  25.899  0.00  0.00    +0.238 A 
ATOM      3  O   UNL     1       3.798  -2.959  24.870  0.00  0.00    -0.283 OA
ATOM      4  C   UNL     1       3.053  -2.484  27.081  0.00  0.00    +0.109 A 
ATOM      5  C   UNL     1       3.021  -1.440  27.998  0.00  0.00    +0.147 A 
ATOM      6  C   UNL     1       2.246  -1.519  29.157  0.00  0.00    +0.092 A 
ATOM      7  C   UNL     1       1.473  -2.651  29.373  0.00  0.00    +0.124 A 
ATOM      8  C   UNL     1       1.463  -3.695  28.453  0.00  0.00    +0.091 A 
ATOM      9  O   UNL     1       3.701  -0.269  27.800  0.00  0.00    -0.451 OA
ATOM     10  C   UNL     1       2.262  -3.616  27.308  0.00  0.00    +0.135 A 
ATOM     11  C   UNL     1       4.733  -0.235  26.872  0.00  0.00    +0.181 A 
ENDROOT
BRANCH  11  12
ATOM     12  C   UNL     1       5.554   1.003  27.025  0.00  0.00    +0.025 A 
ATOM     13  C   UNL     1       6.362   1.253  28.145  0.00  0.00    +0.015 A 
ATOM     14  C   UNL     1       7.020   2.475  28.297  0.00  0.00    +0.050 A 
ATOM     15  C   UNL     1       6.929   3.433  27.297  0.00  0.00    +0.159 A 
ATOM     16  C   UNL     1       6.225   3.180  26.118  0.00  0.00    +0.166 A 
ATOM     17  C   UNL     1       5.552   1.965  25.990  0.00  0.00    +0.061 A 
BRANCH  15  18
ATOM     18  O   UNL     1       7.541   4.635  27.512  0.00  0.00    -0.503 OA
ATOM     19  H   UNL     1       7.031   5.091  28.209  0.00  0.00    +0.292 HD
ENDBRANCH  15  18
BRANCH  16  20
ATOM     20  O   UNL     1       6.287   4.153  25.158  0.00  0.00    -0.457 OA
BRANCH  20  21
ATOM     21  C   UNL     1       7.059   3.876  23.976  0.00  0.00    +0.339 C 
ATOM     22  O   UNL     1       8.289   4.604  23.924  0.00  0.00    -0.331 OA
ATOM     23  C   UNL     1       8.136   6.035  23.857  0.00  0.00    +0.179 C 
ATOM     24  C   UNL     1       7.224   6.501  22.694  0.00  0.00    +0.177 C 
ATOM     25  C   UNL     1       5.904   5.721  22.692  0.00  0.00    +0.180 C 
ATOM     26  C   UNL     1       6.201   4.210  22.737  0.00  0.00    +0.214 C 
BRANCH  26  27
ATOM     27  O   UNL     1       4.980   3.465  22.708  0.00  0.00    -0.383 OA
ATOM     28  H   UNL     1       4.776   3.253  21.780  0.00  0.00    +0.210 HD
ENDBRANCH  26  27
BRANCH  25  29
ATOM     29  O   UNL     1       5.081   6.181  23.772  0.00  0.00    -0.386 OA
ATOM     30  H   UNL     1       5.283   7.120  23.936  0.00  0.00    +0.210 HD
ENDBRANCH  25  29
BRANCH  24  31
ATOM     31  O   UNL     1       7.874   6.322  21.433  0.00  0.00    -0.386 OA
ATOM     32  H   UNL     1       7.251   6.604  20.738  0.00  0.00    +0.210 HD
ENDBRANCH  24  31
BRANCH  23  33
ATOM     33  C   UNL     1       9.540   6.655  23.728  0.00  0.00    +0.190 C 
BRANCH  33  34
ATOM     34  O   UNL     1      10.389   5.895  22.867  0.00  0.00    -0.392 OA
ATOM     35  H   UNL     1      10.280   4.953  23.088  0.00  0.00    +0.210 HD
ENDBRANCH  33  34
ENDBRANCH  23  33
ENDBRANCH  20  21
ENDBRANCH  16  20
ENDBRANCH  11  12
BRANCH  10  36
ATOM     36  O   UNL     1       2.271  -4.662  26.429  0.00  0.00    -0.506 OA
ATOM     37  H   UNL     1       2.829  -4.441  25.664  0.00  0.00    +0.292 HD
ENDBRANCH  10  36
BRANCH   7  38
ATOM     38  O   UNL     1       0.694  -2.774  30.485  0.00  0.00    -0.507 OA
ATOM     39  H   UNL     1      -0.206  -3.030  30.219  0.00  0.00    +0.292 HD
ENDBRANCH   7  38
BRANCH   1  40
ATOM     40  O   UNL     1       6.066  -1.231  25.135  0.00  0.00    -0.453 OA
BRANCH  40  46
ATOM     41  C   UNL     1       7.124  -3.188  24.135  0.00  0.00    +0.221 C 
ATOM     42  C   UNL     1       8.011  -2.532  23.051  0.00  0.00    +0.180 C 
ATOM     43  C   UNL     1       9.342  -2.023  23.618  0.00  0.00    +0.177 C 
ATOM     44  C   UNL     1       9.148  -1.139  24.857  0.00  0.00    +0.179 C 
ATOM     45  O   UNL     1       8.297  -1.758  25.832  0.00  0.00    -0.331 OA
ATOM     46  C   UNL     1       7.038  -2.261  25.377  0.00  0.00    +0.340 C 
BRANCH  43  47
ATOM     47  O   UNL     1      10.184  -3.131  23.973  0.00  0.00    -0.386 OA
ATOM     48  H   UNL     1       9.610  -3.891  24.184  0.00  0.00    +0.210 HD
ENDBRANCH  43  47
BRANCH  42  49
ATOM     49  O   UNL     1       7.337  -1.435  22.411  0.00  0.00    -0.386 OA
ATOM     50  H   UNL     1       6.595  -1.776  21.878  0.00  0.00    +0.210 HD
ENDBRANCH  42  49
BRANCH  44  51
ATOM     51  C   UNL     1       8.675   0.289  24.557  0.00  0.00    +0.190 C 
BRANCH  51  52
ATOM     52  O   UNL     1       9.082   1.155  25.623  0.00  0.00    -0.392 OA
ATOM     53  H   UNL     1       9.799   1.708  25.259  0.00  0.00    +0.210 HD
ENDBRANCH  51  52
ENDBRANCH  44  51
BRANCH  41  54
ATOM     54  O   UNL     1       7.593  -4.522  24.441  0.00  0.00    -0.337 OA
BRANCH  54  57
ATOM     55  C   UNL     1       4.778  -6.370  23.162  0.00  0.00    +0.197 C 
ATOM     56  O   UNL     1       5.603  -5.232  23.433  0.00  0.00    -0.346 OA
ATOM     57  C   UNL     1       6.575  -5.546  24.447  0.00  0.00    +0.282 C 
ATOM     58  C   UNL     1       5.818  -5.752  25.788  0.00  0.00    +0.201 C 
ATOM     59  C   UNL     1       4.834  -6.928  25.624  0.00  0.00    +0.178 C 
ATOM     60  C   UNL     1       3.953  -6.786  24.379  0.00  0.00    +0.171 C 
BRANCH  60  61
ATOM     61  O   UNL     1       3.319  -8.042  24.110  0.00  0.00    -0.387 OA
ATOM     62  H   UNL     1       2.402  -7.988  24.437  0.00  0.00    +0.210 HD
ENDBRANCH  60  61
BRANCH  59  63
ATOM     63  O   UNL     1       4.017  -7.079  26.799  0.00  0.00    -0.386 OA
ATOM     64  H   UNL     1       4.014  -8.017  27.053  0.00  0.00    +0.210 HD
ENDBRANCH  59  63
BRANCH  58  65
ATOM     65  O   UNL     1       6.672  -6.042  26.902  0.00  0.00    -0.384 OA
ATOM     66  H   UNL     1       7.272  -5.269  27.015  0.00  0.00    +0.210 HD
ENDBRANCH  58  65
ENDBRANCH  54  57
ENDBRANCH  41  54
ENDBRANCH  40  46
ENDBRANCH   1  40
TORSDOF 22
ENDMDL
MODEL 2
REMARK VINA RESULT:      -6.7      1.956      2.704
REMARK  Name = 
REMARK  22 active torsions:
REMARK  status: ('A' for Active; 'I' for Inactive)
REMARK    1  A    between atoms: C_2  and  O_61
REMARK    2  A    between atoms: C_4  and  O_60
REMARK    3  A    between atoms: C_5  and  O_59
REMARK    4  A    between atoms: C_7  and  O_10
REMARK    5  A    between atoms: O_10  and  C_11
REMARK    6  A    between atoms: C_12  and  O_23
REMARK    7  A    between atoms: C_15  and  C_21
REMARK    8  A    between atoms: C_16  and  O_20
REMARK    9  A    between atoms: C_18  and  O_19
REMARK   10  A    between atoms: C_21  and  O_22
REMARK   11  A    between atoms: O_23  and  C_24
REMARK   12  A    between atoms: C_25  and  C_37
REMARK   13  A    between atoms: C_29  and  O_36
REMARK   14  A    between atoms: C_31  and  O_35
REMARK   15  A    between atoms: C_39  and  O_44
REMARK   16  A    between atoms: C_40  and  O_43
REMARK   17  A    between atoms: O_44  and  C_45
REMARK   18  A    between atoms: C_47  and  O_58
REMARK   19  A    between atoms: C_48  and  O_57
REMARK   20  A    between atoms: C_50  and  O_56
REMARK   21  A    between atoms: C_52  and  C_54
REMARK   22  A    between atoms: C_54  and  O_55
REMARK                            x       y       z     vdW  Elec       q    Type
REMARK                         _______ _______ _______ _____ _____    ______ ____
ROOT
ATOM      1  C   UNL     1       7.222  -2.135  26.198  0.00  0.00    +0.214 A 
ATOM      2  C   UNL     1       6.967  -3.620  26.250  0.00  0.00    +0.238 A 
ATOM      3  O   UNL     1       7.489  -4.367  25.429  0.00  0.00    -0.283 OA
ATOM      4  C   UNL     1       6.052  -4.094  27.307  0.00  0.00    +0.109 A 
ATOM      5  C   UNL     1       5.233  -3.138  27.898  0.00  0.00    +0.147 A 
ATOM      6  C   UNL     1       4.342  -3.479  28.918  0.00  0.00    +0.092 A 
ATOM      7  C   UNL     1       4.258  -4.804  29.321  0.00  0.00    +0.124 A 
ATOM      8  C   UNL     1       5.045  -5.785  28.722  0.00  0.00    +0.091 A 
ATOM      9  O   UNL     1       5.218  -1.832  27.488  0.00  0.00    -0.451 OA
ATOM     10  C   UNL     1       5.950  -5.427  27.719  0.00  0.00    +0.135 A 
ATOM     11  C   UNL     1       6.278  -1.347  26.735  0.00  0.00    +0.181 A 
ENDROOT
BRANCH  11  12
ATOM     12  C   UNL     1       6.248   0.145  26.662  0.00  0.00    +0.025 A 
ATOM     13  C   UNL     1       6.968   0.970  27.539  0.00  0.00    +0.015 A 
ATOM     14  C   UNL     1       6.818   2.358  27.506  0.00  0.00    +0.050 A 
ATOM     15  C   UNL     1       5.995   2.936  26.551  0.00  0.00    +0.159 A 
ATOM     16  C   UNL     1       5.347   2.158  25.591  0.00  0.00    +0.166 A 
ATOM     17  C   UNL     1       5.487   0.771  25.650  0.00  0.00    +0.061 A 
BRANCH  15  18
ATOM     18  O   UNL     1       5.832   4.292  26.591  0.00  0.00    -0.503 OA
ATOM     19  H   UNL     1       4.883   4.458  26.753  0.00  0.00    +0.292 HD
ENDBRANCH  15  18
BRANCH  16  20
ATOM     20  O   UNL     1       4.644   2.840  24.635  0.00  0.00    -0.457 OA
BRANCH  20  21
ATOM     21  C   UNL     1       5.123   2.773  23.279  0.00  0.00    +0.339 C 
ATOM     22  O   UNL     1       6.543   2.894  23.178  0.00  0.00    -0.331 OA
ATOM     23  C   UNL     1       7.069   4.161  23.622  0.00  0.00    +0.179 C 
ATOM     24  C   UNL     1       6.407   5.378  22.928  0.00  0.00    +0.177 C 
ATOM     25  C   UNL     1       4.879   5.271  22.985  0.00  0.00    +0.180 C 
ATOM     26  C   UNL     1       4.442   3.890  22.461  0.00  0.00    +0.214 C 
BRANCH  26  27
ATOM     27  O   UNL     1       3.015   3.783  22.481  0.00  0.00    -0.383 OA
ATOM     28  H   UNL     1       2.655   4.386  21.806  0.00  0.00    +0.210 HD
ENDBRANCH  26  27
BRANCH  25  29
ATOM     29  O   UNL     1       4.435   5.550  24.319  0.00  0.00    -0.386 OA
ATOM     30  H   UNL     1       3.477   5.383  24.367  0.00  0.00    +0.210 HD
ENDBRANCH  25  29
BRANCH  24  31
ATOM     31  O   UNL     1       6.818   5.472  21.561  0.00  0.00    -0.386 OA
ATOM     32  H   UNL     1       6.034   5.305  21.006  0.00  0.00    +0.210 HD
ENDBRANCH  24  31
BRANCH  23  33
ATOM     33  C   UNL     1       8.590   4.154  23.372  0.00  0.00    +0.190 C 
BRANCH  33  34
ATOM     34  O   UNL     1       8.970   3.201  22.378  0.00  0.00    -0.392 OA
ATOM     35  H   UNL     1       8.303   2.493  22.366  0.00  0.00    +0.210 HD
ENDBRANCH  33  34
ENDBRANCH  23  33
ENDBRANCH  20  21
ENDBRANCH  16  20
ENDBRANCH  11  12
BRANCH  10  36
ATOM     36  O   UNL     1       6.742  -6.392  27.162  0.00  0.00    -0.506 OA
ATOM     37  H   UNL     1       7.520  -6.543  27.726  0.00  0.00    +0.292 HD
ENDBRANCH  10  36
BRANCH   7  38
ATOM     38  O   UNL     1       3.401  -5.190  30.307  0.00  0.00    -0.507 OA
ATOM     39  H   UNL     1       3.370  -6.162  30.343  0.00  0.00    +0.292 HD
ENDBRANCH   7  38
BRANCH   1  40
ATOM     40  O   UNL     1       8.339  -1.635  25.529  0.00  0.00    -0.453 OA
BRANCH  40  46
ATOM     41  C   UNL     1       7.648  -1.728  23.192  0.00  0.00    +0.221 C 
ATOM     42  C   UNL     1       8.115  -0.345  22.683  0.00  0.00    +0.180 C 
ATOM     43  C   UNL     1       9.603  -0.334  22.309  0.00  0.00    +0.177 C 
ATOM     44  C   UNL     1      10.488  -0.897  23.427  0.00  0.00    +0.179 C 
ATOM     45  O   UNL     1      10.015  -2.166  23.902  0.00  0.00    -0.331 OA
ATOM     46  C   UNL     1       8.635  -2.255  24.268  0.00  0.00    +0.340 C 
BRANCH  43  47
ATOM     47  O   UNL     1       9.818  -1.109  21.119  0.00  0.00    -0.386 OA
ATOM     48  H   UNL     1       9.218  -1.878  21.147  0.00  0.00    +0.210 HD
ENDBRANCH  43  47
BRANCH  42  49
ATOM     49  O   UNL     1       7.882   0.684  23.661  0.00  0.00    -0.386 OA
ATOM     50  H   UNL     1       7.388   0.311  24.414  0.00  0.00    +0.210 HD
ENDBRANCH  42  49
BRANCH  44  51
ATOM     51  C   UNL     1      10.728   0.062  24.599  0.00  0.00    +0.190 C 
BRANCH  51  52
ATOM     52  O   UNL     1      10.762   1.407  24.110  0.00  0.00    -0.392 OA
ATOM     53  H   UNL     1      11.300   1.911  24.750  0.00  0.00    +0.210 HD
ENDBRANCH  51  52
ENDBRANCH  44  51
BRANCH  41  54
ATOM     54  O   UNL     1       7.455  -2.642  22.088  0.00  0.00    -0.337 OA
BRANCH  54  57
ATOM     55  C   UNL     1       4.250  -3.764  23.286  0.00  0.00    +0.197 C 
ATOM     56  O   UNL     1       5.522  -3.111  23.322  0.00  0.00    -0.346 OA
ATOM     57  C   UNL     1       6.348  -3.556  22.230  0.00  0.00    +0.282 C 
ATOM     58  C   UNL     1       6.716  -5.044  22.486  0.00  0.00    +0.201 C 
ATOM     59  C   UNL     1       5.416  -5.873  22.533  0.00  0.00    +0.178 C 
ATOM     60  C   UNL     1       4.374  -5.275  23.482  0.00  0.00    +0.171 C 
BRANCH  60  61
ATOM     61  O   UNL     1       3.103  -5.887  23.226  0.00  0.00    -0.387 OA
ATOM     62  H   UNL     1       2.594  -5.285  22.652  0.00  0.00    +0.210 HD
ENDBRANCH  60  61
BRANCH  59  63
ATOM     63  O   UNL     1       5.693  -7.238  22.894  0.00  0.00    -0.386 OA
ATOM     64  H   UNL     1       5.113  -7.818  22.373  0.00  0.00    +0.210 HD
ENDBRANCH  59  63
BRANCH  58  65
ATOM     65  O   UNL     1       7.568  -5.615  21.485  0.00  0.00    -0.384 OA
ATOM     66  H   UNL     1       8.450  -5.751  21.900  0.00  0.00    +0.210 HD
ENDBRANCH  58  65
ENDBRANCH  54  57
ENDBRANCH  41  54
ENDBRANCH  40  46
ENDBRANCH   1  40
TORSDOF 22
ENDMDL
MODEL 3
REMARK VINA RESULT:      -6.7      1.940      8.554
REMARK  Name = 
REMARK  22 active torsions:
REMARK  status: ('A' for Active; 'I' for Inactive)
REMARK    1  A    between atoms: C_2  and  O_61
REMARK    2  A    between atoms: C_4  and  O_60
REMARK    3  A    between atoms: C_5  and  O_59
REMARK    4  A    between atoms: C_7  and  O_10
REMARK    5  A    between atoms: O_10  and  C_11
REMARK    6  A    between atoms: C_12  and  O_23
REMARK    7  A    between atoms: C_15  and  C_21
REMARK    8  A    between atoms: C_16  and  O_20
REMARK    9  A    between atoms: C_18  and  O_19
REMARK   10  A    between atoms: C_21  and  O_22
REMARK   11  A    between atoms: O_23  and  C_24
REMARK   12  A    between atoms: C_25  and  C_37
REMARK   13  A    between atoms: C_29  and  O_36
REMARK   14  A    between atoms: C_31  and  O_35
REMARK   15  A    between atoms: C_39  and  O_44
REMARK   16  A    between atoms: C_40  and  O_43
REMARK   17  A    between atoms: O_44  and  C_45
REMARK   18  A    between atoms: C_47  and  O_58
REMARK   19  A    between atoms: C_48  and  O_57
REMARK   20  A    between atoms: C_50  and  O_56
REMARK   21  A    between atoms: C_52  and  C_54
REMARK   22  A    between atoms: C_54  and  O_55
REMARK                            x       y       z     vdW  Elec       q    Type
REMARK                         _______ _______ _______ _____ _____    ______ ____
ROOT
ATOM      1  C   UNL     1       7.453   2.308  25.380  0.00  0.00    +0.214 A 
ATOM      2  C   UNL     1       7.617   3.703  24.834  0.00  0.00    +0.238 A 
ATOM      3  O   UNL     1       6.662   4.473  24.805  0.00  0.00    -0.283 OA
ATOM      4  C   UNL     1       8.957   4.058  24.327  0.00  0.00    +0.109 A 
ATOM      5  C   UNL     1       9.818   3.003  24.049  0.00  0.00    +0.147 A 
ATOM      6  C   UNL     1      11.114   3.232  23.579  0.00  0.00    +0.092 A 
ATOM      7  C   UNL     1      11.528   4.538  23.360  0.00  0.00    +0.124 A 
ATOM      8  C   UNL     1      10.672   5.609  23.601  0.00  0.00    +0.091 A 
ATOM      9  O   UNL     1       9.438   1.695  24.172  0.00  0.00    -0.451 OA
ATOM     10  C   UNL     1       9.387   5.370  24.094  0.00  0.00    +0.135 A 
ATOM     11  C   UNL     1       8.318   1.384  24.931  0.00  0.00    +0.181 A 
ENDROOT
BRANCH  11  12
ATOM     12  C   UNL     1       8.249  -0.080  25.216  0.00  0.00    +0.025 A 
ATOM     13  C   UNL     1       8.667  -0.644  26.431  0.00  0.00    +0.015 A 
ATOM     14  C   UNL     1       8.693  -2.029  26.609  0.00  0.00    +0.050 A 
ATOM     15  C   UNL     1       8.239  -2.860  25.595  0.00  0.00    +0.159 A 
ATOM     16  C   UNL     1       7.714  -2.334  24.413  0.00  0.00    +0.166 A 
ATOM     17  C   UNL     1       7.716  -0.950  24.239  0.00  0.00    +0.061 A 
BRANCH  15  18
ATOM     18  O   UNL     1       8.335  -4.209  25.788  0.00  0.00    -0.503 OA
ATOM     19  H   UNL     1       8.725  -4.340  26.673  0.00  0.00    +0.292 HD
ENDBRANCH  15  18
BRANCH  16  20
ATOM     20  O   UNL     1       7.200  -3.240  23.525  0.00  0.00    -0.457 OA
BRANCH  20  21
ATOM     21  C   UNL     1       5.782  -3.480  23.561  0.00  0.00    +0.339 C 
ATOM     22  O   UNL     1       5.377  -4.294  24.663  0.00  0.00    -0.331 OA
ATOM     23  C   UNL     1       5.910  -5.633  24.647  0.00  0.00    +0.179 C 
ATOM     24  C   UNL     1       5.623  -6.392  23.327  0.00  0.00    +0.177 C 
ATOM     25  C   UNL     1       6.013  -5.539  22.114  0.00  0.00    +0.180 C 
ATOM     26  C   UNL     1       5.362  -4.148  22.235  0.00  0.00    +0.214 C 
BRANCH  26  27
ATOM     27  O   UNL     1       5.693  -3.347  21.096  0.00  0.00    -0.383 OA
ATOM     28  H   UNL     1       6.181  -3.905  20.464  0.00  0.00    +0.210 HD
ENDBRANCH  26  27
BRANCH  25  29
ATOM     29  O   UNL     1       7.442  -5.501  22.003  0.00  0.00    -0.386 OA
ATOM     30  H   UNL     1       7.690  -4.716  21.483  0.00  0.00    +0.210 HD
ENDBRANCH  25  29
BRANCH  24  31
ATOM     31  O   UNL     1       4.239  -6.739  23.229  0.00  0.00    -0.386 OA
ATOM     32  H   UNL     1       3.975  -6.631  22.296  0.00  0.00    +0.210 HD
ENDBRANCH  24  31
BRANCH  23  33
ATOM     33  C   UNL     1       5.317  -6.392  25.850  0.00  0.00    +0.190 C 
BRANCH  33  34
ATOM     34  O   UNL     1       6.196  -6.392  26.976  0.00  0.00    -0.392 OA
ATOM     35  H   UNL     1       6.614  -5.515  27.034  0.00  0.00    +0.210 HD
ENDBRANCH  33  34
ENDBRANCH  23  33
ENDBRANCH  20  21
ENDBRANCH  16  20
ENDBRANCH  11  12
BRANCH  10  36
ATOM     36  O   UNL     1       8.567   6.430  24.360  0.00  0.00    -0.506 OA
ATOM     37  H   UNL     1       8.989   7.015  25.012  0.00  0.00    +0.292 HD
ENDBRANCH  10  36
BRANCH   7  38
ATOM     38  O   UNL     1      12.780   4.814  22.897  0.00  0.00    -0.507 OA
ATOM     39  H   UNL     1      12.842   5.762  22.685  0.00  0.00    +0.292 HD
ENDBRANCH   7  38
BRANCH   1  40
ATOM     40  O   UNL     1       6.387   2.002  26.226  0.00  0.00    -0.453 OA
BRANCH  40  46
ATOM     41  C   UNL     1       4.885   0.123  26.629  0.00  0.00    +0.221 C 
ATOM     42  C   UNL     1       3.930   0.720  27.688  0.00  0.00    +0.180 C 
ATOM     43  C   UNL     1       2.813   1.561  27.057  0.00  0.00    +0.177 C 
ATOM     44  C   UNL     1       3.355   2.606  26.074  0.00  0.00    +0.179 C 
ATOM     45  O   UNL     1       4.261   2.031  25.122  0.00  0.00    -0.331 OA
ATOM     46  C   UNL     1       5.330   1.230  25.636  0.00  0.00    +0.340 C 
BRANCH  43  47
ATOM     47  O   UNL     1       1.890   0.711  26.360  0.00  0.00    -0.386 OA
ATOM     48  H   UNL     1       2.214  -0.207  26.429  0.00  0.00    +0.210 HD
ENDBRANCH  43  47
BRANCH  42  49
ATOM     49  O   UNL     1       4.638   1.539  28.636  0.00  0.00    -0.386 OA
ATOM     50  H   UNL     1       5.538   1.184  28.764  0.00  0.00    +0.210 HD
ENDBRANCH  42  49
BRANCH  44  51
ATOM     51  C   UNL     1       3.978   3.843  26.732  0.00  0.00    +0.190 C 
BRANCH  51  52
ATOM     52  O   UNL     1       4.060   4.900  25.770  0.00  0.00    -0.392 OA
ATOM     53  H   UNL     1       3.472   4.639  25.035  0.00  0.00    +0.210 HD
ENDBRANCH  51  52
ENDBRANCH  44  51
BRANCH  41  54
ATOM     54  O   UNL     1       4.282  -1.023  25.985  0.00  0.00    -0.337 OA
BRANCH  54  57
ATOM     55  C   UNL     1       4.432  -3.618  28.477  0.00  0.00    +0.197 C 
ATOM     56  O   UNL     1       4.837  -2.848  27.342  0.00  0.00    -0.346 OA
ATOM     57  C   UNL     1       3.752  -2.024  26.879  0.00  0.00    +0.282 C 
ATOM     58  C   UNL     1       2.660  -2.959  26.291  0.00  0.00    +0.201 C 
ATOM     59  C   UNL     1       2.164  -3.902  27.406  0.00  0.00    +0.178 C 
ATOM     60  C   UNL     1       3.314  -4.602  28.135  0.00  0.00    +0.171 C 
BRANCH  60  61
ATOM     61  O   UNL     1       2.813  -5.184  29.346  0.00  0.00    -0.387 OA
ATOM     62  H   UNL     1       2.286  -5.967  29.103  0.00  0.00    +0.210 HD
ENDBRANCH  60  61
BRANCH  59  63
ATOM     63  O   UNL     1       1.241  -4.874  26.881  0.00  0.00    -0.386 OA
ATOM     64  H   UNL     1       1.750  -5.570  26.432  0.00  0.00    +0.210 HD
ENDBRANCH  59  63
BRANCH  58  65
ATOM     65  O   UNL     1       1.523  -2.267  25.759  0.00  0.00    -0.384 OA
ATOM     66  H   UNL     1       0.848  -2.229  26.475  0.00  0.00    +0.210 HD
ENDBRANCH  58  65
ENDBRANCH  54  57
ENDBRANCH  41  54
ENDBRANCH  40  46
ENDBRANCH   1  40
TORSDOF 22
ENDMDL
MODEL 4
REMARK VINA RESULT:      -6.6      2.370      8.705
REMARK  Name = 
REMARK  22 active torsions:
REMARK  status: ('A' for Active; 'I' for Inactive)
REMARK    1  A    between atoms: C_2  and  O_61
REMARK    2  A    between atoms: C_4  and  O_60
REMARK    3  A    between atoms: C_5  and  O_59
REMARK    4  A    between atoms: C_7  and  O_10
REMARK    5  A    between atoms: O_10  and  C_11
REMARK    6  A    between atoms: C_12  and  O_23
REMARK    7  A    between atoms: C_15  and  C_21
REMARK    8  A    between atoms: C_16  and  O_20
REMARK    9  A    between atoms: C_18  and  O_19
REMARK   10  A    between atoms: C_21  and  O_22
REMARK   11  A    between atoms: O_23  and  C_24
REMARK   12  A    between atoms: C_25  and  C_37
REMARK   13  A    between atoms: C_29  and  O_36
REMARK   14  A    between atoms: C_31  and  O_35
REMARK   15  A    between atoms: C_39  and  O_44
REMARK   16  A    between atoms: C_40  and  O_43
REMARK   17  A    between atoms: O_44  and  C_45
REMARK   18  A    between atoms: C_47  and  O_58
REMARK   19  A    between atoms: C_48  and  O_57
REMARK   20  A    between atoms: C_50  and  O_56
REMARK   21  A    between atoms: C_52  and  C_54
REMARK   22  A    between atoms: C_54  and  O_55
REMARK                            x       y       z     vdW  Elec       q    Type
REMARK                         _______ _______ _______ _____ _____    ______ ____
ROOT
ATOM      1  C   UNL     1       6.130  -1.164  26.874  0.00  0.00    +0.214 A 
ATOM      2  C   UNL     1       6.688   0.217  26.646  0.00  0.00    +0.238 A 
ATOM      3  O   UNL     1       7.901   0.394  26.590  0.00  0.00    -0.283 OA
ATOM      4  C   UNL     1       5.706   1.313  26.527  0.00  0.00    +0.109 A 
ATOM      5  C   UNL     1       4.424   1.055  27.000  0.00  0.00    +0.147 A 
ATOM      6  C   UNL     1       3.417   2.019  26.921  0.00  0.00    +0.092 A 
ATOM      7  C   UNL     1       3.718   3.264  26.387  0.00  0.00    +0.124 A 
ATOM      8  C   UNL     1       5.003   3.556  25.937  0.00  0.00    +0.091 A 
ATOM      9  O   UNL     1       4.090  -0.126  27.606  0.00  0.00    -0.451 OA
ATOM     10  C   UNL     1       5.997   2.576  25.999  0.00  0.00    +0.135 A 
ATOM     11  C   UNL     1       4.909  -1.232  27.430  0.00  0.00    +0.181 A 
ENDROOT
BRANCH  11  12
ATOM     12  C   UNL     1       4.230  -2.483  27.881  0.00  0.00    +0.025 A 
ATOM     13  C   UNL     1       4.170  -2.879  29.226  0.00  0.00    +0.015 A 
ATOM     14  C   UNL     1       3.627  -4.114  29.587  0.00  0.00    +0.050 A 
ATOM     15  C   UNL     1       3.079  -4.935  28.612  0.00  0.00    +0.159 A 
ATOM     16  C   UNL     1       3.022  -4.529  27.277  0.00  0.00    +0.166 A 
ATOM     17  C   UNL     1       3.589  -3.304  26.927  0.00  0.00    +0.061 A 
BRANCH  15  18
ATOM     18  O   UNL     1       2.611  -6.158  29.000  0.00  0.00    -0.503 OA
ATOM     19  H   UNL     1       1.684  -6.214  28.697  0.00  0.00    +0.292 HD
ENDBRANCH  15  18
BRANCH  16  20
ATOM     20  O   UNL     1       2.368  -5.370  26.418  0.00  0.00    -0.457 OA
BRANCH  20  21
ATOM     21  C   UNL     1       3.091  -5.842  25.266  0.00  0.00    +0.339 C 
ATOM     22  O   UNL     1       2.360  -5.700  24.047  0.00  0.00    -0.331 OA
ATOM     23  C   UNL     1       1.148  -6.477  23.981  0.00  0.00    +0.179 C 
ATOM     24  C   UNL     1       1.369  -7.984  24.266  0.00  0.00    +0.177 C 
ATOM     25  C   UNL     1       2.180  -8.181  25.552  0.00  0.00    +0.180 C 
ATOM     26  C   UNL     1       3.458  -7.324  25.488  0.00  0.00    +0.214 C 
BRANCH  26  27
ATOM     27  O   UNL     1       4.242  -7.517  26.670  0.00  0.00    -0.383 OA
ATOM     28  H   UNL     1       4.970  -8.127  26.455  0.00  0.00    +0.210 HD
ENDBRANCH  26  27
BRANCH  25  29
ATOM     29  O   UNL     1       1.348  -7.895  26.684  0.00  0.00    -0.386 OA
ATOM     30  H   UNL     1       1.886  -7.979  27.492  0.00  0.00    +0.210 HD
ENDBRANCH  25  29
BRANCH  24  31
ATOM     31  O   UNL     1       2.055  -8.613  23.180  0.00  0.00    -0.386 OA
ATOM     32  H   UNL     1       1.419  -8.712  22.448  0.00  0.00    +0.210 HD
ENDBRANCH  24  31
BRANCH  23  33
ATOM     33  C   UNL     1       0.531  -6.273  22.584  0.00  0.00    +0.190 C 
BRANCH  33  34
ATOM     34  O   UNL     1       0.443  -4.893  22.228  0.00  0.00    -0.392 OA
ATOM     35  H   UNL     1      -0.353  -4.770  21.684  0.00  0.00    +0.210 HD
ENDBRANCH  33  34
ENDBRANCH  23  33
ENDBRANCH  20  21
ENDBRANCH  16  20
ENDBRANCH  11  12
BRANCH  10  36
ATOM     36  O   UNL     1       7.245   2.862  25.522  0.00  0.00    -0.506 OA
ATOM     37  H   UNL     1       7.335   3.822  25.396  0.00  0.00    +0.292 HD
ENDBRANCH  10  36
BRANCH   7  38
ATOM     38  O   UNL     1       2.773   4.241  26.293  0.00  0.00    -0.507 OA
ATOM     39  H   UNL     1       2.711   4.711  27.142  0.00  0.00    +0.292 HD
ENDBRANCH   7  38
BRANCH   1  40
ATOM     40  O   UNL     1       6.907  -2.291  26.607  0.00  0.00    -0.453 OA
BRANCH  40  46
ATOM     41  C   UNL     1       8.344  -2.724  24.685  0.00  0.00    +0.221 C 
ATOM     42  C   UNL     1       9.103  -3.988  25.152  0.00  0.00    +0.180 C 
ATOM     43  C   UNL     1       8.296  -5.271  24.919  0.00  0.00    +0.177 C 
ATOM     44  C   UNL     1       6.874  -5.176  25.485  0.00  0.00    +0.179 C 
ATOM     45  O   UNL     1       6.204  -3.981  25.060  0.00  0.00    -0.331 OA
ATOM     46  C   UNL     1       6.896  -2.742  25.243  0.00  0.00    +0.340 C 
BRANCH  43  47
ATOM     47  O   UNL     1       8.213  -5.554  23.514  0.00  0.00    -0.386 OA
ATOM     48  H   UNL     1       8.047  -4.713  23.047  0.00  0.00    +0.210 HD
ENDBRANCH  43  47
BRANCH  42  49
ATOM     49  O   UNL     1       9.446  -3.911  26.547  0.00  0.00    -0.386 OA
ATOM     50  H   UNL     1       8.980  -3.158  26.956  0.00  0.00    +0.210 HD
ENDBRANCH  42  49
BRANCH  44  51
ATOM     51  C   UNL     1       6.777  -5.336  27.007  0.00  0.00    +0.190 C 
BRANCH  51  52
ATOM     52  O   UNL     1       7.943  -6.017  27.486  0.00  0.00    -0.392 OA
ATOM     53  H   UNL     1       8.701  -5.605  27.027  0.00  0.00    +0.210 HD
ENDBRANCH  51  52
ENDBRANCH  44  51
BRANCH  41  54
ATOM     54  O   UNL     1       8.407  -2.593  23.245  0.00  0.00    -0.337 OA
BRANCH  54  57
ATOM     55  C   UNL     1      10.568   0.217  22.610  0.00  0.00    +0.197 C 
ATOM     56  O   UNL     1      10.025  -0.903  23.316  0.00  0.00    -0.346 OA
ATOM     57  C   UNL     1       8.751  -1.278  22.761  0.00  0.00    +0.282 C 
ATOM     58  C   UNL     1       7.738  -0.144  23.080  0.00  0.00    +0.201 C 
ATOM     59  C   UNL     1       8.233   1.160  22.422  0.00  0.00    +0.178 C 
ATOM     60  C   UNL     1       9.697   1.464  22.754  0.00  0.00    +0.171 C 
BRANCH  60  61
ATOM     61  O   UNL     1      10.177   2.478  21.861  0.00  0.00    -0.387 OA
ATOM     62  H   UNL     1      11.007   2.831  22.231  0.00  0.00    +0.210 HD
ENDBRANCH  60  61
BRANCH  59  63
ATOM     63  O   UNL     1       7.397   2.270  22.793  0.00  0.00    -0.386 OA
ATOM     64  H   UNL     1       7.933   3.081  22.772  0.00  0.00    +0.210 HD
ENDBRANCH  59  63
BRANCH  58  65
ATOM     65  O   UNL     1       6.409  -0.399  22.610  0.00  0.00    -0.384 OA
ATOM     66  H   UNL     1       6.134   0.385  22.082  0.00  0.00    +0.210 HD
ENDBRANCH  58  65
ENDBRANCH  54  57
ENDBRANCH  41  54
ENDBRANCH  40  46
ENDBRANCH   1  40
TORSDOF 22
ENDMDL
MODEL 5
REMARK VINA RESULT:      -6.6      2.322      9.554
REMARK  Name = 
REMARK  22 active torsions:
REMARK  status: ('A' for Active; 'I' for Inactive)
REMARK    1  A    between atoms: C_2  and  O_61
REMARK    2  A    between atoms: C_4  and  O_60
REMARK    3  A    between atoms: C_5  and  O_59
REMARK    4  A    between atoms: C_7  and  O_10
REMARK    5  A    between atoms: O_10  and  C_11
REMARK    6  A    between atoms: C_12  and  O_23
REMARK    7  A    between atoms: C_15  and  C_21
REMARK    8  A    between atoms: C_16  and  O_20
REMARK    9  A    between atoms: C_18  and  O_19
REMARK   10  A    between atoms: C_21  and  O_22
REMARK   11  A    between atoms: O_23  and  C_24
REMARK   12  A    between atoms: C_25  and  C_37
REMARK   13  A    between atoms: C_29  and  O_36
REMARK   14  A    between atoms: C_31  and  O_35
REMARK   15  A    between atoms: C_39  and  O_44
REMARK   16  A    between atoms: C_40  and  O_43
REMARK   17  A    between atoms: O_44  and  C_45
REMARK   18  A    between atoms: C_47  and  O_58
REMARK   19  A    between atoms: C_48  and  O_57
REMARK   20  A    between atoms: C_50  and  O_56
REMARK   21  A    between atoms: C_52  and  C_54
REMARK   22  A    between atoms: C_54  and  O_55
REMARK                            x       y       z     vdW  Elec       q    Type
REMARK                         _______ _______ _______ _____ _____    ______ ____
ROOT
ATOM      1  C   UNL     1       8.017   2.202  24.185  0.00  0.00    +0.214 A 
ATOM      2  C   UNL     1       8.150   3.673  23.883  0.00  0.00    +0.238 A 
ATOM      3  O   UNL     1       7.150   4.368  23.733  0.00  0.00    -0.283 OA
ATOM      4  C   UNL     1       9.525   4.196  23.755  0.00  0.00    +0.109 A 
ATOM      5  C   UNL     1      10.532   3.260  23.549  0.00  0.00    +0.147 A 
ATOM      6  C   UNL     1      11.868   3.650  23.430  0.00  0.00    +0.092 A 
ATOM      7  C   UNL     1      12.182   5.001  23.489  0.00  0.00    +0.124 A 
ATOM      8  C   UNL     1      11.186   5.958  23.663  0.00  0.00    +0.091 A 
ATOM      9  O   UNL     1      10.273   1.925  23.405  0.00  0.00    -0.451 OA
ATOM     10  C   UNL     1       9.856   5.555  23.805  0.00  0.00    +0.135 A 
ATOM     11  C   UNL     1       9.051   1.422  23.832  0.00  0.00    +0.181 A 
ENDROOT
BRANCH  11  12
ATOM     12  C   UNL     1       9.075  -0.069  23.897  0.00  0.00    +0.025 A 
ATOM     13  C   UNL     1      10.250  -0.824  23.761  0.00  0.00    +0.015 A 
ATOM     14  C   UNL     1      10.207  -2.219  23.712  0.00  0.00    +0.050 A 
ATOM     15  C   UNL     1       8.993  -2.873  23.864  0.00  0.00    +0.159 A 
ATOM     16  C   UNL     1       7.817  -2.163  24.110  0.00  0.00    +0.166 A 
ATOM     17  C   UNL     1       7.871  -0.769  24.133  0.00  0.00    +0.061 A 
BRANCH  15  18
ATOM     18  O   UNL     1       8.987  -4.235  23.752  0.00  0.00    -0.503 OA
ATOM     19  H   UNL     1       9.836  -4.488  23.342  0.00  0.00    +0.292 HD
ENDBRANCH  15  18
BRANCH  16  20
ATOM     20  O   UNL     1       6.697  -2.913  24.347  0.00  0.00    -0.457 OA
BRANCH  20  21
ATOM     21  C   UNL     1       5.563  -2.711  23.484  0.00  0.00    +0.339 C 
ATOM     22  O   UNL     1       4.329  -2.593  24.195  0.00  0.00    -0.331 OA
ATOM     23  C   UNL     1       3.944  -3.773  24.929  0.00  0.00    +0.179 C 
ATOM     24  C   UNL     1       3.904  -5.052  24.055  0.00  0.00    +0.177 C 
ATOM     25  C   UNL     1       5.198  -5.201  23.248  0.00  0.00    +0.180 C 
ATOM     26  C   UNL     1       5.484  -3.889  22.491  0.00  0.00    +0.214 C 
BRANCH  26  27
ATOM     27  O   UNL     1       6.676  -4.019  21.710  0.00  0.00    -0.383 OA
ATOM     28  H   UNL     1       7.331  -4.512  22.235  0.00  0.00    +0.210 HD
ENDBRANCH  26  27
BRANCH  25  29
ATOM     29  O   UNL     1       6.258  -5.605  24.124  0.00  0.00    -0.386 OA
ATOM     30  H   UNL     1       6.934  -6.069  23.599  0.00  0.00    +0.210 HD
ENDBRANCH  25  29
BRANCH  24  31
ATOM     31  O   UNL     1       2.793  -5.019  23.154  0.00  0.00    -0.386 OA
ATOM     32  H   UNL     1       2.350  -4.157  23.265  0.00  0.00    +0.210 HD
ENDBRANCH  24  31
BRANCH  23  33
ATOM     33  C   UNL     1       2.567  -3.505  25.565  0.00  0.00    +0.190 C 
BRANCH  33  34
ATOM     34  O   UNL     1       2.462  -2.181  26.089  0.00  0.00    -0.392 OA
ATOM     35  H   UNL     1       2.558  -1.554  25.352  0.00  0.00    +0.210 HD
ENDBRANCH  33  34
ENDBRANCH  23  33
ENDBRANCH  20  21
ENDBRANCH  16  20
ENDBRANCH  11  12
BRANCH  10  36
ATOM     36  O   UNL     1       8.891   6.502  24.009  0.00  0.00    -0.506 OA
ATOM     37  H   UNL     1       8.997   7.221  23.365  0.00  0.00    +0.292 HD
ENDBRANCH  10  36
BRANCH   7  38
ATOM     38  O   UNL     1      13.469   5.433  23.373  0.00  0.00    -0.507 OA
ATOM     39  H   UNL     1      14.039   4.682  23.134  0.00  0.00    +0.292 HD
ENDBRANCH   7  38
BRANCH   1  40
ATOM     40  O   UNL     1       6.828   1.695  24.710  0.00  0.00    -0.453 OA
BRANCH  40  46
ATOM     41  C   UNL     1       4.567   2.268  25.424  0.00  0.00    +0.221 C 
ATOM     42  C   UNL     1       4.226   1.068  26.338  0.00  0.00    +0.180 C 
ATOM     43  C   UNL     1       4.786   1.238  27.756  0.00  0.00    +0.177 C 
ATOM     44  C   UNL     1       6.279   1.591  27.754  0.00  0.00    +0.179 C 
ATOM     45  O   UNL     1       6.572   2.686  26.876  0.00  0.00    -0.331 OA
ATOM     46  C   UNL     1       6.080   2.601  25.536  0.00  0.00    +0.340 C 
BRANCH  43  47
ATOM     47  O   UNL     1       4.071   2.273  28.449  0.00  0.00    -0.386 OA
ATOM     48  H   UNL     1       4.178   2.123  29.407  0.00  0.00    +0.210 HD
ENDBRANCH  43  47
BRANCH  42  49
ATOM     49  O   UNL     1       4.723  -0.168  25.795  0.00  0.00    -0.386 OA
ATOM     50  H   UNL     1       5.651  -0.292  26.069  0.00  0.00    +0.210 HD
ENDBRANCH  42  49
BRANCH  44  51
ATOM     51  C   UNL     1       7.216   0.409  27.475  0.00  0.00    +0.190 C 
BRANCH  51  52
ATOM     52  O   UNL     1       8.293   0.428  28.418  0.00  0.00    -0.392 OA
ATOM     53  H   UNL     1       8.057  -0.223  29.107  0.00  0.00    +0.210 HD
ENDBRANCH  51  52
ENDBRANCH  44  51
BRANCH  41  54
ATOM     54  O   UNL     1       3.705   3.393  25.713  0.00  0.00    -0.337 OA
BRANCH  54  57
ATOM     55  C   UNL     1       1.337   3.266  23.003  0.00  0.00    +0.197 C 
ATOM     56  O   UNL     1       2.349   2.798  23.900  0.00  0.00    -0.346 OA
ATOM     57  C   UNL     1       2.962   3.905  24.586  0.00  0.00    +0.282 C 
ATOM     58  C   UNL     1       3.775   4.721  23.544  0.00  0.00    +0.201 C 
ATOM     59  C   UNL     1       2.807   5.246  22.464  0.00  0.00    +0.178 C 
ATOM     60  C   UNL     1       1.914   4.142  21.892  0.00  0.00    +0.171 C 
BRANCH  60  61
ATOM     61  O   UNL     1       0.838   4.744  21.161  0.00  0.00    -0.387 OA
ATOM     62  H   UNL     1       0.036   4.688  21.714  0.00  0.00    +0.210 HD
ENDBRANCH  60  61
BRANCH  59  63
ATOM     63  O   UNL     1       3.528   5.903  21.406  0.00  0.00    -0.386 OA
ATOM     64  H   UNL     1       3.553   5.310  20.637  0.00  0.00    +0.210 HD
ENDBRANCH  59  63
BRANCH  58  65
ATOM     65  O   UNL     1       4.471   5.845  24.098  0.00  0.00    -0.384 OA
ATOM     66  H   UNL     1       4.531   5.698  25.069  0.00  0.00    +0.210 HD
ENDBRANCH  58  65
ENDBRANCH  54  57
ENDBRANCH  41  54
ENDBRANCH  40  46
ENDBRANCH   1  40
TORSDOF 22
ENDMDL
MODEL 6
REMARK VINA RESULT:      -6.5      2.186      3.674
REMARK  Name = 
REMARK  22 active torsions:
REMARK  status: ('A' for Active; 'I' for Inactive)
REMARK    1  A    between atoms: C_2  and  O_61
REMARK    2  A    between atoms: C_4  and  O_60
REMARK    3  A    between atoms: C_5  and  O_59
REMARK    4  A    between atoms: C_7  and  O_10
REMARK    5  A    between atoms: O_10  and  C_11
REMARK    6  A    between atoms: C_12  and  O_23
REMARK    7  A    between atoms: C_15  and  C_21
REMARK    8  A    between atoms: C_16  and  O_20
REMARK    9  A    between atoms: C_18  and  O_19
REMARK   10  A    between atoms: C_21  and  O_22
REMARK   11  A    between atoms: O_23  and  C_24
REMARK   12  A    between atoms: C_25  and  C_37
REMARK   13  A    between atoms: C_29  and  O_36
REMARK   14  A    between atoms: C_31  and  O_35
REMARK   15  A    between atoms: C_39  and  O_44
REMARK   16  A    between atoms: C_40  and  O_43
REMARK   17  A    between atoms: O_44  and  C_45
REMARK   18  A    between atoms: C_47  and  O_58
REMARK   19  A    between atoms: C_48  and  O_57
REMARK   20  A    between atoms: C_50  and  O_56
REMARK   21  A    between atoms: C_52  and  C_54
REMARK   22  A    between atoms: C_54  and  O_55
REMARK                            x       y       z     vdW  Elec       q    Type
REMARK                         _______ _______ _______ _____ _____    ______ ____
ROOT
ATOM      1  C   UNL     1       5.735  -1.696  25.352  0.00  0.00    +0.214 A 
ATOM      2  C   UNL     1       4.638  -2.200  26.254  0.00  0.00    +0.238 A 
ATOM      3  O   UNL     1       4.334  -3.389  26.255  0.00  0.00    -0.283 OA
ATOM      4  C   UNL     1       3.957  -1.191  27.089  0.00  0.00    +0.109 A 
ATOM      5  C   UNL     1       4.110   0.138  26.711  0.00  0.00    +0.147 A 
ATOM      6  C   UNL     1       3.519   1.171  27.442  0.00  0.00    +0.092 A 
ATOM      7  C   UNL     1       2.742   0.852  28.547  0.00  0.00    +0.124 A 
ATOM      8  C   UNL     1       2.548  -0.473  28.926  0.00  0.00    +0.091 A 
ATOM      9  O   UNL     1       4.799   0.505  25.588  0.00  0.00    -0.451 OA
ATOM     10  C   UNL     1       3.164  -1.497  28.201  0.00  0.00    +0.135 A 
ATOM     11  C   UNL     1       5.677  -0.400  25.006  0.00  0.00    +0.181 A 
ENDROOT
BRANCH  11  12
ATOM     12  C   UNL     1       6.563   0.273  24.010  0.00  0.00    +0.025 A 
ATOM     13  C   UNL     1       6.991  -0.345  22.825  0.00  0.00    +0.015 A 
ATOM     14  C   UNL     1       7.913   0.280  21.982  0.00  0.00    +0.050 A 
ATOM     15  C   UNL     1       8.363   1.557  22.283  0.00  0.00    +0.159 A 
ATOM     16  C   UNL     1       7.878   2.249  23.394  0.00  0.00    +0.166 A 
ATOM     17  C   UNL     1       6.976   1.604  24.241  0.00  0.00    +0.061 A 
BRANCH  15  18
ATOM     18  O   UNL     1       9.307   2.108  21.463  0.00  0.00    -0.503 OA
ATOM     19  H   UNL     1       8.835   2.445  20.677  0.00  0.00    +0.292 HD
ENDBRANCH  15  18
BRANCH  16  20
ATOM     20  O   UNL     1       8.312   3.539  23.539  0.00  0.00    -0.457 OA
BRANCH  20  21
ATOM     21  C   UNL     1       9.291   3.804  24.560  0.00  0.00    +0.339 C 
ATOM     22  O   UNL     1       8.737   4.420  25.724  0.00  0.00    -0.331 OA
ATOM     23  C   UNL     1       8.173   5.728  25.499  0.00  0.00    +0.179 C 
ATOM     24  C   UNL     1       9.162   6.714  24.826  0.00  0.00    +0.177 C 
ATOM     25  C   UNL     1       9.805   6.079  23.589  0.00  0.00    +0.180 C 
ATOM     26  C   UNL     1      10.392   4.705  23.964  0.00  0.00    +0.214 C 
BRANCH  26  27
ATOM     27  O   UNL     1      11.022   4.109  22.825  0.00  0.00    -0.383 OA
ATOM     28  H   UNL     1      11.228   4.816  22.188  0.00  0.00    +0.210 HD
ENDBRANCH  26  27
BRANCH  25  29
ATOM     29  O   UNL     1       8.841   6.026  22.529  0.00  0.00    -0.386 OA
ATOM     30  H   UNL     1       9.070   6.704  21.868  0.00  0.00    +0.210 HD
ENDBRANCH  25  29
BRANCH  24  31
ATOM     31  O   UNL     1      10.191   7.106  25.739  0.00  0.00    -0.386 OA
ATOM     32  H   UNL     1      10.480   8.003  25.488  0.00  0.00    +0.210 HD
ENDBRANCH  24  31
BRANCH  23  33
ATOM     33  C   UNL     1       7.698   6.277  26.857  0.00  0.00    +0.190 C 
BRANCH  33  34
ATOM     34  O   UNL     1       7.644   5.263  27.862  0.00  0.00    -0.392 OA
ATOM     35  H   UNL     1       7.219   4.477  27.477  0.00  0.00    +0.210 HD
ENDBRANCH  33  34
ENDBRANCH  23  33
ENDBRANCH  20  21
ENDBRANCH  16  20
ENDBRANCH  11  12
BRANCH  10  36
ATOM     36  O   UNL     1       2.995  -2.792  28.603  0.00  0.00    -0.506 OA
ATOM     37  H   UNL     1       3.479  -2.943  29.432  0.00  0.00    +0.292 HD
ENDBRANCH  10  36
BRANCH   7  38
ATOM     38  O   UNL     1       2.139   1.822  29.291  0.00  0.00    -0.507 OA
ATOM     39  H   UNL     1       2.434   1.748  30.215  0.00  0.00    +0.292 HD
ENDBRANCH   7  38
BRANCH   1  40
ATOM     40  O   UNL     1       6.686  -2.577  24.838  0.00  0.00    -0.453 OA
BRANCH  40  46
ATOM     41  C   UNL     1       7.195  -4.900  25.379  0.00  0.00    +0.221 C 
ATOM     42  C   UNL     1       8.242  -5.241  24.294  0.00  0.00    +0.180 C 
ATOM     43  C   UNL     1       9.652  -4.775  24.679  0.00  0.00    +0.177 C 
ATOM     44  C   UNL     1       9.683  -3.303  25.106  0.00  0.00    +0.179 C 
ATOM     45  O   UNL     1       8.682  -3.007  26.091  0.00  0.00    -0.331 OA
ATOM     46  C   UNL     1       7.341  -3.414  25.803  0.00  0.00    +0.340 C 
BRANCH  43  47
ATOM     47  O   UNL     1      10.160  -5.577  25.756  0.00  0.00    -0.386 OA
ATOM     48  H   UNL     1      11.134  -5.577  25.699  0.00  0.00    +0.210 HD
ENDBRANCH  43  47
BRANCH  42  49
ATOM     49  O   UNL     1       7.898  -4.657  23.025  0.00  0.00    -0.386 OA
ATOM     50  H   UNL     1       7.598  -5.356  22.416  0.00  0.00    +0.210 HD
ENDBRANCH  42  49
BRANCH  44  51
ATOM     51  C   UNL     1       9.616  -2.298  23.950  0.00  0.00    +0.190 C 
BRANCH  51  52
ATOM     52  O   UNL     1      10.063  -1.018  24.409  0.00  0.00    -0.392 OA
ATOM     53  H   UNL     1       9.781  -0.376  23.729  0.00  0.00    +0.210 HD
ENDBRANCH  51  52
ENDBRANCH  44  51
BRANCH  41  54
ATOM     54  O   UNL     1       7.283  -5.828  26.485  0.00  0.00    -0.337 OA
BRANCH  54  57
ATOM     55  C   UNL     1       5.682  -5.794  29.710  0.00  0.00    +0.197 C 
ATOM     56  O   UNL     1       6.651  -6.142  28.717  0.00  0.00    -0.346 OA
ATOM     57  C   UNL     1       6.171  -5.799  27.404  0.00  0.00    +0.282 C 
ATOM     58  C   UNL     1       4.980  -6.739  27.070  0.00  0.00    +0.201 C 
ATOM     59  C   UNL     1       3.865  -6.513  28.112  0.00  0.00    +0.178 C 
ATOM     60  C   UNL     1       4.384  -6.586  29.550  0.00  0.00    +0.171 C 
BRANCH  60  61
ATOM     61  O   UNL     1       3.392  -6.045  30.432  0.00  0.00    -0.387 OA
ATOM     62  H   UNL     1       2.569  -5.937  29.922  0.00  0.00    +0.210 HD
ENDBRANCH  60  61
BRANCH  59  63
ATOM     63  O   UNL     1       2.790  -7.451  27.922  0.00  0.00    -0.386 OA
ATOM     64  H   UNL     1       2.628  -7.908  28.764  0.00  0.00    +0.210 HD
ENDBRANCH  59  63
BRANCH  58  65
ATOM     65  O   UNL     1       4.418  -6.529  25.768  0.00  0.00    -0.384 OA
ATOM     66  H   UNL     1       4.495  -5.568  25.572  0.00  0.00    +0.210 HD
ENDBRANCH  58  65
ENDBRANCH  54  57
ENDBRANCH  41  54
ENDBRANCH  40  46
ENDBRANCH   1  40
TORSDOF 22
ENDMDL
MODEL 7
REMARK VINA RESULT:      -6.5      2.148      8.308
REMARK  Name = 
REMARK  22 active torsions:
REMARK  status: ('A' for Active; 'I' for Inactive)
REMARK    1  A    between atoms: C_2  and  O_61
REMARK    2  A    between atoms: C_4  and  O_60
REMARK    3  A    between atoms: C_5  and  O_59
REMARK    4  A    between atoms: C_7  and  O_10
REMARK    5  A    between atoms: O_10  and  C_11
REMARK    6  A    between atoms: C_12  and  O_23
REMARK    7  A    between atoms: C_15  and  C_21
REMARK    8  A    between atoms: C_16  and  O_20
REMARK    9  A    between atoms: C_18  and  O_19
REMARK   10  A    between atoms: C_21  and  O_22
REMARK   11  A    between atoms: O_23  and  C_24
REMARK   12  A    between atoms: C_25  and  C_37
REMARK   13  A    between atoms: C_29  and  O_36
REMARK   14  A    between atoms: C_31  and  O_35
REMARK   15  A    between atoms: C_39  and  O_44
REMARK   16  A    between atoms: C_40  and  O_43
REMARK   17  A    between atoms: O_44  and  C_45
REMARK   18  A    between atoms: C_47  and  O_58
REMARK   19  A    between atoms: C_48  and  O_57
REMARK   20  A    between atoms: C_50  and  O_56
REMARK   21  A    between atoms: C_52  and  C_54
REMARK   22  A    between atoms: C_54  and  O_55
REMARK                            x       y       z     vdW  Elec       q    Type
REMARK                         _______ _______ _______ _____ _____    ______ ____
ROOT
ATOM      1  C   UNL     1       7.372   0.585  26.056  0.00  0.00    +0.214 A 
ATOM      2  C   UNL     1       6.986   2.002  26.394  0.00  0.00    +0.238 A 
ATOM      3  O   UNL     1       7.705   2.937  26.058  0.00  0.00    -0.283 OA
ATOM      4  C   UNL     1       5.736   2.178  27.160  0.00  0.00    +0.109 A 
ATOM      5  C   UNL     1       5.240   1.055  27.811  0.00  0.00    +0.147 A 
ATOM      6  C   UNL     1       4.056   1.111  28.551  0.00  0.00    +0.092 A 
ATOM      7  C   UNL     1       3.386   2.322  28.655  0.00  0.00    +0.124 A 
ATOM      8  C   UNL     1       3.881   3.468  28.038  0.00  0.00    +0.091 A 
ATOM      9  O   UNL     1       5.898  -0.145  27.808  0.00  0.00    -0.451 OA
ATOM     10  C   UNL     1       5.053   3.394  27.281  0.00  0.00    +0.135 A 
ATOM     11  C   UNL     1       6.876  -0.377  26.851  0.00  0.00    +0.181 A 
ENDROOT
BRANCH  11  12
ATOM     12  C   UNL     1       7.244  -1.823  26.796  0.00  0.00    +0.025 A 
ATOM     13  C   UNL     1       8.572  -2.277  26.804  0.00  0.00    +0.015 A 
ATOM     14  C   UNL     1       8.869  -3.631  26.633  0.00  0.00    +0.050 A 
ATOM     15  C   UNL     1       7.837  -4.551  26.518  0.00  0.00    +0.159 A 
ATOM     16  C   UNL     1       6.502  -4.153  26.614  0.00  0.00    +0.166 A 
ATOM     17  C   UNL     1       6.219  -2.795  26.761  0.00  0.00    +0.061 A 
BRANCH  15  18
ATOM     18  O   UNL     1       8.172  -5.857  26.295  0.00  0.00    -0.503 OA
ATOM     19  H   UNL     1       9.146  -5.911  26.347  0.00  0.00    +0.292 HD
ENDBRANCH  15  18
BRANCH  16  20
ATOM     20  O   UNL     1       5.570  -5.155  26.591  0.00  0.00    -0.457 OA
BRANCH  20  21
ATOM     21  C   UNL     1       5.508  -5.981  25.414  0.00  0.00    +0.339 C 
ATOM     22  O   UNL     1       5.758  -5.259  24.206  0.00  0.00    -0.331 OA
ATOM     23  C   UNL     1       4.789  -4.234  23.908  0.00  0.00    +0.179 C 
ATOM     24  C   UNL     1       3.329  -4.757  23.892  0.00  0.00    +0.177 C 
ATOM     25  C   UNL     1       3.028  -5.567  25.158  0.00  0.00    +0.180 C 
ATOM     26  C   UNL     1       4.115  -6.642  25.350  0.00  0.00    +0.214 C 
BRANCH  26  27
ATOM     27  O   UNL     1       3.834  -7.426  26.513  0.00  0.00    -0.383 OA
ATOM     28  H   UNL     1       4.595  -7.358  27.117  0.00  0.00    +0.210 HD
ENDBRANCH  26  27
BRANCH  25  29
ATOM     29  O   UNL     1       2.896  -4.673  26.271  0.00  0.00    -0.386 OA
ATOM     30  H   UNL     1       3.785  -4.474  26.614  0.00  0.00    +0.210 HD
ENDBRANCH  25  29
BRANCH  24  31
ATOM     31  O   UNL     1       3.094  -5.578  22.745  0.00  0.00    -0.386 OA
ATOM     32  H   UNL     1       2.159  -5.852  22.766  0.00  0.00    +0.210 HD
ENDBRANCH  24  31
BRANCH  23  33
ATOM     33  C   UNL     1       5.159  -3.615  22.548  0.00  0.00    +0.190 C 
BRANCH  33  34
ATOM     34  O   UNL     1       5.496  -4.606  21.576  0.00  0.00    -0.392 OA
ATOM     35  H   UNL     1       5.926  -5.348  22.036  0.00  0.00    +0.210 HD
ENDBRANCH  33  34
ENDBRANCH  23  33
ENDBRANCH  20  21
ENDBRANCH  16  20
ENDBRANCH  11  12
BRANCH  10  36
ATOM     36  O   UNL     1       5.511   4.517  26.651  0.00  0.00    -0.506 OA
ATOM     37  H   UNL     1       5.862   4.281  25.776  0.00  0.00    +0.292 HD
ENDBRANCH  10  36
BRANCH   7  38
ATOM     38  O   UNL     1       2.230   2.432  29.369  0.00  0.00    -0.507 OA
ATOM     39  H   UNL     1       1.566   2.899  28.833  0.00  0.00    +0.292 HD
ENDBRANCH   7  38
BRANCH   1  40
ATOM     40  O   UNL     1       8.279   0.328  25.028  0.00  0.00    -0.453 OA
BRANCH  40  46
ATOM     41  C   UNL     1       8.187   1.570  22.931  0.00  0.00    +0.221 C 
ATOM     42  C   UNL     1       9.622   1.361  22.393  0.00  0.00    +0.180 C 
ATOM     43  C   UNL     1       9.782   0.020  21.666  0.00  0.00    +0.177 C 
ATOM     44  C   UNL     1       9.273  -1.160  22.503  0.00  0.00    +0.179 C 
ATOM     45  O   UNL     1       7.953  -0.928  23.014  0.00  0.00    -0.331 OA
ATOM     46  C   UNL     1       7.726   0.305  23.704  0.00  0.00    +0.340 C 
BRANCH  43  47
ATOM     47  O   UNL     1       9.065   0.044  20.422  0.00  0.00    -0.386 OA
ATOM     48  H   UNL     1       9.706  -0.105  19.702  0.00  0.00    +0.210 HD
ENDBRANCH  43  47
BRANCH  42  49
ATOM     49  O   UNL     1      10.597   1.428  23.448  0.00  0.00    -0.386 OA
ATOM     50  H   UNL     1      11.173   2.203  23.309  0.00  0.00    +0.210 HD
ENDBRANCH  42  49
BRANCH  44  51
ATOM     51  C   UNL     1      10.217  -1.603  23.627  0.00  0.00    +0.190 C 
BRANCH  51  52
ATOM     52  O   UNL     1      10.238  -3.034  23.691  0.00  0.00    -0.392 OA
ATOM     53  H   UNL     1      10.064  -3.345  22.782  0.00  0.00    +0.210 HD
ENDBRANCH  51  52
ENDBRANCH  44  51
BRANCH  41  54
ATOM     54  O   UNL     1       7.291   1.954  21.863  0.00  0.00    -0.337 OA
BRANCH  54  57
ATOM     55  C   UNL     1       7.077   5.535  22.179  0.00  0.00    +0.197 C 
ATOM     56  O   UNL     1       7.624   4.222  22.336  0.00  0.00    -0.346 OA
ATOM     57  C   UNL     1       6.629   3.225  22.041  0.00  0.00    +0.282 C 
ATOM     58  C   UNL     1       5.549   3.284  23.156  0.00  0.00    +0.201 C 
ATOM     59  C   UNL     1       4.905   4.685  23.145  0.00  0.00    +0.178 C 
ATOM     60  C   UNL     1       5.945   5.808  23.169  0.00  0.00    +0.171 C 
BRANCH  60  61
ATOM     61  O   UNL     1       5.306   7.044  22.823  0.00  0.00    -0.387 OA
ATOM     62  H   UNL     1       5.899   7.525  22.216  0.00  0.00    +0.210 HD
ENDBRANCH  60  61
BRANCH  59  63
ATOM     63  O   UNL     1       3.985   4.834  24.241  0.00  0.00    -0.386 OA
ATOM     64  H   UNL     1       3.165   5.232  23.904  0.00  0.00    +0.210 HD
ENDBRANCH  59  63
BRANCH  58  65
ATOM     65  O   UNL     1       4.502   2.316  23.007  0.00  0.00    -0.384 OA
ATOM     66  H   UNL     1       4.522   2.011  22.071  0.00  0.00    +0.210 HD
ENDBRANCH  58  65
ENDBRANCH  54  57
ENDBRANCH  41  54
ENDBRANCH  40  46
ENDBRANCH   1  40
TORSDOF 22
ENDMDL
MODEL 8
REMARK VINA RESULT:      -6.4      2.366      3.698
REMARK  Name = 
REMARK  22 active torsions:
REMARK  status: ('A' for Active; 'I' for Inactive)
REMARK    1  A    between atoms: C_2  and  O_61
REMARK    2  A    between atoms: C_4  and  O_60
REMARK    3  A    between atoms: C_5  and  O_59
REMARK    4  A    between atoms: C_7  and  O_10
REMARK    5  A    between atoms: O_10  and  C_11
REMARK    6  A    between atoms: C_12  and  O_23
REMARK    7  A    between atoms: C_15  and  C_21
REMARK    8  A    between atoms: C_16  and  O_20
REMARK    9  A    between atoms: C_18  and  O_19
REMARK   10  A    between atoms: C_21  and  O_22
REMARK   11  A    between atoms: O_23  and  C_24
REMARK   12  A    between atoms: C_25  and  C_37
REMARK   13  A    between atoms: C_29  and  O_36
REMARK   14  A    between atoms: C_31  and  O_35
REMARK   15  A    between atoms: C_39  and  O_44
REMARK   16  A    between atoms: C_40  and  O_43
REMARK   17  A    between atoms: O_44  and  C_45
REMARK   18  A    between atoms: C_47  and  O_58
REMARK   19  A    between atoms: C_48  and  O_57
REMARK   20  A    between atoms: C_50  and  O_56
REMARK   21  A    between atoms: C_52  and  C_54
REMARK   22  A    between atoms: C_54  and  O_55
REMARK                            x       y       z     vdW  Elec       q    Type
REMARK                         _______ _______ _______ _____ _____    ______ ____
ROOT
ATOM      1  C   UNL     1       6.903  -1.264  26.109  0.00  0.00    +0.214 A 
ATOM      2  C   UNL     1       6.547  -2.682  26.479  0.00  0.00    +0.238 A 
ATOM      3  O   UNL     1       7.146  -3.624  25.970  0.00  0.00    -0.283 OA
ATOM      4  C   UNL     1       5.443  -2.853  27.444  0.00  0.00    +0.109 A 
ATOM      5  C   UNL     1       4.603  -1.761  27.631  0.00  0.00    +0.147 A 
ATOM      6  C   UNL     1       3.538  -1.814  28.533  0.00  0.00    +0.092 A 
ATOM      7  C   UNL     1       3.304  -2.991  29.228  0.00  0.00    +0.124 A 
ATOM      8  C   UNL     1       4.112  -4.108  29.034  0.00  0.00    +0.091 A 
ATOM      9  O   UNL     1       4.739  -0.601  26.917  0.00  0.00    -0.451 OA
ATOM     10  C   UNL     1       5.190  -4.036  28.147  0.00  0.00    +0.135 A 
ATOM     11  C   UNL     1       5.937  -0.345  26.264  0.00  0.00    +0.181 A 
ENDROOT
BRANCH  11  12
ATOM     12  C   UNL     1       6.016   1.079  25.823  0.00  0.00    +0.025 A 
ATOM     13  C   UNL     1       6.898   2.010  26.393  0.00  0.00    +0.015 A 
ATOM     14  C   UNL     1       6.855   3.358  26.029  0.00  0.00    +0.050 A 
ATOM     15  C   UNL     1       5.973   3.773  25.042  0.00  0.00    +0.159 A 
ATOM     16  C   UNL     1       5.156   2.860  24.373  0.00  0.00    +0.166 A 
ATOM     17  C   UNL     1       5.192   1.521  24.763  0.00  0.00    +0.061 A 
BRANCH  15  18
ATOM     18  O   UNL     1       5.923   5.109  24.756  0.00  0.00    -0.503 OA
ATOM     19  H   UNL     1       6.846   5.413  24.667  0.00  0.00    +0.292 HD
ENDBRANCH  15  18
BRANCH  16  20
ATOM     20  O   UNL     1       4.402   3.362  23.348  0.00  0.00    -0.457 OA
BRANCH  20  21
ATOM     21  C   UNL     1       2.974   3.399  23.525  0.00  0.00    +0.339 C 
ATOM     22  O   UNL     1       2.258   2.782  22.453  0.00  0.00    -0.331 OA
ATOM     23  C   UNL     1       2.420   3.427  21.174  0.00  0.00    +0.179 C 
ATOM     24  C   UNL     1       2.083   4.939  21.203  0.00  0.00    +0.177 C 
ATOM     25  C   UNL     1       2.806   5.636  22.361  0.00  0.00    +0.180 C 
ATOM     26  C   UNL     1       2.533   4.870  23.670  0.00  0.00    +0.214 C 
BRANCH  26  27
ATOM     27  O   UNL     1       3.179   5.523  24.768  0.00  0.00    -0.383 OA
ATOM     28  H   UNL     1       2.600   5.450  25.548  0.00  0.00    +0.210 HD
ENDBRANCH  26  27
BRANCH  25  29
ATOM     29  O   UNL     1       4.199   5.759  22.043  0.00  0.00    -0.386 OA
ATOM     30  H   UNL     1       4.333   5.466  21.124  0.00  0.00    +0.210 HD
ENDBRANCH  25  29
BRANCH  24  31
ATOM     31  O   UNL     1       0.674   5.145  21.341  0.00  0.00    -0.386 OA
ATOM     32  H   UNL     1       0.515   6.107  21.327  0.00  0.00    +0.210 HD
ENDBRANCH  24  31
BRANCH  23  33
ATOM     33  C   UNL     1       1.528   2.690  20.157  0.00  0.00    +0.190 C 
BRANCH  33  34
ATOM     34  O   UNL     1       1.028   1.455  20.671  0.00  0.00    -0.392 OA
ATOM     35  H   UNL     1       1.148   0.772  19.989  0.00  0.00    +0.210 HD
ENDBRANCH  33  34
ENDBRANCH  23  33
ENDBRANCH  20  21
ENDBRANCH  16  20
ENDBRANCH  11  12
BRANCH  10  36
ATOM     36  O   UNL     1       5.997  -5.128  27.990  0.00  0.00    -0.506 OA
ATOM     37  H   UNL     1       5.558  -5.915  28.354  0.00  0.00    +0.292 HD
ENDBRANCH  10  36
BRANCH   7  38
ATOM     38  O   UNL     1       2.274  -3.096  30.114  0.00  0.00    -0.507 OA
ATOM     39  H   UNL     1       2.090  -2.221  30.497  0.00  0.00    +0.292 HD
ENDBRANCH   7  38
BRANCH   1  40
ATOM     40  O   UNL     1       8.144  -0.974  25.543  0.00  0.00    -0.453 OA
BRANCH  40  46
ATOM     41  C   UNL     1       7.744  -1.383  23.172  0.00  0.00    +0.221 C 
ATOM     42  C   UNL     1       8.408  -0.141  22.534  0.00  0.00    +0.180 C 
ATOM     43  C   UNL     1       9.924  -0.308  22.373  0.00  0.00    +0.177 C 
ATOM     44  C   UNL     1      10.602  -0.754  23.674  0.00  0.00    +0.179 C 
ATOM     45  O   UNL     1       9.949  -1.889  24.260  0.00  0.00    -0.331 OA
ATOM     46  C   UNL     1       8.532  -1.808  24.440  0.00  0.00    +0.340 C 
BRANCH  43  47
ATOM     47  O   UNL     1      10.208  -1.276  21.352  0.00  0.00    -0.386 OA
ATOM     48  H   UNL     1      10.282  -2.151  21.778  0.00  0.00    +0.210 HD
ENDBRANCH  43  47
BRANCH  42  49
ATOM     49  O   UNL     1       8.158   1.046  23.308  0.00  0.00    -0.386 OA
ATOM     50  H   UNL     1       8.654   0.998  24.147  0.00  0.00    +0.210 HD
ENDBRANCH  42  49
BRANCH  44  51
ATOM     51  C   UNL     1      10.788   0.357  24.714  0.00  0.00    +0.190 C 
BRANCH  51  52
ATOM     52  O   UNL     1      10.933   1.614  24.043  0.00  0.00    -0.392 OA
ATOM     53  H   UNL     1      10.850   2.298  24.735  0.00  0.00    +0.210 HD
ENDBRANCH  51  52
ENDBRANCH  44  51
BRANCH  41  54
ATOM     54  O   UNL     1       7.601  -2.443  22.198  0.00  0.00    -0.337 OA
BRANCH  54  57
ATOM     55  C   UNL     1       6.801  -5.948  22.406  0.00  0.00    +0.197 C 
ATOM     56  O   UNL     1       7.209  -4.717  21.803  0.00  0.00    -0.346 OA
ATOM     57  C   UNL     1       6.876  -3.605  22.654  0.00  0.00    +0.282 C 
ATOM     58  C   UNL     1       5.328  -3.476  22.688  0.00  0.00    +0.201 C 
ATOM     59  C   UNL     1       4.738  -4.777  23.270  0.00  0.00    +0.178 C 
ATOM     60  C   UNL     1       5.284  -6.029  22.579  0.00  0.00    +0.171 C 
BRANCH  60  61
ATOM     61  O   UNL     1       4.963  -7.178  23.372  0.00  0.00    -0.387 OA
ATOM     62  H   UNL     1       4.060  -7.056  23.719  0.00  0.00    +0.210 HD
ENDBRANCH  60  61
BRANCH  59  63
ATOM     63  O   UNL     1       3.300  -4.760  23.206  0.00  0.00    -0.386 OA
ATOM     64  H   UNL     1       2.997  -5.616  22.863  0.00  0.00    +0.210 HD
ENDBRANCH  59  63
BRANCH  58  65
ATOM     65  O   UNL     1       4.851  -2.381  23.480  0.00  0.00    -0.384 OA
ATOM     66  H   UNL     1       5.501  -1.648  23.382  0.00  0.00    +0.210 HD
ENDBRANCH  58  65
ENDBRANCH  54  57
ENDBRANCH  41  54
ENDBRANCH  40  46
ENDBRANCH   1  40
TORSDOF 22
ENDMDL
MODEL 9
REMARK VINA RESULT:      -6.3      2.296      6.170
REMARK  Name = 
REMARK  22 active torsions:
REMARK  status: ('A' for Active; 'I' for Inactive)
REMARK    1  A    between atoms: C_2  and  O_61
REMARK    2  A    between atoms: C_4  and  O_60
REMARK    3  A    between atoms: C_5  and  O_59
REMARK    4  A    between atoms: C_7  and  O_10
REMARK    5  A    between atoms: O_10  and  C_11
REMARK    6  A    between atoms: C_12  and  O_23
REMARK    7  A    between atoms: C_15  and  C_21
REMARK    8  A    between atoms: C_16  and  O_20
REMARK    9  A    between atoms: C_18  and  O_19
REMARK   10  A    between atoms: C_21  and  O_22
REMARK   11  A    between atoms: O_23  and  C_24
REMARK   12  A    between atoms: C_25  and  C_37
REMARK   13  A    between atoms: C_29  and  O_36
REMARK   14  A    between atoms: C_31  and  O_35
REMARK   15  A    between atoms: C_39  and  O_44
REMARK   16  A    between atoms: C_40  and  O_43
REMARK   17  A    between atoms: O_44  and  C_45
REMARK   18  A    between atoms: C_47  and  O_58
REMARK   19  A    between atoms: C_48  and  O_57
REMARK   20  A    between atoms: C_50  and  O_56
REMARK   21  A    between atoms: C_52  and  C_54
REMARK   22  A    between atoms: C_54  and  O_55
REMARK                            x       y       z     vdW  Elec       q    Type
REMARK                         _______ _______ _______ _____ _____    ______ ____
ROOT
ATOM      1  C   UNL     1       5.711  -2.569  24.679  0.00  0.00    +0.214 A 
ATOM      2  C   UNL     1       5.378  -3.584  23.616  0.00  0.00    +0.238 A 
ATOM      3  O   UNL     1       6.111  -3.724  22.641  0.00  0.00    -0.283 OA
ATOM      4  C   UNL     1       4.134  -4.355  23.808  0.00  0.00    +0.109 A 
ATOM      5  C   UNL     1       3.212  -3.836  24.710  0.00  0.00    +0.147 A 
ATOM      6  C   UNL     1       2.010  -4.495  24.975  0.00  0.00    +0.092 A 
ATOM      7  C   UNL     1       1.726  -5.673  24.298  0.00  0.00    +0.124 A 
ATOM      8  C   UNL     1       2.619  -6.194  23.367  0.00  0.00    +0.091 A 
ATOM      9  O   UNL     1       3.404  -2.640  25.348  0.00  0.00    -0.451 OA
ATOM     10  C   UNL     1       3.830  -5.539  23.127  0.00  0.00    +0.135 A 
ATOM     11  C   UNL     1       4.681  -2.099  25.401  0.00  0.00    +0.181 A 
ENDROOT
BRANCH  11  12
ATOM     12  C   UNL     1       4.754  -0.987  26.394  0.00  0.00    +0.025 A 
ATOM     13  C   UNL     1       4.943  -1.198  27.769  0.00  0.00    +0.015 A 
ATOM     14  C   UNL     1       4.888  -0.136  28.673  0.00  0.00    +0.050 A 
ATOM     15  C   UNL     1       4.709   1.157  28.203  0.00  0.00    +0.159 A 
ATOM     16  C   UNL     1       4.626   1.422  26.835  0.00  0.00    +0.166 A 
ATOM     17  C   UNL     1       4.658   0.349  25.944  0.00  0.00    +0.061 A 
BRANCH  15  18
ATOM     18  O   UNL     1       4.603   2.160  29.126  0.00  0.00    -0.503 OA
ATOM     19  H   UNL     1       3.787   2.653  28.915  0.00  0.00    +0.292 HD
ENDBRANCH  15  18
BRANCH  16  20
ATOM     20  O   UNL     1       4.553   2.741  26.478  0.00  0.00    -0.457 OA
BRANCH  20  21
ATOM     21  C   UNL     1       3.356   3.190  25.817  0.00  0.00    +0.339 C 
ATOM     22  O   UNL     1       3.569   3.547  24.450  0.00  0.00    -0.331 OA
ATOM     23  C   UNL     1       4.459   4.664  24.254  0.00  0.00    +0.179 C 
ATOM     24  C   UNL     1       4.041   5.928  25.048  0.00  0.00    +0.177 C 
ATOM     25  C   UNL     1       3.770   5.582  26.517  0.00  0.00    +0.180 C 
ATOM     26  C   UNL     1       2.789   4.397  26.592  0.00  0.00    +0.214 C 
BRANCH  26  27
ATOM     27  O   UNL     1       2.503   4.079  27.958  0.00  0.00    -0.383 OA
ATOM     28  H   UNL     1       2.244   3.141  28.003  0.00  0.00    +0.210 HD
ENDBRANCH  26  27
BRANCH  25  29
ATOM     29  O   UNL     1       5.017   5.344  27.184  0.00  0.00    -0.386 OA
ATOM     30  H   UNL     1       5.277   6.158  27.652  0.00  0.00    +0.210 HD
ENDBRANCH  25  29
BRANCH  24  31
ATOM     31  O   UNL     1       2.868   6.520  24.484  0.00  0.00    -0.386 OA
ATOM     32  H   UNL     1       3.155   7.120  23.771  0.00  0.00    +0.210 HD
ENDBRANCH  24  31
BRANCH  23  33
ATOM     33  C   UNL     1       4.514   4.965  22.744  0.00  0.00    +0.190 C 
BRANCH  33  34
ATOM     34  O   UNL     1       5.850   4.950  22.239  0.00  0.00    -0.392 OA
ATOM     35  H   UNL     1       5.858   4.423  21.421  0.00  0.00    +0.210 HD
ENDBRANCH  33  34
ENDBRANCH  23  33
ENDBRANCH  20  21
ENDBRANCH  16  20
ENDBRANCH  11  12
BRANCH  10  36
ATOM     36  O   UNL     1       4.714  -6.079  22.236  0.00  0.00    -0.506 OA
ATOM     37  H   UNL     1       5.400  -6.574  22.715  0.00  0.00    +0.292 HD
ENDBRANCH  10  36
BRANCH   7  38
ATOM     38  O   UNL     1       0.564  -6.351  24.517  0.00  0.00    -0.507 OA
ATOM     39  H   UNL     1       0.771  -7.267  24.772  0.00  0.00    +0.292 HD
ENDBRANCH   7  38
BRANCH   1  40
ATOM     40  O   UNL     1       7.013  -2.088  24.811  0.00  0.00    -0.453 OA
BRANCH  40  46
ATOM     41  C   UNL     1       7.932   0.146  24.469  0.00  0.00    +0.221 C 
ATOM     42  C   UNL     1       9.379  -0.040  24.981  0.00  0.00    +0.180 C 
ATOM     43  C   UNL     1      10.299  -0.652  23.917  0.00  0.00    +0.177 C 
ATOM     44  C   UNL     1       9.709  -1.925  23.298  0.00  0.00    +0.179 C 
ATOM     45  O   UNL     1       8.356  -1.732  22.859  0.00  0.00    -0.331 OA
ATOM     46  C   UNL     1       7.438  -1.164  23.797  0.00  0.00    +0.340 C 
BRANCH  43  47
ATOM     47  O   UNL     1      10.541   0.299  22.868  0.00  0.00    -0.386 OA
ATOM     48  H   UNL     1      10.285  -0.114  22.022  0.00  0.00    +0.210 HD
ENDBRANCH  43  47
BRANCH  42  49
ATOM     49  O   UNL     1       9.422  -0.872  26.154  0.00  0.00    -0.386 OA
ATOM     50  H   UNL     1       9.075  -0.375  26.918  0.00  0.00    +0.210 HD
ENDBRANCH  42  49
BRANCH  44  51
ATOM     51  C   UNL     1       9.818  -3.175  24.178  0.00  0.00    +0.190 C 
BRANCH  51  52
ATOM     52  O   UNL     1       8.868  -4.151  23.734  0.00  0.00    -0.392 OA
ATOM     53  H   UNL     1       8.012  -3.886  24.123  0.00  0.00    +0.210 HD
ENDBRANCH  51  52
ENDBRANCH  44  51
BRANCH  41  54
ATOM     54  O   UNL     1       7.838   1.307  23.611  0.00  0.00    -0.337 OA
BRANCH  54  57
ATOM     55  C   UNL     1       7.943   4.210  25.740  0.00  0.00    +0.197 C 
ATOM     56  O   UNL     1       7.368   3.200  24.904  0.00  0.00    -0.346 OA
ATOM     57  C   UNL     1       8.394   2.522  24.157  0.00  0.00    +0.282 C 
ATOM     58  C   UNL     1       8.980   3.529  23.129  0.00  0.00    +0.201 C 
ATOM     59  C   UNL     1       9.591   4.718  23.897  0.00  0.00    +0.178 C 
ATOM     60  C   UNL     1       8.625   5.309  24.927  0.00  0.00    +0.171 C 
BRANCH  60  61
ATOM     61  O   UNL     1       9.355   6.166  25.814  0.00  0.00    -0.387 OA
ATOM     62  H   UNL     1      10.287   5.879  25.803  0.00  0.00    +0.210 HD
ENDBRANCH  60  61
BRANCH  59  63
ATOM     63  O   UNL     1      10.036   5.741  22.986  0.00  0.00    -0.386 OA
ATOM     64  H   UNL     1      10.013   6.595  23.448  0.00  0.00    +0.210 HD
ENDBRANCH  59  63
BRANCH  58  65
ATOM     65  O   UNL     1       9.999   2.976  22.286  0.00  0.00    -0.384 OA
ATOM     66  H   UNL     1       9.664   2.111  21.956  0.00  0.00    +0.210 HD
ENDBRANCH  58  65
ENDBRANCH  54  57
ENDBRANCH  41  54
ENDBRANCH  40  46
ENDBRANCH   1  40
TORSDOF 22
ENDMDL
