MODEL 1
REMARK VINA RESULT:      -7.3      0.000      0.000
REMARK  Name = 
REMARK  14 active torsions:
REMARK  status: ('A' for Active; 'I' for Inactive)
REMARK    1  A    between atoms: C_1  and  O_2
REMARK    2  A    between atoms: O_2  and  C_3
REMARK    3  A    between atoms: C_5  and  O_37
REMARK    4  A    between atoms: C_10  and  C_16
REMARK    5  A    between atoms: C_11  and  O_14
REMARK    6  A    between atoms: O_14  and  C_15
REMARK    7  A    between atoms: C_18  and  O_36
REMARK    8  A    between atoms: C_19  and  O_22
REMARK    9  A    between atoms: O_22  and  C_23
REMARK   10  A    between atoms: C_25  and  O_35
REMARK   11  A    between atoms: C_26  and  O_34
REMARK   12  A    between atoms: C_27  and  O_33
REMARK   13  A    between atoms: C_29  and  C_31
REMARK   14  A    between atoms: C_31  and  O_32
REMARK                            x       y       z     vdW  Elec       q    Type
REMARK                         _______ _______ _______ _____ _____    ______ ____
ROOT
ATOM      1  C   UNL     1       7.501   0.203  24.342  0.00  0.00    +0.025 A 
ATOM      2  C   UNL     1       6.878  -0.387  23.235  0.00  0.00    +0.015 A 
ATOM      3  C   UNL     1       6.452  -1.727  23.276  0.00  0.00    +0.050 A 
ATOM      4  C   UNL     1       6.633  -2.497  24.428  0.00  0.00    +0.165 A 
ATOM      5  C   UNL     1       7.284  -1.907  25.521  0.00  0.00    +0.159 A 
ATOM      6  C   UNL     1       7.706  -0.572  25.489  0.00  0.00    +0.060 A 
ENDROOT
BRANCH   1  11
ATOM      7  C   UNL     1      11.686   4.413  23.425  0.00  0.00    +0.127 A 
ATOM      8  C   UNL     1      11.071   3.165  23.510  0.00  0.00    +0.092 A 
ATOM      9  C   UNL     1       9.725   3.069  23.886  0.00  0.00    +0.147 A 
ATOM     10  O   UNL     1       9.215   1.800  23.949  0.00  0.00    -0.451 OA
ATOM     11  C   UNL     1       7.895   1.629  24.314  0.00  0.00    +0.181 A 
ATOM     12  C   UNL     1       7.031   2.622  24.607  0.00  0.00    +0.211 A 
ATOM     13  C   UNL     1       7.555   4.030  24.539  0.00  0.00    +0.238 A 
ATOM     14  O   UNL     1       6.839   5.003  24.759  0.00  0.00    -0.283 OA
ATOM     15  C   UNL     1       8.983   4.209  24.177  0.00  0.00    +0.109 A 
ATOM     16  C   UNL     1       9.616   5.462  24.112  0.00  0.00    +0.135 A 
ATOM     17  C   UNL     1      10.963   5.560  23.746  0.00  0.00    +0.092 A 
BRANCH   7  19
ATOM     18  C   UNL     1      13.222   5.601  22.080  0.00  0.00    +0.277 C 
ATOM     19  O   UNL     1      12.997   4.623  23.089  0.00  0.00    -0.495 OA
ENDBRANCH   7  19
BRANCH  12  20
ATOM     20  O   UNL     1       5.719   2.304  24.939  0.00  0.00    -0.488 OA
ATOM     21  C   UNL     1       4.694   2.587  23.995  0.00  0.00    +0.277 C 
ENDBRANCH  12  20
BRANCH  16  22
ATOM     22  O   UNL     1       8.941   6.612  24.403  0.00  0.00    -0.506 OA
ATOM     23  H   UNL     1       8.088   6.408  24.820  0.00  0.00    +0.292 HD
ENDBRANCH  16  22
ENDBRANCH   1  11
BRANCH   5  24
ATOM     24  O   UNL     1       7.476  -2.655  26.655  0.00  0.00    -0.503 OA
ATOM     25  H   UNL     1       6.743  -3.288  26.736  0.00  0.00    +0.292 HD
ENDBRANCH   5  24
BRANCH   4  26
ATOM     26  O   UNL     1       6.245  -3.806  24.587  0.00  0.00    -0.457 OA
BRANCH  26  27
ATOM     27  C   UNL     1       4.934  -4.055  25.117  0.00  0.00    +0.339 C 
ATOM     28  O   UNL     1       4.966  -4.497  26.479  0.00  0.00    -0.331 OA
ATOM     29  C   UNL     1       5.598  -5.780  26.658  0.00  0.00    +0.179 C 
ATOM     30  C   UNL     1       4.898  -6.878  25.848  0.00  0.00    +0.177 C 
ATOM     31  C   UNL     1       4.818  -6.486  24.376  0.00  0.00    +0.180 C 
ATOM     32  C   UNL     1       4.202  -5.089  24.226  0.00  0.00    +0.214 C 
BRANCH  30  33
ATOM     33  O   UNL     1       3.563  -7.098  26.334  0.00  0.00    -0.386 OA
ATOM     34  H   UNL     1       3.662  -7.256  27.294  0.00  0.00    +0.210 HD
ENDBRANCH  30  33
BRANCH  31  35
ATOM     35  O   UNL     1       4.022  -7.482  23.706  0.00  0.00    -0.386 OA
ATOM     36  H   UNL     1       3.152  -7.504  24.150  0.00  0.00    +0.210 HD
ENDBRANCH  31  35
BRANCH  32  37
ATOM     37  O   UNL     1       4.195  -4.725  22.838  0.00  0.00    -0.383 OA
ATOM     38  H   UNL     1       4.408  -3.773  22.793  0.00  0.00    +0.210 HD
ENDBRANCH  32  37
BRANCH  29  39
ATOM     39  C   UNL     1       5.576  -6.129  28.156  0.00  0.00    +0.190 C 
BRANCH  39  40
ATOM     40  O   UNL     1       5.519  -7.539  28.387  0.00  0.00    -0.392 OA
ATOM     41  H   UNL     1       6.419  -7.897  28.302  0.00  0.00    +0.210 HD
ENDBRANCH  39  40
ENDBRANCH  29  39
ENDBRANCH  26  27
ENDBRANCH   4  26
TORSDOF 12
ENDMDL
MODEL 2
REMARK VINA RESULT:      -7.2      1.483      3.265
REMARK  Name = 
REMARK  14 active torsions:
REMARK  status: ('A' for Active; 'I' for Inactive)
REMARK    1  A    between atoms: C_1  and  O_2
REMARK    2  A    between atoms: O_2  and  C_3
REMARK    3  A    between atoms: C_5  and  O_37
REMARK    4  A    between atoms: C_10  and  C_16
REMARK    5  A    between atoms: C_11  and  O_14
REMARK    6  A    between atoms: O_14  and  C_15
REMARK    7  A    between atoms: C_18  and  O_36
REMARK    8  A    between atoms: C_19  and  O_22
REMARK    9  A    between atoms: O_22  and  C_23
REMARK   10  A    between atoms: C_25  and  O_35
REMARK   11  A    between atoms: C_26  and  O_34
REMARK   12  A    between atoms: C_27  and  O_33
REMARK   13  A    between atoms: C_29  and  C_31
REMARK   14  A    between atoms: C_31  and  O_32
REMARK                            x       y       z     vdW  Elec       q    Type
REMARK                         _______ _______ _______ _____ _____    ______ ____
ROOT
ATOM      1  C   UNL     1       7.441   0.078  24.079  0.00  0.00    +0.025 A 
ATOM      2  C   UNL     1       7.516  -0.532  25.337  0.00  0.00    +0.015 A 
ATOM      3  C   UNL     1       7.075  -1.854  25.525  0.00  0.00    +0.050 A 
ATOM      4  C   UNL     1       6.559  -2.592  24.456  0.00  0.00    +0.165 A 
ATOM      5  C   UNL     1       6.460  -1.964  23.206  0.00  0.00    +0.159 A 
ATOM      6  C   UNL     1       6.903  -0.649  23.011  0.00  0.00    +0.060 A 
ENDROOT
BRANCH   1  11
ATOM      7  C   UNL     1       6.457   5.989  23.652  0.00  0.00    +0.127 A 
ATOM      8  C   UNL     1       6.226   4.625  23.829  0.00  0.00    +0.092 A 
ATOM      9  C   UNL     1       7.291   3.718  23.755  0.00  0.00    +0.147 A 
ATOM     10  O   UNL     1       6.961   2.401  23.934  0.00  0.00    -0.451 OA
ATOM     11  C   UNL     1       7.959   1.449  23.873  0.00  0.00    +0.181 A 
ATOM     12  C   UNL     1       9.267   1.701  23.664  0.00  0.00    +0.211 A 
ATOM     13  C   UNL     1       9.666   3.139  23.472  0.00  0.00    +0.238 A 
ATOM     14  O   UNL     1      10.836   3.473  23.306  0.00  0.00    -0.283 OA
ATOM     15  C   UNL     1       8.587   4.157  23.507  0.00  0.00    +0.109 A 
ATOM     16  C   UNL     1       8.808   5.530  23.306  0.00  0.00    +0.135 A 
ATOM     17  C   UNL     1       7.745   6.438  23.370  0.00  0.00    +0.092 A 
BRANCH   7  19
ATOM     18  C   UNL     1       4.494   6.863  22.674  0.00  0.00    +0.277 C 
ATOM     19  O   UNL     1       5.493   6.960  23.682  0.00  0.00    -0.495 OA
ENDBRANCH   7  19
BRANCH  12  20
ATOM     20  O   UNL     1      10.169   0.643  23.649  0.00  0.00    -0.488 OA
ATOM     21  C   UNL     1      10.970   0.420  24.802  0.00  0.00    +0.277 C 
ENDBRANCH  12  20
BRANCH  16  22
ATOM     22  O   UNL     1      10.057   6.014  23.043  0.00  0.00    -0.506 OA
ATOM     23  H   UNL     1      10.167   6.169  22.091  0.00  0.00    +0.292 HD
ENDBRANCH  16  22
ENDBRANCH   1  11
BRANCH   5  24
ATOM     24  O   UNL     1       5.949  -2.674  22.151  0.00  0.00    -0.503 OA
ATOM     25  H   UNL     1       6.131  -2.186  21.331  0.00  0.00    +0.292 HD
ENDBRANCH   5  24
BRANCH   4  26
ATOM     26  O   UNL     1       6.115  -3.891  24.518  0.00  0.00    -0.457 OA
BRANCH  26  27
ATOM     27  C   UNL     1       4.828  -4.130  25.109  0.00  0.00    +0.339 C 
ATOM     28  O   UNL     1       4.918  -4.552  26.474  0.00  0.00    -0.331 OA
ATOM     29  C   UNL     1       5.555  -5.834  26.644  0.00  0.00    +0.179 C 
ATOM     30  C   UNL     1       4.819  -6.942  25.881  0.00  0.00    +0.177 C 
ATOM     31  C   UNL     1       4.676  -6.571  24.408  0.00  0.00    +0.180 C 
ATOM     32  C   UNL     1       4.055  -5.175  24.266  0.00  0.00    +0.214 C 
BRANCH  30  33
ATOM     33  O   UNL     1       3.507  -7.152  26.428  0.00  0.00    -0.386 OA
ATOM     34  H   UNL     1       3.458  -8.110  26.618  0.00  0.00    +0.210 HD
ENDBRANCH  30  33
BRANCH  31  35
ATOM     35  O   UNL     1       3.850  -7.575  23.788  0.00  0.00    -0.386 OA
ATOM     36  H   UNL     1       3.742  -8.300  24.434  0.00  0.00    +0.210 HD
ENDBRANCH  31  35
BRANCH  32  37
ATOM     37  O   UNL     1       3.988  -4.831  22.874  0.00  0.00    -0.383 OA
ATOM     38  H   UNL     1       3.952  -3.856  22.823  0.00  0.00    +0.210 HD
ENDBRANCH  32  37
BRANCH  29  39
ATOM     39  C   UNL     1       5.598  -6.161  28.146  0.00  0.00    +0.190 C 
BRANCH  39  40
ATOM     40  O   UNL     1       5.512  -7.566  28.401  0.00  0.00    -0.392 OA
ATOM     41  H   UNL     1       5.753  -8.037  27.586  0.00  0.00    +0.210 HD
ENDBRANCH  39  40
ENDBRANCH  29  39
ENDBRANCH  26  27
ENDBRANCH   4  26
TORSDOF 12
ENDMDL
MODEL 3
REMARK VINA RESULT:      -7.0      1.512      2.837
REMARK  Name = 
REMARK  14 active torsions:
REMARK  status: ('A' for Active; 'I' for Inactive)
REMARK    1  A    between atoms: C_1  and  O_2
REMARK    2  A    between atoms: O_2  and  C_3
REMARK    3  A    between atoms: C_5  and  O_37
REMARK    4  A    between atoms: C_10  and  C_16
REMARK    5  A    between atoms: C_11  and  O_14
REMARK    6  A    between atoms: O_14  and  C_15
REMARK    7  A    between atoms: C_18  and  O_36
REMARK    8  A    between atoms: C_19  and  O_22
REMARK    9  A    between atoms: O_22  and  C_23
REMARK   10  A    between atoms: C_25  and  O_35
REMARK   11  A    between atoms: C_26  and  O_34
REMARK   12  A    between atoms: C_27  and  O_33
REMARK   13  A    between atoms: C_29  and  C_31
REMARK   14  A    between atoms: C_31  and  O_32
REMARK                            x       y       z     vdW  Elec       q    Type
REMARK                         _______ _______ _______ _____ _____    ______ ____
ROOT
ATOM      1  C   UNL     1       7.847  -0.451  24.109  0.00  0.00    +0.025 A 
ATOM      2  C   UNL     1       6.703  -0.758  23.363  0.00  0.00    +0.015 A 
ATOM      3  C   UNL     1       6.100  -2.025  23.455  0.00  0.00    +0.050 A 
ATOM      4  C   UNL     1       6.627  -3.005  24.303  0.00  0.00    +0.165 A 
ATOM      5  C   UNL     1       7.789  -2.698  25.023  0.00  0.00    +0.159 A 
ATOM      6  C   UNL     1       8.391  -1.436  24.940  0.00  0.00    +0.060 A 
ENDROOT
BRANCH   1  11
ATOM      7  C   UNL     1       7.984   5.247  26.009  0.00  0.00    +0.127 A 
ATOM      8  C   UNL     1       7.613   3.908  25.887  0.00  0.00    +0.092 A 
ATOM      9  C   UNL     1       8.279   3.075  24.978  0.00  0.00    +0.147 A 
ATOM     10  O   UNL     1       7.836   1.781  24.925  0.00  0.00    -0.451 OA
ATOM     11  C   UNL     1       8.444   0.902  24.052  0.00  0.00    +0.181 A 
ATOM     12  C   UNL     1       9.475   1.202  23.235  0.00  0.00    +0.211 A 
ATOM     13  C   UNL     1       9.993   2.613  23.274  0.00  0.00    +0.238 A 
ATOM     14  O   UNL     1      10.946   2.975  22.589  0.00  0.00    -0.283 OA
ATOM     15  C   UNL     1       9.316   3.563  24.190  0.00  0.00    +0.109 A 
ATOM     16  C   UNL     1       9.669   4.919  24.303  0.00  0.00    +0.135 A 
ATOM     17  C   UNL     1       8.999   5.756  25.202  0.00  0.00    +0.092 A 
BRANCH   7  19
ATOM     18  C   UNL     1       8.278   7.045  27.511  0.00  0.00    +0.277 C 
ATOM     19  O   UNL     1       7.391   6.153  26.845  0.00  0.00    -0.495 OA
ENDBRANCH   7  19
BRANCH  12  20
ATOM     20  O   UNL     1      10.006   0.208  22.420  0.00  0.00    -0.488 OA
ATOM     21  C   UNL     1       9.408  -0.016  21.149  0.00  0.00    +0.277 C 
ENDBRANCH  12  20
BRANCH  16  22
ATOM     22  O   UNL     1      10.668   5.455  23.543  0.00  0.00    -0.506 OA
ATOM     23  H   UNL     1      11.062   6.221  23.992  0.00  0.00    +0.292 HD
ENDBRANCH  16  22
ENDBRANCH   1  11
BRANCH   5  24
ATOM     24  O   UNL     1       8.320  -3.653  25.853  0.00  0.00    -0.503 OA
ATOM     25  H   UNL     1       9.199  -3.899  25.519  0.00  0.00    +0.292 HD
ENDBRANCH   5  24
BRANCH   4  26
ATOM     26  O   UNL     1       6.115  -4.267  24.484  0.00  0.00    -0.457 OA
BRANCH  26  27
ATOM     27  C   UNL     1       4.824  -4.383  25.103  0.00  0.00    +0.339 C 
ATOM     28  O   UNL     1       4.907  -4.734  26.489  0.00  0.00    -0.331 OA
ATOM     29  C   UNL     1       5.458  -6.045  26.723  0.00  0.00    +0.179 C 
ATOM     30  C   UNL     1       4.635  -7.141  26.032  0.00  0.00    +0.177 C 
ATOM     31  C   UNL     1       4.494  -6.842  24.543  0.00  0.00    +0.180 C 
ATOM     32  C   UNL     1       3.969  -5.417  24.330  0.00  0.00    +0.214 C 
BRANCH  30  33
ATOM     33  O   UNL     1       3.320  -7.229  26.606  0.00  0.00    -0.386 OA
ATOM     34  H   UNL     1       3.083  -6.311  26.847  0.00  0.00    +0.210 HD
ENDBRANCH  30  33
BRANCH  31  35
ATOM     35  O   UNL     1       3.591  -7.819  23.991  0.00  0.00    -0.386 OA
ATOM     36  H   UNL     1       2.698  -7.425  23.999  0.00  0.00    +0.210 HD
ENDBRANCH  31  35
BRANCH  32  37
ATOM     37  O   UNL     1       3.903  -5.147  22.921  0.00  0.00    -0.383 OA
ATOM     38  H   UNL     1       3.238  -4.442  22.798  0.00  0.00    +0.210 HD
ENDBRANCH  32  37
BRANCH  29  39
ATOM     39  C   UNL     1       5.502  -6.291  28.241  0.00  0.00    +0.190 C 
BRANCH  39  40
ATOM     40  O   UNL     1       5.428  -7.681  28.571  0.00  0.00    -0.392 OA
ATOM     41  H   UNL     1       4.644  -8.054  28.135  0.00  0.00    +0.210 HD
ENDBRANCH  39  40
ENDBRANCH  29  39
ENDBRANCH  26  27
ENDBRANCH   4  26
TORSDOF 12
ENDMDL
MODEL 4
REMARK VINA RESULT:      -7.0      1.886      3.761
REMARK  Name = 
REMARK  14 active torsions:
REMARK  status: ('A' for Active; 'I' for Inactive)
REMARK    1  A    between atoms: C_1  and  O_2
REMARK    2  A    between atoms: O_2  and  C_3
REMARK    3  A    between atoms: C_5  and  O_37
REMARK    4  A    between atoms: C_10  and  C_16
REMARK    5  A    between atoms: C_11  and  O_14
REMARK    6  A    between atoms: O_14  and  C_15
REMARK    7  A    between atoms: C_18  and  O_36
REMARK    8  A    between atoms: C_19  and  O_22
REMARK    9  A    between atoms: O_22  and  C_23
REMARK   10  A    between atoms: C_25  and  O_35
REMARK   11  A    between atoms: C_26  and  O_34
REMARK   12  A    between atoms: C_27  and  O_33
REMARK   13  A    between atoms: C_29  and  C_31
REMARK   14  A    between atoms: C_31  and  O_32
REMARK                            x       y       z     vdW  Elec       q    Type
REMARK                         _______ _______ _______ _____ _____    ______ ____
ROOT
ATOM      1  C   UNL     1       7.040  -0.914  23.826  0.00  0.00    +0.025 A 
ATOM      2  C   UNL     1       6.770  -1.624  22.650  0.00  0.00    +0.015 A 
ATOM      3  C   UNL     1       5.830  -2.670  22.639  0.00  0.00    +0.050 A 
ATOM      4  C   UNL     1       5.138  -3.019  23.802  0.00  0.00    +0.165 A 
ATOM      5  C   UNL     1       5.436  -2.322  24.982  0.00  0.00    +0.159 A 
ATOM      6  C   UNL     1       6.367  -1.275  24.999  0.00  0.00    +0.060 A 
ENDROOT
BRANCH   1  11
ATOM      7  C   UNL     1       8.053   4.995  23.445  0.00  0.00    +0.127 A 
ATOM      8  C   UNL     1       7.379   3.776  23.495  0.00  0.00    +0.092 A 
ATOM      9  C   UNL     1       8.097   2.582  23.646  0.00  0.00    +0.147 A 
ATOM     10  O   UNL     1       7.347   1.437  23.675  0.00  0.00    -0.451 OA
ATOM     11  C   UNL     1       7.987   0.224  23.820  0.00  0.00    +0.181 A 
ATOM     12  C   UNL     1       9.318   0.054  23.956  0.00  0.00    +0.211 A 
ATOM     13  C   UNL     1      10.173   1.292  23.937  0.00  0.00    +0.238 A 
ATOM     14  O   UNL     1      11.391   1.244  24.083  0.00  0.00    -0.283 OA
ATOM     15  C   UNL     1       9.484   2.593  23.749  0.00  0.00    +0.109 A 
ATOM     16  C   UNL     1      10.157   3.824  23.674  0.00  0.00    +0.135 A 
ATOM     17  C   UNL     1       9.443   5.017  23.514  0.00  0.00    +0.092 A 
BRANCH   7  19
ATOM     18  C   UNL     1       7.094   6.546  21.944  0.00  0.00    +0.277 C 
ATOM     19  O   UNL     1       7.456   6.216  23.280  0.00  0.00    -0.495 OA
ENDBRANCH   7  19
BRANCH  12  20
ATOM     20  O   UNL     1       9.826  -1.230  24.116  0.00  0.00    -0.488 OA
ATOM     21  C   UNL     1      10.411  -1.871  22.990  0.00  0.00    +0.277 C 
ENDBRANCH  12  20
BRANCH  16  22
ATOM     22  O   UNL     1      11.519   3.892  23.754  0.00  0.00    -0.506 OA
ATOM     23  H   UNL     1      11.851   3.268  24.419  0.00  0.00    +0.292 HD
ENDBRANCH  16  22
ENDBRANCH   1  11
BRANCH   5  24
ATOM     24  O   UNL     1       4.769  -2.659  26.132  0.00  0.00    -0.503 OA
ATOM     25  H   UNL     1       4.613  -1.851  26.648  0.00  0.00    +0.292 HD
ENDBRANCH   5  24
BRANCH   4  26
ATOM     26  O   UNL     1       4.191  -4.009  23.905  0.00  0.00    -0.457 OA
BRANCH  26  27
ATOM     27  C   UNL     1       4.548  -5.326  23.459  0.00  0.00    +0.339 C 
ATOM     28  O   UNL     1       3.518  -5.941  22.678  0.00  0.00    -0.331 OA
ATOM     29  C   UNL     1       2.309  -6.206  23.416  0.00  0.00    +0.179 C 
ATOM     30  C   UNL     1       2.565  -7.122  24.620  0.00  0.00    +0.177 C 
ATOM     31  C   UNL     1       3.658  -6.539  25.510  0.00  0.00    +0.180 C 
ATOM     32  C   UNL     1       4.906  -6.209  24.681  0.00  0.00    +0.214 C 
BRANCH  30  33
ATOM     33  O   UNL     1       2.978  -8.429  24.186  0.00  0.00    -0.386 OA
ATOM     34  H   UNL     1       3.956  -8.399  24.174  0.00  0.00    +0.210 HD
ENDBRANCH  30  33
BRANCH  31  35
ATOM     35  O   UNL     1       3.951  -7.516  26.528  0.00  0.00    -0.386 OA
ATOM     36  H   UNL     1       3.238  -8.183  26.503  0.00  0.00    +0.210 HD
ENDBRANCH  31  35
BRANCH  32  37
ATOM     37  O   UNL     1       5.891  -5.610  25.534  0.00  0.00    -0.383 OA
ATOM     38  H   UNL     1       5.774  -6.000  26.422  0.00  0.00    +0.210 HD
ENDBRANCH  32  37
BRANCH  29  39
ATOM     39  C   UNL     1       1.288  -6.851  22.464  0.00  0.00    +0.190 C 
BRANCH  39  40
ATOM     40  O   UNL     1       1.824  -7.987  21.779  0.00  0.00    -0.392 OA
ATOM     41  H   UNL     1       1.882  -8.723  22.411  0.00  0.00    +0.210 HD
ENDBRANCH  39  40
ENDBRANCH  29  39
ENDBRANCH  26  27
ENDBRANCH   4  26
TORSDOF 12
ENDMDL
MODEL 5
REMARK VINA RESULT:      -6.7      1.650      3.451
REMARK  Name = 
REMARK  14 active torsions:
REMARK  status: ('A' for Active; 'I' for Inactive)
REMARK    1  A    between atoms: C_1  and  O_2
REMARK    2  A    between atoms: O_2  and  C_3
REMARK    3  A    between atoms: C_5  and  O_37
REMARK    4  A    between atoms: C_10  and  C_16
REMARK    5  A    between atoms: C_11  and  O_14
REMARK    6  A    between atoms: O_14  and  C_15
REMARK    7  A    between atoms: C_18  and  O_36
REMARK    8  A    between atoms: C_19  and  O_22
REMARK    9  A    between atoms: O_22  and  C_23
REMARK   10  A    between atoms: C_25  and  O_35
REMARK   11  A    between atoms: C_26  and  O_34
REMARK   12  A    between atoms: C_27  and  O_33
REMARK   13  A    between atoms: C_29  and  C_31
REMARK   14  A    between atoms: C_31  and  O_32
REMARK                            x       y       z     vdW  Elec       q    Type
REMARK                         _______ _______ _______ _____ _____    ______ ____
ROOT
ATOM      1  C   UNL     1       7.899   0.095  24.684  0.00  0.00    +0.025 A 
ATOM      2  C   UNL     1       6.635  -0.193  24.156  0.00  0.00    +0.015 A 
ATOM      3  C   UNL     1       5.964  -1.381  24.495  0.00  0.00    +0.050 A 
ATOM      4  C   UNL     1       6.544  -2.300  25.376  0.00  0.00    +0.165 A 
ATOM      5  C   UNL     1       7.823  -2.017  25.876  0.00  0.00    +0.159 A 
ATOM      6  C   UNL     1       8.493  -0.833  25.547  0.00  0.00    +0.060 A 
ENDROOT
BRANCH   1  11
ATOM      7  C   UNL     1       8.533   5.997  25.609  0.00  0.00    +0.127 A 
ATOM      8  C   UNL     1       8.070   4.687  25.731  0.00  0.00    +0.092 A 
ATOM      9  C   UNL     1       8.615   3.672  24.934  0.00  0.00    +0.147 A 
ATOM     10  O   UNL     1       8.088   2.423  25.120  0.00  0.00    -0.451 OA
ATOM     11  C   UNL     1       8.576   1.373  24.369  0.00  0.00    +0.181 A 
ATOM     12  C   UNL     1       9.562   1.461  23.453  0.00  0.00    +0.211 A 
ATOM     13  C   UNL     1      10.170   2.818  23.228  0.00  0.00    +0.238 A 
ATOM     14  O   UNL     1      11.093   2.994  22.438  0.00  0.00    -0.283 OA
ATOM     15  C   UNL     1       9.622   3.950  24.015  0.00  0.00    +0.109 A 
ATOM     16  C   UNL     1      10.067   5.276  23.882  0.00  0.00    +0.135 A 
ATOM     17  C   UNL     1       9.518   6.294  24.670  0.00  0.00    +0.092 A 
BRANCH   7  19
ATOM     18  C   UNL     1       7.249   6.747  27.442  0.00  0.00    +0.277 C 
ATOM     19  O   UNL     1       8.060   7.067  26.319  0.00  0.00    -0.495 OA
ENDBRANCH   7  19
BRANCH  12  20
ATOM     20  O   UNL     1       9.969   0.313  22.783  0.00  0.00    -0.488 OA
ATOM     21  C   UNL     1       9.443   0.065  21.485  0.00  0.00    +0.277 C 
ENDBRANCH  12  20
BRANCH  16  22
ATOM     22  O   UNL     1      11.042   5.608  22.985  0.00  0.00    -0.506 OA
ATOM     23  H   UNL     1      10.806   6.424  22.515  0.00  0.00    +0.292 HD
ENDBRANCH  16  22
ENDBRANCH   1  11
BRANCH   5  24
ATOM     24  O   UNL     1       8.406  -2.914  26.735  0.00  0.00    -0.503 OA
ATOM     25  H   UNL     1       8.824  -3.617  26.212  0.00  0.00    +0.292 HD
ENDBRANCH   5  24
BRANCH   4  26
ATOM     26  O   UNL     1       5.977  -3.481  25.789  0.00  0.00    -0.457 OA
BRANCH  26  27
ATOM     27  C   UNL     1       6.210  -4.651  24.989  0.00  0.00    +0.339 C 
ATOM     28  O   UNL     1       5.203  -4.844  23.990  0.00  0.00    -0.331 OA
ATOM     29  C   UNL     1       3.895  -5.120  24.530  0.00  0.00    +0.179 C 
ATOM     30  C   UNL     1       3.896  -6.374  25.413  0.00  0.00    +0.177 C 
ATOM     31  C   UNL     1       4.949  -6.254  26.509  0.00  0.00    +0.180 C 
ATOM     32  C   UNL     1       6.313  -5.895  25.906  0.00  0.00    +0.214 C 
BRANCH  30  33
ATOM     33  O   UNL     1       4.183  -7.547  24.631  0.00  0.00    -0.386 OA
ATOM     34  H   UNL     1       4.841  -7.258  23.968  0.00  0.00    +0.210 HD
ENDBRANCH  30  33
BRANCH  31  35
ATOM     35  O   UNL     1       5.000  -7.517  27.200  0.00  0.00    -0.386 OA
ATOM     36  H   UNL     1       5.589  -7.401  27.971  0.00  0.00    +0.210 HD
ENDBRANCH  31  35
BRANCH  32  37
ATOM     37  O   UNL     1       7.267  -5.731  26.966  0.00  0.00    -0.383 OA
ATOM     38  H   UNL     1       7.756  -4.906  26.782  0.00  0.00    +0.210 HD
ENDBRANCH  32  37
BRANCH  29  39
ATOM     39  C   UNL     1       2.912  -5.293  23.360  0.00  0.00    +0.190 C 
BRANCH  39  40
ATOM     40  O   UNL     1       1.838  -6.183  23.678  0.00  0.00    -0.392 OA
ATOM     41  H   UNL     1       1.619  -6.071  24.618  0.00  0.00    +0.210 HD
ENDBRANCH  39  40
ENDBRANCH  29  39
ENDBRANCH  26  27
ENDBRANCH   4  26
TORSDOF 12
ENDMDL
MODEL 6
REMARK VINA RESULT:      -6.6      1.363      2.615
REMARK  Name = 
REMARK  14 active torsions:
REMARK  status: ('A' for Active; 'I' for Inactive)
REMARK    1  A    between atoms: C_1  and  O_2
REMARK    2  A    between atoms: O_2  and  C_3
REMARK    3  A    between atoms: C_5  and  O_37
REMARK    4  A    between atoms: C_10  and  C_16
REMARK    5  A    between atoms: C_11  and  O_14
REMARK    6  A    between atoms: O_14  and  C_15
REMARK    7  A    between atoms: C_18  and  O_36
REMARK    8  A    between atoms: C_19  and  O_22
REMARK    9  A    between atoms: O_22  and  C_23
REMARK   10  A    between atoms: C_25  and  O_35
REMARK   11  A    between atoms: C_26  and  O_34
REMARK   12  A    between atoms: C_27  and  O_33
REMARK   13  A    between atoms: C_29  and  C_31
REMARK   14  A    between atoms: C_31  and  O_32
REMARK                            x       y       z     vdW  Elec       q    Type
REMARK                         _______ _______ _______ _____ _____    ______ ____
ROOT
ATOM      1  C   UNL     1       7.457   0.724  24.393  0.00  0.00    +0.025 A 
ATOM      2  C   UNL     1       6.912   0.073  23.279  0.00  0.00    +0.015 A 
ATOM      3  C   UNL     1       6.434  -1.246  23.377  0.00  0.00    +0.050 A 
ATOM      4  C   UNL     1       6.485  -1.935  24.592  0.00  0.00    +0.165 A 
ATOM      5  C   UNL     1       7.060  -1.286  25.695  0.00  0.00    +0.159 A 
ATOM      6  C   UNL     1       7.533   0.030  25.606  0.00  0.00    +0.060 A 
ENDROOT
BRANCH   1  11
ATOM      7  C   UNL     1      11.829   4.723  23.399  0.00  0.00    +0.127 A 
ATOM      8  C   UNL     1      11.165   3.504  23.531  0.00  0.00    +0.092 A 
ATOM      9  C   UNL     1       9.803   3.478  23.861  0.00  0.00    +0.147 A 
ATOM     10  O   UNL     1       9.244   2.234  23.976  0.00  0.00    -0.451 OA
ATOM     11  C   UNL     1       7.906   2.131  24.300  0.00  0.00    +0.181 A 
ATOM     12  C   UNL     1       7.069   3.169  24.503  0.00  0.00    +0.211 A 
ATOM     13  C   UNL     1       7.649   4.551  24.375  0.00  0.00    +0.238 A 
ATOM     14  O   UNL     1       6.962   5.560  24.512  0.00  0.00    -0.283 OA
ATOM     15  C   UNL     1       9.094   4.659  24.059  0.00  0.00    +0.109 A 
ATOM     16  C   UNL     1       9.776   5.882  23.947  0.00  0.00    +0.135 A 
ATOM     17  C   UNL     1      11.138   5.911  23.627  0.00  0.00    +0.092 A 
BRANCH   7  19
ATOM     18  C   UNL     1      13.449   5.685  21.976  0.00  0.00    +0.277 C 
ATOM     19  O   UNL     1      13.157   4.866  23.102  0.00  0.00    -0.495 OA
ENDBRANCH   7  19
BRANCH  12  20
ATOM     20  O   UNL     1       5.736   2.917  24.802  0.00  0.00    -0.488 OA
ATOM     21  C   UNL     1       4.771   3.058  23.766  0.00  0.00    +0.277 C 
ENDBRANCH  12  20
BRANCH  16  22
ATOM     22  O   UNL     1       9.134   7.070  24.146  0.00  0.00    -0.506 OA
ATOM     23  H   UNL     1       9.677   7.808  23.823  0.00  0.00    +0.292 HD
ENDBRANCH  16  22
ENDBRANCH   1  11
BRANCH   5  24
ATOM     24  O   UNL     1       7.123  -1.953  26.891  0.00  0.00    -0.503 OA
ATOM     25  H   UNL     1       6.279  -1.836  27.357  0.00  0.00    +0.292 HD
ENDBRANCH   5  24
BRANCH   4  26
ATOM     26  O   UNL     1       6.036  -3.215  24.808  0.00  0.00    -0.457 OA
BRANCH  26  27
ATOM     27  C   UNL     1       6.900  -4.299  24.434  0.00  0.00    +0.339 C 
ATOM     28  O   UNL     1       7.174  -4.325  23.030  0.00  0.00    -0.331 OA
ATOM     29  C   UNL     1       6.014  -4.589  22.216  0.00  0.00    +0.179 C 
ATOM     30  C   UNL     1       5.362  -5.932  22.570  0.00  0.00    +0.177 C 
ATOM     31  C   UNL     1       5.037  -5.990  24.059  0.00  0.00    +0.180 C 
ATOM     32  C   UNL     1       6.276  -5.641  24.893  0.00  0.00    +0.214 C 
BRANCH  30  33
ATOM     33  O   UNL     1       6.241  -7.024  22.252  0.00  0.00    -0.386 OA
ATOM     34  H   UNL     1       5.938  -7.768  22.809  0.00  0.00    +0.210 HD
ENDBRANCH  30  33
BRANCH  31  35
ATOM     35  O   UNL     1       4.573  -7.324  24.347  0.00  0.00    -0.386 OA
ATOM     36  H   UNL     1       4.720  -7.481  25.300  0.00  0.00    +0.210 HD
ENDBRANCH  31  35
BRANCH  32  37
ATOM     37  O   UNL     1       5.924  -5.648  26.284  0.00  0.00    -0.383 OA
ATOM     38  H   UNL     1       6.638  -5.181  26.760  0.00  0.00    +0.210 HD
ENDBRANCH  32  37
BRANCH  29  39
ATOM     39  C   UNL     1       6.441  -4.578  20.739  0.00  0.00    +0.190 C 
BRANCH  39  40
ATOM     40  O   UNL     1       5.831  -5.631  19.987  0.00  0.00    -0.392 OA
ATOM     41  H   UNL     1       5.193  -5.234  19.372  0.00  0.00    +0.210 HD
ENDBRANCH  39  40
ENDBRANCH  29  39
ENDBRANCH  26  27
ENDBRANCH   4  26
TORSDOF 12
ENDMDL
MODEL 7
REMARK VINA RESULT:      -6.5      2.106      4.098
REMARK  Name = 
REMARK  14 active torsions:
REMARK  status: ('A' for Active; 'I' for Inactive)
REMARK    1  A    between atoms: C_1  and  O_2
REMARK    2  A    between atoms: O_2  and  C_3
REMARK    3  A    between atoms: C_5  and  O_37
REMARK    4  A    between atoms: C_10  and  C_16
REMARK    5  A    between atoms: C_11  and  O_14
REMARK    6  A    between atoms: O_14  and  C_15
REMARK    7  A    between atoms: C_18  and  O_36
REMARK    8  A    between atoms: C_19  and  O_22
REMARK    9  A    between atoms: O_22  and  C_23
REMARK   10  A    between atoms: C_25  and  O_35
REMARK   11  A    between atoms: C_26  and  O_34
REMARK   12  A    between atoms: C_27  and  O_33
REMARK   13  A    between atoms: C_29  and  C_31
REMARK   14  A    between atoms: C_31  and  O_32
REMARK                            x       y       z     vdW  Elec       q    Type
REMARK                         _______ _______ _______ _____ _____    ______ ____
ROOT
ATOM      1  C   UNL     1       6.977  -1.991  25.170  0.00  0.00    +0.025 A 
ATOM      2  C   UNL     1       5.577  -1.990  25.132  0.00  0.00    +0.015 A 
ATOM      3  C   UNL     1       4.834  -2.917  25.884  0.00  0.00    +0.050 A 
ATOM      4  C   UNL     1       5.478  -3.857  26.694  0.00  0.00    +0.165 A 
ATOM      5  C   UNL     1       6.880  -3.871  26.703  0.00  0.00    +0.159 A 
ATOM      6  C   UNL     1       7.626  -2.946  25.961  0.00  0.00    +0.060 A 
ENDROOT
BRANCH   1  11
ATOM      7  C   UNL     1       8.940   3.657  24.597  0.00  0.00    +0.127 A 
ATOM      8  C   UNL     1       8.300   2.532  25.115  0.00  0.00    +0.092 A 
ATOM      9  C   UNL     1       8.385   1.305  24.445  0.00  0.00    +0.147 A 
ATOM     10  O   UNL     1       7.715   0.262  25.027  0.00  0.00    -0.451 OA
ATOM     11  C   UNL     1       7.754  -0.977  24.422  0.00  0.00    +0.181 A 
ATOM     12  C   UNL     1       8.420  -1.272  23.288  0.00  0.00    +0.211 A 
ATOM     13  C   UNL     1       9.175  -0.152  22.625  0.00  0.00    +0.238 A 
ATOM     14  O   UNL     1       9.836  -0.327  21.605  0.00  0.00    -0.283 OA
ATOM     15  C   UNL     1       9.105   1.187  23.261  0.00  0.00    +0.109 A 
ATOM     16  C   UNL     1       9.728   2.330  22.733  0.00  0.00    +0.135 A 
ATOM     17  C   UNL     1       9.637   3.560  23.395  0.00  0.00    +0.092 A 
BRANCH   7  19
ATOM     18  C   UNL     1       9.754   5.873  24.543  0.00  0.00    +0.277 C 
ATOM     19  O   UNL     1       8.907   4.907  25.154  0.00  0.00    -0.495 OA
ENDBRANCH   7  19
BRANCH  12  20
ATOM     20  O   UNL     1       8.389  -2.574  22.801  0.00  0.00    -0.488 OA
ATOM     21  C   UNL     1       7.318  -2.951  21.946  0.00  0.00    +0.277 C 
ENDBRANCH  12  20
BRANCH  16  22
ATOM     22  O   UNL     1      10.435   2.276  21.566  0.00  0.00    -0.506 OA
ATOM     23  H   UNL     1       9.840   2.121  20.815  0.00  0.00    +0.292 HD
ENDBRANCH  16  22
ENDBRANCH   1  11
BRANCH   5  24
ATOM     24  O   UNL     1       7.524  -4.793  27.487  0.00  0.00    -0.503 OA
ATOM     25  H   UNL     1       7.869  -4.343  28.275  0.00  0.00    +0.292 HD
ENDBRANCH   5  24
BRANCH   4  26
ATOM     26  O   UNL     1       4.857  -4.797  27.480  0.00  0.00    -0.457 OA
BRANCH  26  27
ATOM     27  C   UNL     1       4.515  -6.055  26.876  0.00  0.00    +0.339 C 
ATOM     28  O   UNL     1       3.265  -6.009  26.180  0.00  0.00    -0.331 OA
ATOM     29  C   UNL     1       2.130  -5.785  27.039  0.00  0.00    +0.179 C 
ATOM     30  C   UNL     1       2.004  -6.872  28.114  0.00  0.00    +0.177 C 
ATOM     31  C   UNL     1       3.301  -6.990  28.907  0.00  0.00    +0.180 C 
ATOM     32  C   UNL     1       4.495  -7.162  27.959  0.00  0.00    +0.214 C 
BRANCH  30  33
ATOM     33  O   UNL     1       1.717  -8.148  27.516  0.00  0.00    -0.386 OA
ATOM     34  H   UNL     1       2.503  -8.361  26.975  0.00  0.00    +0.210 HD
ENDBRANCH  30  33
BRANCH  31  35
ATOM     35  O   UNL     1       3.167  -8.122  29.788  0.00  0.00    -0.386 OA
ATOM     36  H   UNL     1       3.881  -8.057  30.452  0.00  0.00    +0.210 HD
ENDBRANCH  31  35
BRANCH  32  37
ATOM     37  O   UNL     1       5.705  -7.211  28.731  0.00  0.00    -0.383 OA
ATOM     38  H   UNL     1       6.175  -6.369  28.576  0.00  0.00    +0.210 HD
ENDBRANCH  32  37
BRANCH  29  39
ATOM     39  C   UNL     1       0.861  -5.747  26.170  0.00  0.00    +0.190 C 
BRANCH  39  40
ATOM     40  O   UNL     1       0.914  -6.680  25.087  0.00  0.00    -0.392 OA
ATOM     41  H   UNL     1       1.246  -7.526  25.431  0.00  0.00    +0.210 HD
ENDBRANCH  39  40
ENDBRANCH  29  39
ENDBRANCH  26  27
ENDBRANCH   4  26
TORSDOF 12
ENDMDL
MODEL 8
REMARK VINA RESULT:      -6.4      1.737     10.100
REMARK  Name = 
REMARK  14 active torsions:
REMARK  status: ('A' for Active; 'I' for Inactive)
REMARK    1  A    between atoms: C_1  and  O_2
REMARK    2  A    between atoms: O_2  and  C_3
REMARK    3  A    between atoms: C_5  and  O_37
REMARK    4  A    between atoms: C_10  and  C_16
REMARK    5  A    between atoms: C_11  and  O_14
REMARK    6  A    between atoms: O_14  and  C_15
REMARK    7  A    between atoms: C_18  and  O_36
REMARK    8  A    between atoms: C_19  and  O_22
REMARK    9  A    between atoms: O_22  and  C_23
REMARK   10  A    between atoms: C_25  and  O_35
REMARK   11  A    between atoms: C_26  and  O_34
REMARK   12  A    between atoms: C_27  and  O_33
REMARK   13  A    between atoms: C_29  and  C_31
REMARK   14  A    between atoms: C_31  and  O_32
REMARK                            x       y       z     vdW  Elec       q    Type
REMARK                         _______ _______ _______ _____ _____    ______ ____
ROOT
ATOM      1  C   UNL     1       7.038  -2.350  24.238  0.00  0.00    +0.025 A 
ATOM      2  C   UNL     1       8.395  -2.208  24.552  0.00  0.00    +0.015 A 
ATOM      3  C   UNL     1       9.093  -1.032  24.224  0.00  0.00    +0.050 A 
ATOM      4  C   UNL     1       8.442   0.027  23.583  0.00  0.00    +0.165 A 
ATOM      5  C   UNL     1       7.091  -0.135  23.247  0.00  0.00    +0.159 A 
ATOM      6  C   UNL     1       6.389  -1.302  23.576  0.00  0.00    +0.060 A 
ENDROOT
BRANCH   1  11
ATOM      7  C   UNL     1       4.448  -5.682  28.514  0.00  0.00    +0.127 A 
ATOM      8  C   UNL     1       5.123  -4.633  27.890  0.00  0.00    +0.092 A 
ATOM      9  C   UNL     1       5.353  -4.669  26.508  0.00  0.00    +0.147 A 
ATOM     10  O   UNL     1       6.031  -3.598  25.991  0.00  0.00    -0.451 OA
ATOM     11  C   UNL     1       6.295  -3.566  24.637  0.00  0.00    +0.181 A 
ATOM     12  C   UNL     1       5.923  -4.508  23.746  0.00  0.00    +0.211 A 
ATOM     13  C   UNL     1       5.169  -5.696  24.279  0.00  0.00    +0.238 A 
ATOM     14  O   UNL     1       4.762  -6.591  23.544  0.00  0.00    -0.283 OA
ATOM     15  C   UNL     1       4.914  -5.743  25.740  0.00  0.00    +0.109 A 
ATOM     16  C   UNL     1       4.256  -6.806  26.380  0.00  0.00    +0.135 A 
ATOM     17  C   UNL     1       4.033  -6.777  27.761  0.00  0.00    +0.092 A 
BRANCH   7  19
ATOM     18  C   UNL     1       3.443  -6.901  30.269  0.00  0.00    +0.277 C 
ATOM     19  O   UNL     1       4.187  -5.761  29.855  0.00  0.00    -0.495 OA
ENDBRANCH   7  19
BRANCH  12  20
ATOM     20  O   UNL     1       6.239  -4.335  22.404  0.00  0.00    -0.488 OA
ATOM     21  C   UNL     1       7.203  -5.201  21.818  0.00  0.00    +0.277 C 
ENDBRANCH  12  20
BRANCH  16  22
ATOM     22  O   UNL     1       3.818  -7.892  25.677  0.00  0.00    -0.506 OA
ATOM     23  H   UNL     1       4.397  -8.655  25.837  0.00  0.00    +0.292 HD
ENDBRANCH  16  22
ENDBRANCH   1  11
BRANCH   5  24
ATOM     24  O   UNL     1       6.443   0.893  22.611  0.00  0.00    -0.503 OA
ATOM     25  H   UNL     1       7.015   1.677  22.627  0.00  0.00    +0.292 HD
ENDBRANCH   5  24
BRANCH   4  26
ATOM     26  O   UNL     1       9.016   1.224  23.229  0.00  0.00    -0.457 OA
BRANCH  26  27
ATOM     27  C   UNL     1       9.635   2.002  24.266  0.00  0.00    +0.339 C 
ATOM     28  O   UNL     1       8.769   2.217  25.385  0.00  0.00    -0.331 OA
ATOM     29  C   UNL     1       7.611   3.019  25.077  0.00  0.00    +0.179 C 
ATOM     30  C   UNL     1       8.002   4.402  24.540  0.00  0.00    +0.177 C 
ATOM     31  C   UNL     1       8.934   4.265  23.340  0.00  0.00    +0.180 C 
ATOM     32  C   UNL     1      10.119   3.353  23.683  0.00  0.00    +0.214 C 
BRANCH  30  33
ATOM     33  O   UNL     1       8.674   5.170  25.553  0.00  0.00    -0.386 OA
ATOM     34  H   UNL     1       8.498   4.699  26.391  0.00  0.00    +0.210 HD
ENDBRANCH  30  33
BRANCH  31  35
ATOM     35  O   UNL     1       9.379   5.588  22.985  0.00  0.00    -0.386 OA
ATOM     36  H   UNL     1       8.583   6.115  22.777  0.00  0.00    +0.210 HD
ENDBRANCH  31  35
BRANCH  32  37
ATOM     37  O   UNL     1      10.943   3.196  22.518  0.00  0.00    -0.383 OA
ATOM     38  H   UNL     1      10.394   2.760  21.838  0.00  0.00    +0.210 HD
ENDBRANCH  32  37
BRANCH  29  39
ATOM     39  C   UNL     1       6.765   3.164  26.352  0.00  0.00    +0.190 C 
BRANCH  39  40
ATOM     40  O   UNL     1       7.568   3.258  27.532  0.00  0.00    -0.392 OA
ATOM     41  H   UNL     1       7.136   3.876  28.145  0.00  0.00    +0.210 HD
ENDBRANCH  39  40
ENDBRANCH  29  39
ENDBRANCH  26  27
ENDBRANCH   4  26
TORSDOF 12
ENDMDL
MODEL 9
REMARK VINA RESULT:      -6.4      1.791     10.393
REMARK  Name = 
REMARK  14 active torsions:
REMARK  status: ('A' for Active; 'I' for Inactive)
REMARK    1  A    between atoms: C_1  and  O_2
REMARK    2  A    between atoms: O_2  and  C_3
REMARK    3  A    between atoms: C_5  and  O_37
REMARK    4  A    between atoms: C_10  and  C_16
REMARK    5  A    between atoms: C_11  and  O_14
REMARK    6  A    between atoms: O_14  and  C_15
REMARK    7  A    between atoms: C_18  and  O_36
REMARK    8  A    between atoms: C_19  and  O_22
REMARK    9  A    between atoms: O_22  and  C_23
REMARK   10  A    between atoms: C_25  and  O_35
REMARK   11  A    between atoms: C_26  and  O_34
REMARK   12  A    between atoms: C_27  and  O_33
REMARK   13  A    between atoms: C_29  and  C_31
REMARK   14  A    between atoms: C_31  and  O_32
REMARK                            x       y       z     vdW  Elec       q    Type
REMARK                         _______ _______ _______ _____ _____    ______ ____
ROOT
ATOM      1  C   UNL     1       6.330  -1.877  24.303  0.00  0.00    +0.025 A 
ATOM      2  C   UNL     1       7.461  -1.684  23.500  0.00  0.00    +0.015 A 
ATOM      3  C   UNL     1       7.957  -0.392  23.250  0.00  0.00    +0.050 A 
ATOM      4  C   UNL     1       7.336   0.730  23.807  0.00  0.00    +0.165 A 
ATOM      5  C   UNL     1       6.187   0.529  24.586  0.00  0.00    +0.159 A 
ATOM      6  C   UNL     1       5.691  -0.755  24.843  0.00  0.00    +0.060 A 
ENDROOT
BRANCH   1  11
ATOM      7  C   UNL     1       2.581  -6.432  23.169  0.00  0.00    +0.127 A 
ATOM      8  C   UNL     1       3.218  -5.195  23.071  0.00  0.00    +0.092 A 
ATOM      9  C   UNL     1       4.260  -4.871  23.949  0.00  0.00    +0.147 A 
ATOM     10  O   UNL     1       4.815  -3.630  23.780  0.00  0.00    -0.451 OA
ATOM     11  C   UNL     1       5.846  -3.242  24.610  0.00  0.00    +0.181 A 
ATOM     12  C   UNL     1       6.386  -3.994  25.591  0.00  0.00    +0.211 A 
ATOM     13  C   UNL     1       5.805  -5.366  25.800  0.00  0.00    +0.238 A 
ATOM     14  O   UNL     1       6.247  -6.137  26.647  0.00  0.00    -0.283 OA
ATOM     15  C   UNL     1       4.676  -5.769  24.926  0.00  0.00    +0.109 A 
ATOM     16  C   UNL     1       4.013  -7.004  25.033  0.00  0.00    +0.135 A 
ATOM     17  C   UNL     1       2.966  -7.327  24.163  0.00  0.00    +0.092 A 
BRANCH   7  19
ATOM     18  C   UNL     1       1.116  -8.188  22.580  0.00  0.00    +0.277 C 
ATOM     19  O   UNL     1       1.541  -6.845  22.380  0.00  0.00    -0.495 OA
ENDBRANCH   7  19
BRANCH  12  20
ATOM     20  O   UNL     1       7.439  -3.481  26.339  0.00  0.00    -0.488 OA
ATOM     21  C   UNL     1       8.741  -4.013  26.128  0.00  0.00    +0.277 C 
ENDBRANCH  12  20
BRANCH  16  22
ATOM     22  O   UNL     1       4.370  -7.918  25.983  0.00  0.00    -0.506 OA
ATOM     23  H   UNL     1       3.728  -8.646  26.010  0.00  0.00    +0.292 HD
ENDBRANCH  16  22
ENDBRANCH   1  11
BRANCH   5  24
ATOM     24  O   UNL     1       5.564   1.622  25.132  0.00  0.00    -0.503 OA
ATOM     25  H   UNL     1       4.885   1.934  24.511  0.00  0.00    +0.292 HD
ENDBRANCH   5  24
BRANCH   4  26
ATOM     26  O   UNL     1       7.740   2.033  23.645  0.00  0.00    -0.457 OA
BRANCH  26  27
ATOM     27  C   UNL     1       8.703   2.555  24.573  0.00  0.00    +0.339 C 
ATOM     28  O   UNL     1       8.092   3.175  25.710  0.00  0.00    -0.331 OA
ATOM     29  C   UNL     1       7.333   4.357  25.389  0.00  0.00    +0.179 C 
ATOM     30  C   UNL     1       8.199   5.425  24.708  0.00  0.00    +0.177 C 
ATOM     31  C   UNL     1       8.894   4.844  23.480  0.00  0.00    +0.180 C 
ATOM     32  C   UNL     1       9.637   3.553  23.845  0.00  0.00    +0.214 C 
BRANCH  30  33
ATOM     33  O   UNL     1       9.205   5.915  25.611  0.00  0.00    -0.386 OA
ATOM     34  H   UNL     1      10.036   5.482  25.331  0.00  0.00    +0.210 HD
ENDBRANCH  30  33
BRANCH  31  35
ATOM     35  O   UNL     1       9.801   5.847  22.984  0.00  0.00    -0.386 OA
ATOM     36  H   UNL     1      10.294   5.448  22.240  0.00  0.00    +0.210 HD
ENDBRANCH  31  35
BRANCH  32  37
ATOM     37  O   UNL     1      10.229   3.001  22.660  0.00  0.00    -0.383 OA
ATOM     38  H   UNL     1       9.515   2.553  22.168  0.00  0.00    +0.210 HD
ENDBRANCH  32  37
BRANCH  29  39
ATOM     39  C   UNL     1       6.725   4.914  26.687  0.00  0.00    +0.190 C 
BRANCH  39  40
ATOM     40  O   UNL     1       7.628   4.826  27.793  0.00  0.00    -0.392 OA
ATOM     41  H   UNL     1       7.956   3.913  27.845  0.00  0.00    +0.210 HD
ENDBRANCH  39  40
ENDBRANCH  29  39
ENDBRANCH  26  27
ENDBRANCH   4  26
TORSDOF 12
ENDMDL
