MODEL 1
REMARK VINA RESULT:      -7.9      0.000      0.000
REMARK  Name = 
REMARK  22 active torsions:
REMARK  status: ('A' for Active; 'I' for Inactive)
REMARK    1  A    between atoms: C_3  and  O_61
REMARK    2  A    between atoms: C_6  and  C_7
REMARK    3  A    between atoms: C_8  and  C_9
REMARK    4  A    between atoms: C_9  and  O_11
REMARK    5  A    between atoms: O_11  and  C_12
REMARK    6  A    between atoms: C_12  and  C_13
REMARK    7  A    between atoms: C_14  and  O_60
REMARK    8  A    between atoms: C_16  and  O_59
REMARK    9  A    between atoms: C_18  and  O_58
REMARK   10  A    between atoms: C_19  and  O_22
REMARK   11  A    between atoms: O_22  and  C_23
REMARK   12  A    between atoms: C_24  and  C_50
REMARK   13  A    between atoms: C_28  and  O_35
REMARK   14  A    between atoms: C_30  and  O_34
REMARK   15  A    between atoms: O_35  and  C_36
REMARK   16  A    between atoms: C_38  and  O_49
REMARK   17  A    between atoms: C_39  and  O_48
REMARK   18  A    between atoms: C_41  and  O_47
REMARK   19  A    between atoms: C_43  and  C_45
REMARK   20  A    between atoms: C_45  and  O_46
REMARK   21  A    between atoms: C_52  and  O_57
REMARK   22  A    between atoms: C_53  and  O_56
REMARK                            x       y       z     vdW  Elec       q    Type
REMARK                         _______ _______ _______ _____ _____    ______ ____
ROOT
ATOM      1  C   UNL     1       4.587  -2.382  25.767  0.00  0.00    +0.214 A 
ATOM      2  C   UNL     1       4.541  -1.147  26.623  0.00  0.00    +0.238 A 
ATOM      3  O   UNL     1       3.841  -1.069  27.626  0.00  0.00    -0.283 OA
ATOM      4  C   UNL     1       5.332   0.012  26.226  0.00  0.00    +0.109 A 
ATOM      5  C   UNL     1       6.001  -0.044  25.013  0.00  0.00    +0.147 A 
ATOM      6  C   UNL     1       6.741   1.069  24.590  0.00  0.00    +0.093 A 
ATOM      7  C   UNL     1       6.799   2.228  25.380  0.00  0.00    +0.131 A 
ATOM      8  C   UNL     1       6.108   2.277  26.588  0.00  0.00    +0.092 A 
ATOM      9  O   UNL     1       5.969  -1.153  24.195  0.00  0.00    -0.451 OA
ATOM     10  C   UNL     1       5.400   1.167  27.023  0.00  0.00    +0.135 A 
ATOM     11  C   UNL     1       5.272  -2.295  24.604  0.00  0.00    +0.181 A 
ENDROOT
BRANCH  11  12
ATOM     12  C   UNL     1       5.369  -3.440  23.637  0.00  0.00    +0.025 A 
ATOM     13  C   UNL     1       6.517  -3.604  22.836  0.00  0.00    +0.015 A 
ATOM     14  C   UNL     1       6.642  -4.687  21.951  0.00  0.00    +0.050 A 
ATOM     15  C   UNL     1       5.624  -5.621  21.865  0.00  0.00    +0.158 A 
ATOM     16  C   UNL     1       4.472  -5.473  22.625  0.00  0.00    +0.159 A 
ATOM     17  C   UNL     1       4.330  -4.383  23.484  0.00  0.00    +0.060 A 
BRANCH  16  18
ATOM     18  O   UNL     1       3.500  -6.429  22.502  0.00  0.00    -0.503 OA
ATOM     19  H   UNL     1       3.612  -6.863  21.638  0.00  0.00    +0.292 HD
ENDBRANCH  16  18
BRANCH  15  20
ATOM     20  O   UNL     1       5.757  -6.696  21.033  0.00  0.00    -0.503 OA
ATOM     21  H   UNL     1       6.687  -6.979  21.145  0.00  0.00    +0.292 HD
ENDBRANCH  15  20
ENDBRANCH  11  12
BRANCH  10  22
ATOM     22  O   UNL     1       4.799   1.225  28.249  0.00  0.00    -0.506 OA
ATOM     23  H   UNL     1       4.035   0.630  28.294  0.00  0.00    +0.292 HD
ENDBRANCH  10  22
BRANCH   7  24
ATOM     24  O   UNL     1       7.492   3.381  25.120  0.00  0.00    -0.461 OA
BRANCH  24  25
ATOM     25  C   UNL     1       7.626   3.760  23.745  0.00  0.00    +0.339 C 
ATOM     26  O   UNL     1       8.967   4.154  23.443  0.00  0.00    -0.331 OA
ATOM     27  C   UNL     1       9.384   5.373  24.089  0.00  0.00    +0.179 C 
ATOM     28  C   UNL     1       8.482   6.544  23.654  0.00  0.00    +0.177 C 
ATOM     29  C   UNL     1       7.029   6.228  24.023  0.00  0.00    +0.180 C 
ATOM     30  C   UNL     1       6.608   4.880  23.424  0.00  0.00    +0.214 C 
BRANCH  30  31
ATOM     31  O   UNL     1       5.283   4.546  23.865  0.00  0.00    -0.383 OA
ATOM     32  H   UNL     1       5.193   3.576  23.786  0.00  0.00    +0.210 HD
ENDBRANCH  30  31
BRANCH  29  33
ATOM     33  O   UNL     1       6.833   6.249  25.445  0.00  0.00    -0.386 OA
ATOM     34  H   UNL     1       7.093   5.386  25.817  0.00  0.00    +0.210 HD
ENDBRANCH  29  33
BRANCH  28  35
ATOM     35  O   UNL     1       8.596   6.732  22.240  0.00  0.00    -0.386 OA
ATOM     36  H   UNL     1       9.235   7.446  22.068  0.00  0.00    +0.210 HD
ENDBRANCH  28  35
BRANCH  27  37
ATOM     37  C   UNL     1      10.855   5.637  23.729  0.00  0.00    +0.190 C 
BRANCH  37  38
ATOM     38  O   UNL     1      11.404   4.577  22.941  0.00  0.00    -0.392 OA
ATOM     39  H   UNL     1      11.101   4.685  22.025  0.00  0.00    +0.210 HD
ENDBRANCH  37  38
ENDBRANCH  27  37
ENDBRANCH  24  25
ENDBRANCH   7  24
BRANCH   1  40
ATOM     40  O   UNL     1       3.944  -3.573  26.139  0.00  0.00    -0.453 OA
BRANCH  40  43
ATOM     41  C   UNL     1       6.121  -6.197  27.409  0.00  0.00    +0.191 C 
ATOM     42  O   UNL     1       5.147  -5.592  26.518  0.00  0.00    -0.330 OA
ATOM     43  C   UNL     1       4.618  -4.380  27.103  0.00  0.00    +0.340 C 
ATOM     44  C   UNL     1       3.663  -4.836  28.225  0.00  0.00    +0.214 C 
ATOM     45  C   UNL     1       4.555  -5.385  29.341  0.00  0.00    +0.180 C 
ATOM     46  C   UNL     1       5.508  -6.476  28.817  0.00  0.00    +0.178 C 
BRANCH  46  47
ATOM     47  O   UNL     1       6.507  -6.710  29.815  0.00  0.00    -0.386 OA
ATOM     48  H   UNL     1       6.464  -7.652  30.059  0.00  0.00    +0.210 HD
ENDBRANCH  46  47
BRANCH  45  49
ATOM     49  O   UNL     1       3.753  -5.915  30.410  0.00  0.00    -0.386 OA
ATOM     50  H   UNL     1       4.129  -6.787  30.627  0.00  0.00    +0.210 HD
ENDBRANCH  45  49
BRANCH  44  51
ATOM     51  O   UNL     1       2.758  -5.845  27.722  0.00  0.00    -0.383 OA
ATOM     52  H   UNL     1       2.360  -5.477  26.912  0.00  0.00    +0.210 HD
ENDBRANCH  44  51
BRANCH  41  53
ATOM     53  C   UNL     1       7.467  -5.423  27.371  0.00  0.00    +0.266 C 
BRANCH  53  54
ATOM     54  O   UNL     1       7.667  -4.790  26.075  0.00  0.00    -0.459 OA
BRANCH  54  55
ATOM     55  C   UNL     1       8.940  -4.358  25.833  0.00  0.00    +0.332 C 
ATOM     56  O   UNL     1       9.952  -5.013  26.028  0.00  0.00    -0.246 OA
BRANCH  55  58
ATOM     57  C   UNL     1       9.564  -2.713  24.155  0.00  0.00    +0.015 C 
ATOM     58  C   UNL     1       8.907  -2.975  25.298  0.00  0.00    +0.092 C 
BRANCH  57  60
ATOM     59  C   UNL     1       9.275  -1.236  22.128  0.00  0.00    +0.011 A 
ATOM     60  C   UNL     1       9.650  -1.413  23.466  0.00  0.00    -0.025 A 
ATOM     61  C   UNL     1      10.215  -0.320  24.151  0.00  0.00    +0.011 A 
ATOM     62  C   UNL     1      10.384   0.915  23.522  0.00  0.00    +0.046 A 
ATOM     63  C   UNL     1      10.005   1.067  22.197  0.00  0.00    +0.117 A 
ATOM     64  C   UNL     1       9.446   0.004  21.494  0.00  0.00    +0.046 A 
BRANCH  63  65
ATOM     65  O   UNL     1      10.211   2.280  21.610  0.00  0.00    -0.507 OA
ATOM     66  H   UNL     1       9.512   2.430  20.952  0.00  0.00    +0.292 HD
ENDBRANCH  63  65
ENDBRANCH  57  60
ENDBRANCH  55  58
ENDBRANCH  54  55
ENDBRANCH  53  54
ENDBRANCH  41  53
ENDBRANCH  40  43
ENDBRANCH   1  40
TORSDOF 22
ENDMDL
MODEL 2
REMARK VINA RESULT:      -7.1      2.168      9.740
REMARK  Name = 
REMARK  22 active torsions:
REMARK  status: ('A' for Active; 'I' for Inactive)
REMARK    1  A    between atoms: C_3  and  O_61
REMARK    2  A    between atoms: C_6  and  C_7
REMARK    3  A    between atoms: C_8  and  C_9
REMARK    4  A    between atoms: C_9  and  O_11
REMARK    5  A    between atoms: O_11  and  C_12
REMARK    6  A    between atoms: C_12  and  C_13
REMARK    7  A    between atoms: C_14  and  O_60
REMARK    8  A    between atoms: C_16  and  O_59
REMARK    9  A    between atoms: C_18  and  O_58
REMARK   10  A    between atoms: C_19  and  O_22
REMARK   11  A    between atoms: O_22  and  C_23
REMARK   12  A    between atoms: C_24  and  C_50
REMARK   13  A    between atoms: C_28  and  O_35
REMARK   14  A    between atoms: C_30  and  O_34
REMARK   15  A    between atoms: O_35  and  C_36
REMARK   16  A    between atoms: C_38  and  O_49
REMARK   17  A    between atoms: C_39  and  O_48
REMARK   18  A    between atoms: C_41  and  O_47
REMARK   19  A    between atoms: C_43  and  C_45
REMARK   20  A    between atoms: C_45  and  O_46
REMARK   21  A    between atoms: C_52  and  O_57
REMARK   22  A    between atoms: C_53  and  O_56
REMARK                            x       y       z     vdW  Elec       q    Type
REMARK                         _______ _______ _______ _____ _____    ______ ____
ROOT
ATOM      1  C   UNL     1       6.786   0.158  26.206  0.00  0.00    +0.214 A 
ATOM      2  C   UNL     1       7.088  -1.303  26.393  0.00  0.00    +0.238 A 
ATOM      3  O   UNL     1       8.233  -1.737  26.432  0.00  0.00    -0.283 OA
ATOM      4  C   UNL     1       5.976  -2.242  26.496  0.00  0.00    +0.109 A 
ATOM      5  C   UNL     1       4.694  -1.751  26.301  0.00  0.00    +0.147 A 
ATOM      6  C   UNL     1       3.609  -2.638  26.360  0.00  0.00    +0.093 A 
ATOM      7  C   UNL     1       3.818  -4.005  26.605  0.00  0.00    +0.131 A 
ATOM      8  C   UNL     1       5.112  -4.486  26.780  0.00  0.00    +0.092 A 
ATOM      9  O   UNL     1       4.434  -0.422  26.049  0.00  0.00    -0.451 OA
ATOM     10  C   UNL     1       6.185  -3.608  26.753  0.00  0.00    +0.135 A 
ATOM     11  C   UNL     1       5.490   0.497  26.021  0.00  0.00    +0.181 A 
ENDROOT
BRANCH  11  12
ATOM     12  C   UNL     1       5.051   1.913  25.787  0.00  0.00    +0.025 A 
ATOM     13  C   UNL     1       5.023   2.838  26.850  0.00  0.00    +0.015 A 
ATOM     14  C   UNL     1       4.650   4.176  26.645  0.00  0.00    +0.050 A 
ATOM     15  C   UNL     1       4.308   4.604  25.373  0.00  0.00    +0.158 A 
ATOM     16  C   UNL     1       4.304   3.709  24.311  0.00  0.00    +0.159 A 
ATOM     17  C   UNL     1       4.646   2.373  24.515  0.00  0.00    +0.060 A 
BRANCH  16  18
ATOM     18  O   UNL     1       3.961   4.189  23.076  0.00  0.00    -0.503 OA
ATOM     19  H   UNL     1       3.209   4.797  23.187  0.00  0.00    +0.292 HD
ENDBRANCH  16  18
BRANCH  15  20
ATOM     20  O   UNL     1       3.979   5.912  25.162  0.00  0.00    -0.503 OA
ATOM     21  H   UNL     1       4.659   6.239  24.540  0.00  0.00    +0.292 HD
ENDBRANCH  15  20
ENDBRANCH  11  12
BRANCH  10  22
ATOM     22  O   UNL     1       7.433  -4.104  27.006  0.00  0.00    -0.506 OA
ATOM     23  H   UNL     1       7.459  -4.574  27.854  0.00  0.00    +0.292 HD
ENDBRANCH  10  22
BRANCH   7  24
ATOM     24  O   UNL     1       2.869  -4.987  26.716  0.00  0.00    -0.461 OA
BRANCH  24  25
ATOM     25  C   UNL     1       3.292  -6.234  27.281  0.00  0.00    +0.339 C 
ATOM     26  O   UNL     1       2.918  -7.334  26.447  0.00  0.00    -0.331 OA
ATOM     27  C   UNL     1       1.496  -7.556  26.364  0.00  0.00    +0.179 C 
ATOM     28  C   UNL     1       0.920  -7.858  27.760  0.00  0.00    +0.177 C 
ATOM     29  C   UNL     1       1.210  -6.677  28.693  0.00  0.00    +0.180 C 
ATOM     30  C   UNL     1       2.712  -6.368  28.710  0.00  0.00    +0.214 C 
BRANCH  30  31
ATOM     31  O   UNL     1       2.957  -5.196  29.502  0.00  0.00    -0.383 OA
ATOM     32  H   UNL     1       3.907  -5.203  29.734  0.00  0.00    +0.210 HD
ENDBRANCH  30  31
BRANCH  29  33
ATOM     33  O   UNL     1       0.443  -5.519  28.328  0.00  0.00    -0.386 OA
ATOM     34  H   UNL     1      -0.480  -5.786  28.164  0.00  0.00    +0.210 HD
ENDBRANCH  29  33
BRANCH  28  35
ATOM     35  O   UNL     1       1.523  -9.048  28.277  0.00  0.00    -0.386 OA
ATOM     36  H   UNL     1       0.844  -9.569  28.740  0.00  0.00    +0.210 HD
ENDBRANCH  28  35
BRANCH  27  37
ATOM     37  C   UNL     1       1.241  -8.719  25.391  0.00  0.00    +0.190 C 
BRANCH  37  38
ATOM     38  O   UNL     1       2.387  -9.566  25.268  0.00  0.00    -0.392 OA
ATOM     39  H   UNL     1       2.100 -10.489  25.360  0.00  0.00    +0.210 HD
ENDBRANCH  37  38
ENDBRANCH  27  37
ENDBRANCH  24  25
ENDBRANCH   7  24
BRANCH   1  40
ATOM     40  O   UNL     1       7.794   1.135  26.210  0.00  0.00    -0.453 OA
BRANCH  40  43
ATOM     41  C   UNL     1      10.553   1.314  23.845  0.00  0.00    +0.191 C 
ATOM     42  O   UNL     1       9.892   1.453  25.131  0.00  0.00    -0.330 OA
ATOM     43  C   UNL     1       8.458   1.362  24.969  0.00  0.00    +0.340 C 
ATOM     44  C   UNL     1       8.022   2.697  24.331  0.00  0.00    +0.214 C 
ATOM     45  C   UNL     1       8.526   2.660  22.887  0.00  0.00    +0.180 C 
ATOM     46  C   UNL     1      10.038   2.374  22.823  0.00  0.00    +0.178 C 
BRANCH  46  47
ATOM     47  O   UNL     1      10.370   2.042  21.471  0.00  0.00    -0.386 OA
ATOM     48  H   UNL     1       9.549   2.079  20.949  0.00  0.00    +0.210 HD
ENDBRANCH  46  47
BRANCH  45  49
ATOM     49  O   UNL     1       8.239   3.902  22.222  0.00  0.00    -0.386 OA
ATOM     50  H   UNL     1       7.769   3.672  21.401  0.00  0.00    +0.210 HD
ENDBRANCH  45  49
BRANCH  44  51
ATOM     51  O   UNL     1       8.594   3.804  25.065  0.00  0.00    -0.383 OA
ATOM     52  H   UNL     1       9.129   4.310  24.426  0.00  0.00    +0.210 HD
ENDBRANCH  44  51
BRANCH  41  53
ATOM     53  C   UNL     1      10.557  -0.167  23.378  0.00  0.00    +0.266 C 
BRANCH  53  54
ATOM     54  O   UNL     1       9.204  -0.706  23.346  0.00  0.00    -0.459 OA
BRANCH  54  55
ATOM     55  C   UNL     1       8.799  -1.180  22.131  0.00  0.00    +0.332 C 
ATOM     56  O   UNL     1       8.922  -0.588  21.070  0.00  0.00    -0.246 OA
BRANCH  55  58
ATOM     57  C   UNL     1       6.923  -2.602  22.744  0.00  0.00    +0.015 C 
ATOM     58  C   UNL     1       8.187  -2.521  22.293  0.00  0.00    +0.092 C 
BRANCH  57  60
ATOM     59  C   UNL     1       4.744  -3.860  22.948  0.00  0.00    +0.011 A 
ATOM     60  C   UNL     1       6.145  -3.833  22.969  0.00  0.00    -0.025 A 
ATOM     61  C   UNL     1       6.831  -5.014  23.308  0.00  0.00    +0.011 A 
ATOM     62  C   UNL     1       6.138  -6.190  23.602  0.00  0.00    +0.046 A 
ATOM     63  C   UNL     1       4.751  -6.194  23.574  0.00  0.00    +0.117 A 
ATOM     64  C   UNL     1       4.047  -5.041  23.243  0.00  0.00    +0.046 A 
BRANCH  63  65
ATOM     65  O   UNL     1       4.110  -7.355  23.891  0.00  0.00    -0.507 OA
ATOM     66  H   UNL     1       4.357  -7.609  24.796  0.00  0.00    +0.292 HD
ENDBRANCH  63  65
ENDBRANCH  57  60
ENDBRANCH  55  58
ENDBRANCH  54  55
ENDBRANCH  53  54
ENDBRANCH  41  53
ENDBRANCH  40  43
ENDBRANCH   1  40
TORSDOF 22
ENDMDL
MODEL 3
REMARK VINA RESULT:      -7.0      1.946      9.659
REMARK  Name = 
REMARK  22 active torsions:
REMARK  status: ('A' for Active; 'I' for Inactive)
REMARK    1  A    between atoms: C_3  and  O_61
REMARK    2  A    between atoms: C_6  and  C_7
REMARK    3  A    between atoms: C_8  and  C_9
REMARK    4  A    between atoms: C_9  and  O_11
REMARK    5  A    between atoms: O_11  and  C_12
REMARK    6  A    between atoms: C_12  and  C_13
REMARK    7  A    between atoms: C_14  and  O_60
REMARK    8  A    between atoms: C_16  and  O_59
REMARK    9  A    between atoms: C_18  and  O_58
REMARK   10  A    between atoms: C_19  and  O_22
REMARK   11  A    between atoms: O_22  and  C_23
REMARK   12  A    between atoms: C_24  and  C_50
REMARK   13  A    between atoms: C_28  and  O_35
REMARK   14  A    between atoms: C_30  and  O_34
REMARK   15  A    between atoms: O_35  and  C_36
REMARK   16  A    between atoms: C_38  and  O_49
REMARK   17  A    between atoms: C_39  and  O_48
REMARK   18  A    between atoms: C_41  and  O_47
REMARK   19  A    between atoms: C_43  and  C_45
REMARK   20  A    between atoms: C_45  and  O_46
REMARK   21  A    between atoms: C_52  and  O_57
REMARK   22  A    between atoms: C_53  and  O_56
REMARK                            x       y       z     vdW  Elec       q    Type
REMARK                         _______ _______ _______ _____ _____    ______ ____
ROOT
ATOM      1  C   UNL     1       6.264   2.157  24.880  0.00  0.00    +0.214 A 
ATOM      2  C   UNL     1       6.291   1.132  23.780  0.00  0.00    +0.238 A 
ATOM      3  O   UNL     1       6.516   1.429  22.612  0.00  0.00    -0.283 OA
ATOM      4  C   UNL     1       6.004  -0.259  24.110  0.00  0.00    +0.109 A 
ATOM      5  C   UNL     1       5.608  -0.550  25.406  0.00  0.00    +0.147 A 
ATOM      6  C   UNL     1       5.293  -1.874  25.742  0.00  0.00    +0.093 A 
ATOM      7  C   UNL     1       5.370  -2.892  24.777  0.00  0.00    +0.131 A 
ATOM      8  C   UNL     1       5.752  -2.582  23.474  0.00  0.00    +0.092 A 
ATOM      9  O   UNL     1       5.507   0.412  26.388  0.00  0.00    -0.451 OA
ATOM     10  C   UNL     1       6.094  -1.279  23.147  0.00  0.00    +0.135 A 
ATOM     11  C   UNL     1       5.851   1.737  26.097  0.00  0.00    +0.181 A 
ENDROOT
BRANCH  11  12
ATOM     12  C   UNL     1       5.742   2.660  27.276  0.00  0.00    +0.025 A 
ATOM     13  C   UNL     1       6.862   2.915  28.092  0.00  0.00    +0.015 A 
ATOM     14  C   UNL     1       6.789   3.802  29.178  0.00  0.00    +0.050 A 
ATOM     15  C   UNL     1       5.597   4.451  29.452  0.00  0.00    +0.158 A 
ATOM     16  C   UNL     1       4.471   4.202  28.679  0.00  0.00    +0.159 A 
ATOM     17  C   UNL     1       4.530   3.300  27.618  0.00  0.00    +0.060 A 
BRANCH  16  18
ATOM     18  O   UNL     1       3.321   4.875  28.995  0.00  0.00    -0.503 OA
ATOM     19  H   UNL     1       3.570   5.737  29.371  0.00  0.00    +0.292 HD
ENDBRANCH  16  18
BRANCH  15  20
ATOM     20  O   UNL     1       5.531   5.342  30.484  0.00  0.00    -0.503 OA
ATOM     21  H   UNL     1       5.313   6.195  30.059  0.00  0.00    +0.292 HD
ENDBRANCH  15  20
ENDBRANCH  11  12
BRANCH  10  22
ATOM     22  O   UNL     1       6.538  -1.027  21.879  0.00  0.00    -0.506 OA
ATOM     23  H   UNL     1       5.799  -0.845  21.277  0.00  0.00    +0.292 HD
ENDBRANCH  10  22
BRANCH   7  24
ATOM     24  O   UNL     1       5.120  -4.228  24.952  0.00  0.00    -0.461 OA
BRANCH  24  25
ATOM     25  C   UNL     1       3.810  -4.586  25.407  0.00  0.00    +0.339 C 
ATOM     26  O   UNL     1       3.857  -5.179  26.707  0.00  0.00    -0.331 OA
ATOM     27  C   UNL     1       4.507  -6.465  26.747  0.00  0.00    +0.179 C 
ATOM     28  C   UNL     1       3.764  -7.467  25.844  0.00  0.00    +0.177 C 
ATOM     29  C   UNL     1       3.746  -6.936  24.406  0.00  0.00    +0.180 C 
ATOM     30  C   UNL     1       3.148  -5.523  24.368  0.00  0.00    +0.214 C 
BRANCH  30  31
ATOM     31  O   UNL     1       3.235  -4.996  23.036  0.00  0.00    -0.383 OA
ATOM     32  H   UNL     1       3.431  -4.042  23.119  0.00  0.00    +0.210 HD
ENDBRANCH  30  31
BRANCH  29  33
ATOM     33  O   UNL     1       5.056  -6.963  23.821  0.00  0.00    -0.386 OA
ATOM     34  H   UNL     1       4.996  -6.682  22.889  0.00  0.00    +0.210 HD
ENDBRANCH  29  33
BRANCH  28  35
ATOM     35  O   UNL     1       2.424  -7.634  26.319  0.00  0.00    -0.386 OA
ATOM     36  H   UNL     1       2.302  -7.089  27.115  0.00  0.00    +0.210 HD
ENDBRANCH  28  35
BRANCH  27  37
ATOM     37  C   UNL     1       4.542  -6.948  28.207  0.00  0.00    +0.190 C 
BRANCH  37  38
ATOM     38  O   UNL     1       5.649  -7.821  28.448  0.00  0.00    -0.392 OA
ATOM     39  H   UNL     1       5.687  -8.476  27.733  0.00  0.00    +0.210 HD
ENDBRANCH  37  38
ENDBRANCH  27  37
ENDBRANCH  24  25
ENDBRANCH   7  24
BRANCH   1  40
ATOM     40  O   UNL     1       6.637   3.493  24.665  0.00  0.00    -0.453 OA
BRANCH  40  43
ATOM     41  C   UNL     1      10.140   2.777  23.992  0.00  0.00    +0.191 C 
ATOM     42  O   UNL     1       8.906   2.779  24.758  0.00  0.00    -0.330 OA
ATOM     43  C   UNL     1       7.961   3.710  24.182  0.00  0.00    +0.340 C 
ATOM     44  C   UNL     1       8.475   5.116  24.554  0.00  0.00    +0.214 C 
ATOM     45  C   UNL     1       9.729   5.345  23.709  0.00  0.00    +0.180 C 
ATOM     46  C   UNL     1      10.753   4.209  23.896  0.00  0.00    +0.178 C 
BRANCH  46  47
ATOM     47  O   UNL     1      11.733   4.319  22.860  0.00  0.00    -0.386 OA
ATOM     48  H   UNL     1      12.491   3.761  23.111  0.00  0.00    +0.210 HD
ENDBRANCH  46  47
BRANCH  45  49
ATOM     49  O   UNL     1      10.337   6.604  24.041  0.00  0.00    -0.386 OA
ATOM     50  H   UNL     1      11.123   6.688  23.472  0.00  0.00    +0.210 HD
ENDBRANCH  45  49
BRANCH  44  51
ATOM     51  O   UNL     1       8.770   5.173  25.969  0.00  0.00    -0.383 OA
ATOM     52  H   UNL     1       8.610   6.095  26.245  0.00  0.00    +0.210 HD
ENDBRANCH  44  51
BRANCH  41  53
ATOM     53  C   UNL     1       9.967   1.998  22.659  0.00  0.00    +0.266 C 
BRANCH  53  54
ATOM     54  O   UNL     1      10.633   0.704  22.722  0.00  0.00    -0.459 OA
BRANCH  54  55
ATOM     55  C   UNL     1       9.868  -0.359  22.337  0.00  0.00    +0.332 C 
ATOM     56  O   UNL     1       9.586  -0.639  21.181  0.00  0.00    -0.246 OA
BRANCH  55  58
ATOM     57  C   UNL     1       9.496  -2.466  23.493  0.00  0.00    +0.015 C 
ATOM     58  C   UNL     1       9.432  -1.123  23.530  0.00  0.00    +0.092 C 
BRANCH  57  60
ATOM     59  C   UNL     1       8.922  -4.768  24.357  0.00  0.00    +0.011 A 
ATOM     60  C   UNL     1       9.114  -3.396  24.570  0.00  0.00    -0.025 A 
ATOM     61  C   UNL     1       8.841  -2.875  25.849  0.00  0.00    +0.011 A 
ATOM     62  C   UNL     1       8.406  -3.703  26.886  0.00  0.00    +0.046 A 
ATOM     63  C   UNL     1       8.224  -5.057  26.652  0.00  0.00    +0.117 A 
ATOM     64  C   UNL     1       8.484  -5.600  25.397  0.00  0.00    +0.046 A 
BRANCH  63  65
ATOM     65  O   UNL     1       7.774  -5.828  27.683  0.00  0.00    -0.507 OA
ATOM     66  H   UNL     1       6.862  -5.567  27.891  0.00  0.00    +0.292 HD
ENDBRANCH  63  65
ENDBRANCH  57  60
ENDBRANCH  55  58
ENDBRANCH  54  55
ENDBRANCH  53  54
ENDBRANCH  41  53
ENDBRANCH  40  43
ENDBRANCH   1  40
TORSDOF 22
ENDMDL
MODEL 4
REMARK VINA RESULT:      -7.0      1.716      3.160
REMARK  Name = 
REMARK  22 active torsions:
REMARK  status: ('A' for Active; 'I' for Inactive)
REMARK    1  A    between atoms: C_3  and  O_61
REMARK    2  A    between atoms: C_6  and  C_7
REMARK    3  A    between atoms: C_8  and  C_9
REMARK    4  A    between atoms: C_9  and  O_11
REMARK    5  A    between atoms: O_11  and  C_12
REMARK    6  A    between atoms: C_12  and  C_13
REMARK    7  A    between atoms: C_14  and  O_60
REMARK    8  A    between atoms: C_16  and  O_59
REMARK    9  A    between atoms: C_18  and  O_58
REMARK   10  A    between atoms: C_19  and  O_22
REMARK   11  A    between atoms: O_22  and  C_23
REMARK   12  A    between atoms: C_24  and  C_50
REMARK   13  A    between atoms: C_28  and  O_35
REMARK   14  A    between atoms: C_30  and  O_34
REMARK   15  A    between atoms: O_35  and  C_36
REMARK   16  A    between atoms: C_38  and  O_49
REMARK   17  A    between atoms: C_39  and  O_48
REMARK   18  A    between atoms: C_41  and  O_47
REMARK   19  A    between atoms: C_43  and  C_45
REMARK   20  A    between atoms: C_45  and  O_46
REMARK   21  A    between atoms: C_52  and  O_57
REMARK   22  A    between atoms: C_53  and  O_56
REMARK                            x       y       z     vdW  Elec       q    Type
REMARK                         _______ _______ _______ _____ _____    ______ ____
ROOT
ATOM      1  C   UNL     1       5.275  -2.311  26.409  0.00  0.00    +0.214 A 
ATOM      2  C   UNL     1       4.360  -1.119  26.435  0.00  0.00    +0.238 A 
ATOM      3  O   UNL     1       3.195  -1.194  26.808  0.00  0.00    -0.283 OA
ATOM      4  C   UNL     1       4.868   0.167  25.969  0.00  0.00    +0.109 A 
ATOM      5  C   UNL     1       6.138   0.199  25.415  0.00  0.00    +0.147 A 
ATOM      6  C   UNL     1       6.638   1.415  24.927  0.00  0.00    +0.093 A 
ATOM      7  C   UNL     1       5.860   2.582  24.990  0.00  0.00    +0.131 A 
ATOM      8  C   UNL     1       4.578   2.531  25.532  0.00  0.00    +0.092 A 
ATOM      9  O   UNL     1       6.939  -0.918  25.320  0.00  0.00    -0.451 OA
ATOM     10  C   UNL     1       4.093   1.337  26.044  0.00  0.00    +0.135 A 
ATOM     11  C   UNL     1       6.487  -2.140  25.832  0.00  0.00    +0.181 A 
ENDROOT
BRANCH  11  12
ATOM     12  C   UNL     1       7.485  -3.253  25.705  0.00  0.00    +0.025 A 
ATOM     13  C   UNL     1       8.414  -3.502  26.735  0.00  0.00    +0.015 A 
ATOM     14  C   UNL     1       9.333  -4.561  26.650  0.00  0.00    +0.050 A 
ATOM     15  C   UNL     1       9.326  -5.386  25.538  0.00  0.00    +0.158 A 
ATOM     16  C   UNL     1       8.438  -5.150  24.498  0.00  0.00    +0.159 A 
ATOM     17  C   UNL     1       7.543  -4.083  24.564  0.00  0.00    +0.060 A 
BRANCH  16  18
ATOM     18  O   UNL     1       8.473  -6.000  23.425  0.00  0.00    -0.503 OA
ATOM     19  H   UNL     1       9.207  -6.625  23.561  0.00  0.00    +0.292 HD
ENDBRANCH  16  18
BRANCH  15  20
ATOM     20  O   UNL     1      10.193  -6.438  25.468  0.00  0.00    -0.503 OA
ATOM     21  H   UNL     1      10.311  -6.596  24.510  0.00  0.00    +0.292 HD
ENDBRANCH  15  20
ENDBRANCH  11  12
BRANCH  10  22
ATOM     22  O   UNL     1       2.862   1.342  26.638  0.00  0.00    -0.506 OA
ATOM     23  H   UNL     1       2.938   1.403  27.603  0.00  0.00    +0.292 HD
ENDBRANCH  10  22
BRANCH   7  24
ATOM     24  O   UNL     1       6.211   3.842  24.581  0.00  0.00    -0.461 OA
BRANCH  24  25
ATOM     25  C   UNL     1       6.863   3.952  23.311  0.00  0.00    +0.339 C 
ATOM     26  O   UNL     1       8.132   4.600  23.433  0.00  0.00    -0.331 OA
ATOM     27  C   UNL     1       8.051   5.990  23.804  0.00  0.00    +0.179 C 
ATOM     28  C   UNL     1       7.264   6.781  22.742  0.00  0.00    +0.177 C 
ATOM     29  C   UNL     1       5.854   6.193  22.615  0.00  0.00    +0.180 C 
ATOM     30  C   UNL     1       5.930   4.689  22.321  0.00  0.00    +0.214 C 
BRANCH  30  31
ATOM     31  O   UNL     1       4.608   4.130  22.310  0.00  0.00    -0.383 OA
ATOM     32  H   UNL     1       4.550   3.551  21.525  0.00  0.00    +0.210 HD
ENDBRANCH  30  31
BRANCH  29  33
ATOM     33  O   UNL     1       5.068   6.456  23.787  0.00  0.00    -0.386 OA
ATOM     34  H   UNL     1       5.612   6.943  24.433  0.00  0.00    +0.210 HD
ENDBRANCH  29  33
BRANCH  28  35
ATOM     35  O   UNL     1       7.943   6.698  21.485  0.00  0.00    -0.386 OA
ATOM     36  H   UNL     1       7.337   6.321  20.824  0.00  0.00    +0.210 HD
ENDBRANCH  28  35
BRANCH  27  37
ATOM     37  C   UNL     1       9.480   6.536  23.961  0.00  0.00    +0.190 C 
BRANCH  37  38
ATOM     38  O   UNL     1      10.367   5.983  22.985  0.00  0.00    -0.392 OA
ATOM     39  H   UNL     1      10.820   5.219  23.377  0.00  0.00    +0.210 HD
ENDBRANCH  37  38
ENDBRANCH  27  37
ENDBRANCH  24  25
ENDBRANCH   7  24
BRANCH   1  40
ATOM     40  O   UNL     1       4.900  -3.553  26.943  0.00  0.00    -0.453 OA
BRANCH  40  43
ATOM     41  C   UNL     1       3.376  -4.872  23.913  0.00  0.00    +0.191 C 
ATOM     42  O   UNL     1       3.527  -3.972  25.044  0.00  0.00    -0.330 OA
ATOM     43  C   UNL     1       4.446  -4.531  26.009  0.00  0.00    +0.340 C 
ATOM     44  C   UNL     1       3.678  -5.670  26.711  0.00  0.00    +0.214 C 
ATOM     45  C   UNL     1       3.551  -6.793  25.680  0.00  0.00    +0.180 C 
ATOM     46  C   UNL     1       2.912  -6.289  24.372  0.00  0.00    +0.178 C 
BRANCH  46  47
ATOM     47  O   UNL     1       3.114  -7.286  23.366  0.00  0.00    -0.386 OA
ATOM     48  H   UNL     1       3.090  -6.840  22.500  0.00  0.00    +0.210 HD
ENDBRANCH  46  47
BRANCH  45  49
ATOM     49  O   UNL     1       2.774  -7.879  26.212  0.00  0.00    -0.386 OA
ATOM     50  H   UNL     1       3.101  -8.688  25.779  0.00  0.00    +0.210 HD
ENDBRANCH  45  49
BRANCH  44  51
ATOM     51  O   UNL     1       2.382  -5.196  27.144  0.00  0.00    -0.383 OA
ATOM     52  H   UNL     1       2.301  -5.440  28.084  0.00  0.00    +0.210 HD
ENDBRANCH  44  51
BRANCH  41  53
ATOM     53  C   UNL     1       4.617  -4.807  22.981  0.00  0.00    +0.266 C 
BRANCH  53  54
ATOM     54  O   UNL     1       4.943  -3.429  22.642  0.00  0.00    -0.459 OA
BRANCH  54  55
ATOM     55  C   UNL     1       6.071  -3.270  21.891  0.00  0.00    +0.332 C 
ATOM     56  O   UNL     1       6.507  -4.089  21.095  0.00  0.00    -0.246 OA
BRANCH  55  58
ATOM     57  C   UNL     1       8.030  -1.860  22.192  0.00  0.00    +0.015 C 
ATOM     58  C   UNL     1       6.689  -1.954  22.184  0.00  0.00    +0.092 C 
BRANCH  57  60
ATOM     59  C   UNL     1       9.671  -0.525  23.570  0.00  0.00    +0.011 A 
ATOM     60  C   UNL     1       8.827  -0.650  22.458  0.00  0.00    -0.025 A 
ATOM     61  C   UNL     1       8.669   0.464  21.612  0.00  0.00    +0.011 A 
ATOM     62  C   UNL     1       9.346   1.660  21.860  0.00  0.00    +0.046 A 
ATOM     63  C   UNL     1      10.176   1.760  22.966  0.00  0.00    +0.117 A 
ATOM     64  C   UNL     1      10.351   0.676  23.821  0.00  0.00    +0.046 A 
BRANCH  63  65
ATOM     65  O   UNL     1      10.800   2.952  23.189  0.00  0.00    -0.507 OA
ATOM     66  H   UNL     1      10.147   3.585  23.531  0.00  0.00    +0.292 HD
ENDBRANCH  63  65
ENDBRANCH  57  60
ENDBRANCH  55  58
ENDBRANCH  54  55
ENDBRANCH  53  54
ENDBRANCH  41  53
ENDBRANCH  40  43
ENDBRANCH   1  40
TORSDOF 22
ENDMDL
MODEL 5
REMARK VINA RESULT:      -6.8      2.083      9.608
REMARK  Name = 
REMARK  22 active torsions:
REMARK  status: ('A' for Active; 'I' for Inactive)
REMARK    1  A    between atoms: C_3  and  O_61
REMARK    2  A    between atoms: C_6  and  C_7
REMARK    3  A    between atoms: C_8  and  C_9
REMARK    4  A    between atoms: C_9  and  O_11
REMARK    5  A    between atoms: O_11  and  C_12
REMARK    6  A    between atoms: C_12  and  C_13
REMARK    7  A    between atoms: C_14  and  O_60
REMARK    8  A    between atoms: C_16  and  O_59
REMARK    9  A    between atoms: C_18  and  O_58
REMARK   10  A    between atoms: C_19  and  O_22
REMARK   11  A    between atoms: O_22  and  C_23
REMARK   12  A    between atoms: C_24  and  C_50
REMARK   13  A    between atoms: C_28  and  O_35
REMARK   14  A    between atoms: C_30  and  O_34
REMARK   15  A    between atoms: O_35  and  C_36
REMARK   16  A    between atoms: C_38  and  O_49
REMARK   17  A    between atoms: C_39  and  O_48
REMARK   18  A    between atoms: C_41  and  O_47
REMARK   19  A    between atoms: C_43  and  C_45
REMARK   20  A    between atoms: C_45  and  O_46
REMARK   21  A    between atoms: C_52  and  O_57
REMARK   22  A    between atoms: C_53  and  O_56
REMARK                            x       y       z     vdW  Elec       q    Type
REMARK                         _______ _______ _______ _____ _____    ______ ____
ROOT
ATOM      1  C   UNL     1       6.767   1.298  26.569  0.00  0.00    +0.214 A 
ATOM      2  C   UNL     1       7.422  -0.049  26.435  0.00  0.00    +0.238 A 
ATOM      3  O   UNL     1       8.626  -0.178  26.249  0.00  0.00    -0.283 OA
ATOM      4  C   UNL     1       6.588  -1.244  26.496  0.00  0.00    +0.109 A 
ATOM      5  C   UNL     1       5.214  -1.073  26.559  0.00  0.00    +0.147 A 
ATOM      6  C   UNL     1       4.386  -2.205  26.584  0.00  0.00    +0.093 A 
ATOM      7  C   UNL     1       4.940  -3.494  26.536  0.00  0.00    +0.131 A 
ATOM      8  C   UNL     1       6.321  -3.651  26.454  0.00  0.00    +0.092 A 
ATOM      9  O   UNL     1       4.618   0.169  26.598  0.00  0.00    -0.451 OA
ATOM     10  C   UNL     1       7.144  -2.535  26.462  0.00  0.00    +0.135 A 
ATOM     11  C   UNL     1       5.416   1.319  26.614  0.00  0.00    +0.181 A 
ENDROOT
BRANCH  11  12
ATOM     12  C   UNL     1       4.631   2.595  26.710  0.00  0.00    +0.025 A 
ATOM     13  C   UNL     1       4.531   3.283  27.936  0.00  0.00    +0.015 A 
ATOM     14  C   UNL     1       3.831   4.496  28.039  0.00  0.00    +0.050 A 
ATOM     15  C   UNL     1       3.232   5.038  26.914  0.00  0.00    +0.158 A 
ATOM     16  C   UNL     1       3.295   4.371  25.698  0.00  0.00    +0.159 A 
ATOM     17  C   UNL     1       3.964   3.152  25.597  0.00  0.00    +0.060 A 
BRANCH  16  18
ATOM     18  O   UNL     1       2.688   4.956  24.619  0.00  0.00    -0.503 OA
ATOM     19  H   UNL     1       3.378   5.376  24.076  0.00  0.00    +0.292 HD
ENDBRANCH  16  18
BRANCH  15  20
ATOM     20  O   UNL     1       2.582   6.235  27.001  0.00  0.00    -0.503 OA
ATOM     21  H   UNL     1       2.224   6.254  27.912  0.00  0.00    +0.292 HD
ENDBRANCH  15  20
ENDBRANCH  11  12
BRANCH  10  22
ATOM     22  O   UNL     1       8.497  -2.729  26.458  0.00  0.00    -0.506 OA
ATOM     23  H   UNL     1       8.884  -2.522  27.323  0.00  0.00    +0.292 HD
ENDBRANCH  10  22
BRANCH   7  24
ATOM     24  O   UNL     1       4.274  -4.691  26.576  0.00  0.00    -0.461 OA
BRANCH  24  25
ATOM     25  C   UNL     1       4.681  -5.689  25.633  0.00  0.00    +0.339 C 
ATOM     26  O   UNL     1       3.925  -5.599  24.423  0.00  0.00    -0.331 OA
ATOM     27  C   UNL     1       2.531  -5.936  24.571  0.00  0.00    +0.179 C 
ATOM     28  C   UNL     1       2.382  -7.387  25.066  0.00  0.00    +0.177 C 
ATOM     29  C   UNL     1       3.102  -7.540  26.410  0.00  0.00    +0.180 C 
ATOM     30  C   UNL     1       4.562  -7.087  26.287  0.00  0.00    +0.214 C 
BRANCH  30  31
ATOM     31  O   UNL     1       5.195  -7.134  27.575  0.00  0.00    -0.383 OA
ATOM     32  H   UNL     1       4.499  -7.348  28.226  0.00  0.00    +0.210 HD
ENDBRANCH  30  31
BRANCH  29  33
ATOM     33  O   UNL     1       2.421  -6.827  27.454  0.00  0.00    -0.386 OA
ATOM     34  H   UNL     1       2.662  -5.883  27.405  0.00  0.00    +0.210 HD
ENDBRANCH  29  33
BRANCH  28  35
ATOM     35  O   UNL     1       2.952  -8.280  24.103  0.00  0.00    -0.386 OA
ATOM     36  H   UNL     1       2.968  -7.839  23.236  0.00  0.00    +0.210 HD
ENDBRANCH  28  35
BRANCH  27  37
ATOM     37  C   UNL     1       1.834  -5.734  23.216  0.00  0.00    +0.190 C 
BRANCH  37  38
ATOM     38  O   UNL     1       2.484  -6.466  22.173  0.00  0.00    -0.392 OA
ATOM     39  H   UNL     1       2.338  -6.002  21.333  0.00  0.00    +0.210 HD
ENDBRANCH  37  38
ENDBRANCH  27  37
ENDBRANCH  24  25
ENDBRANCH   7  24
BRANCH   1  40
ATOM     40  O   UNL     1       7.511   2.486  26.633  0.00  0.00    -0.453 OA
BRANCH  40  43
ATOM     41  C   UNL     1       8.943   3.599  23.479  0.00  0.00    +0.191 C 
ATOM     42  O   UNL     1       8.953   3.161  24.864  0.00  0.00    -0.330 OA
ATOM     43  C   UNL     1       7.621   3.228  25.420  0.00  0.00    +0.340 C 
ATOM     44  C   UNL     1       7.335   4.727  25.646  0.00  0.00    +0.214 C 
ATOM     45  C   UNL     1       7.149   5.337  24.255  0.00  0.00    +0.180 C 
ATOM     46  C   UNL     1       8.353   5.036  23.341  0.00  0.00    +0.178 C 
BRANCH  46  47
ATOM     47  O   UNL     1       7.977   5.351  21.997  0.00  0.00    -0.386 OA
ATOM     48  H   UNL     1       8.796   5.505  21.491  0.00  0.00    +0.210 HD
ENDBRANCH  46  47
BRANCH  45  49
ATOM     49  O   UNL     1       6.957   6.758  24.351  0.00  0.00    -0.386 OA
ATOM     50  H   UNL     1       6.051   6.934  24.038  0.00  0.00    +0.210 HD
ENDBRANCH  45  49
BRANCH  44  51
ATOM     51  O   UNL     1       8.440   5.338  26.351  0.00  0.00    -0.383 OA
ATOM     52  H   UNL     1       9.237   5.160  25.818  0.00  0.00    +0.210 HD
ENDBRANCH  44  51
BRANCH  41  53
ATOM     53  C   UNL     1       8.347   2.504  22.552  0.00  0.00    +0.266 C 
BRANCH  53  54
ATOM     54  O   UNL     1       9.400   1.680  21.975  0.00  0.00    -0.459 OA
BRANCH  54  55
ATOM     55  C   UNL     1       9.688   0.540  22.669  0.00  0.00    +0.332 C 
ATOM     56  O   UNL     1      10.562   0.436  23.516  0.00  0.00    -0.246 OA
BRANCH  55  58
ATOM     57  C   UNL     1       8.548  -1.567  23.091  0.00  0.00    +0.015 C 
ATOM     58  C   UNL     1       8.780  -0.552  22.240  0.00  0.00    +0.092 C 
BRANCH  57  60
ATOM     59  C   UNL     1       8.093  -4.050  23.112  0.00  0.00    +0.011 A 
ATOM     60  C   UNL     1       7.683  -2.735  22.854  0.00  0.00    -0.025 A 
ATOM     61  C   UNL     1       6.423  -2.534  22.258  0.00  0.00    +0.011 A 
ATOM     62  C   UNL     1       5.593  -3.613  21.946  0.00  0.00    +0.046 A 
ATOM     63  C   UNL     1       6.020  -4.905  22.211  0.00  0.00    +0.117 A 
ATOM     64  C   UNL     1       7.261  -5.134  22.797  0.00  0.00    +0.046 A 
BRANCH  63  65
ATOM     65  O   UNL     1       5.193  -5.934  21.868  0.00  0.00    -0.507 OA
ATOM     66  H   UNL     1       5.717  -6.619  21.423  0.00  0.00    +0.292 HD
ENDBRANCH  63  65
ENDBRANCH  57  60
ENDBRANCH  55  58
ENDBRANCH  54  55
ENDBRANCH  53  54
ENDBRANCH  41  53
ENDBRANCH  40  43
ENDBRANCH   1  40
TORSDOF 22
ENDMDL
MODEL 6
REMARK VINA RESULT:      -6.8      2.052      4.048
REMARK  Name = 
REMARK  22 active torsions:
REMARK  status: ('A' for Active; 'I' for Inactive)
REMARK    1  A    between atoms: C_3  and  O_61
REMARK    2  A    between atoms: C_6  and  C_7
REMARK    3  A    between atoms: C_8  and  C_9
REMARK    4  A    between atoms: C_9  and  O_11
REMARK    5  A    between atoms: O_11  and  C_12
REMARK    6  A    between atoms: C_12  and  C_13
REMARK    7  A    between atoms: C_14  and  O_60
REMARK    8  A    between atoms: C_16  and  O_59
REMARK    9  A    between atoms: C_18  and  O_58
REMARK   10  A    between atoms: C_19  and  O_22
REMARK   11  A    between atoms: O_22  and  C_23
REMARK   12  A    between atoms: C_24  and  C_50
REMARK   13  A    between atoms: C_28  and  O_35
REMARK   14  A    between atoms: C_30  and  O_34
REMARK   15  A    between atoms: O_35  and  C_36
REMARK   16  A    between atoms: C_38  and  O_49
REMARK   17  A    between atoms: C_39  and  O_48
REMARK   18  A    between atoms: C_41  and  O_47
REMARK   19  A    between atoms: C_43  and  C_45
REMARK   20  A    between atoms: C_45  and  O_46
REMARK   21  A    between atoms: C_52  and  O_57
REMARK   22  A    between atoms: C_53  and  O_56
REMARK                            x       y       z     vdW  Elec       q    Type
REMARK                         _______ _______ _______ _____ _____    ______ ____
ROOT
ATOM      1  C   UNL     1       6.111  -1.824  26.697  0.00  0.00    +0.214 A 
ATOM      2  C   UNL     1       6.925  -0.562  26.615  0.00  0.00    +0.238 A 
ATOM      3  O   UNL     1       8.082  -0.501  27.015  0.00  0.00    -0.283 OA
ATOM      4  C   UNL     1       6.303   0.640  26.072  0.00  0.00    +0.109 A 
ATOM      5  C   UNL     1       4.953   0.588  25.763  0.00  0.00    +0.147 A 
ATOM      6  C   UNL     1       4.321   1.740  25.272  0.00  0.00    +0.093 A 
ATOM      7  C   UNL     1       5.045   2.932  25.102  0.00  0.00    +0.131 A 
ATOM      8  C   UNL     1       6.396   2.974  25.434  0.00  0.00    +0.092 A 
ATOM      9  O   UNL     1       4.195  -0.552  25.920  0.00  0.00    -0.451 OA
ATOM     10  C   UNL     1       7.031   1.829  25.890  0.00  0.00    +0.135 A 
ATOM     11  C   UNL     1       4.802  -1.730  26.372  0.00  0.00    +0.181 A 
ENDROOT
BRANCH  11  12
ATOM     12  C   UNL     1       3.866  -2.901  26.443  0.00  0.00    +0.025 A 
ATOM     13  C   UNL     1       3.261  -3.406  25.274  0.00  0.00    +0.015 A 
ATOM     14  C   UNL     1       2.410  -4.522  25.315  0.00  0.00    +0.050 A 
ATOM     15  C   UNL     1       2.163  -5.150  26.525  0.00  0.00    +0.158 A 
ATOM     16  C   UNL     1       2.726  -4.661  27.695  0.00  0.00    +0.159 A 
ATOM     17  C   UNL     1       3.549  -3.535  27.664  0.00  0.00    +0.060 A 
BRANCH  16  18
ATOM     18  O   UNL     1       2.450  -5.324  28.860  0.00  0.00    -0.503 OA
ATOM     19  H   UNL     1       3.039  -6.096  28.914  0.00  0.00    +0.292 HD
ENDBRANCH  16  18
BRANCH  15  20
ATOM     20  O   UNL     1       1.365  -6.257  26.563  0.00  0.00    -0.503 OA
ATOM     21  H   UNL     1       1.043  -6.296  27.486  0.00  0.00    +0.292 HD
ENDBRANCH  15  20
ENDBRANCH  11  12
BRANCH  10  22
ATOM     22  O   UNL     1       8.375   1.888  26.132  0.00  0.00    -0.506 OA
ATOM     23  H   UNL     1       8.706   2.796  26.055  0.00  0.00    +0.292 HD
ENDBRANCH  10  22
BRANCH   7  24
ATOM     24  O   UNL     1       4.582   4.126  24.614  0.00  0.00    -0.461 OA
BRANCH  24  25
ATOM     25  C   UNL     1       4.543   4.270  23.189  0.00  0.00    +0.339 C 
ATOM     26  O   UNL     1       5.744   4.868  22.695  0.00  0.00    -0.331 OA
ATOM     27  C   UNL     1       5.926   6.243  23.090  0.00  0.00    +0.179 C 
ATOM     28  C   UNL     1       4.765   7.108  22.563  0.00  0.00    +0.177 C 
ATOM     29  C   UNL     1       3.441   6.574  23.122  0.00  0.00    +0.180 C 
ATOM     30  C   UNL     1       3.287   5.084  22.794  0.00  0.00    +0.214 C 
BRANCH  30  31
ATOM     31  O   UNL     1       2.097   4.572  23.413  0.00  0.00    -0.383 OA
ATOM     32  H   UNL     1       2.292   3.654  23.688  0.00  0.00    +0.210 HD
ENDBRANCH  30  31
BRANCH  29  33
ATOM     33  O   UNL     1       3.336   6.810  24.535  0.00  0.00    -0.386 OA
ATOM     34  H   UNL     1       3.437   7.765  24.707  0.00  0.00    +0.210 HD
ENDBRANCH  29  33
BRANCH  28  35
ATOM     35  O   UNL     1       4.746   7.058  21.133  0.00  0.00    -0.386 OA
ATOM     36  H   UNL     1       3.835   7.211  20.825  0.00  0.00    +0.210 HD
ENDBRANCH  28  35
BRANCH  27  37
ATOM     37  C   UNL     1       7.278   6.731  22.547  0.00  0.00    +0.190 C 
BRANCH  37  38
ATOM     38  O   UNL     1       7.486   6.314  21.195  0.00  0.00    -0.392 OA
ATOM     39  H   UNL     1       7.371   5.351  21.148  0.00  0.00    +0.210 HD
ENDBRANCH  37  38
ENDBRANCH  27  37
ENDBRANCH  24  25
ENDBRANCH   7  24
BRANCH   1  40
ATOM     40  O   UNL     1       6.668  -3.047  27.102  0.00  0.00    -0.453 OA
BRANCH  40  43
ATOM     41  C   UNL     1       6.833  -5.777  24.703  0.00  0.00    +0.191 C 
ATOM     42  O   UNL     1       6.519  -5.134  25.967  0.00  0.00    -0.330 OA
ATOM     43  C   UNL     1       7.209  -3.868  26.069  0.00  0.00    +0.340 C 
ATOM     44  C   UNL     1       8.688  -4.215  26.340  0.00  0.00    +0.214 C 
ATOM     45  C   UNL     1       9.233  -4.789  25.031  0.00  0.00    +0.180 C 
ATOM     46  C   UNL     1       8.372  -5.964  24.526  0.00  0.00    +0.178 C 
BRANCH  46  47
ATOM     47  O   UNL     1       8.742  -6.234  23.171  0.00  0.00    -0.386 OA
ATOM     48  H   UNL     1       8.724  -5.389  22.687  0.00  0.00    +0.210 HD
ENDBRANCH  46  47
BRANCH  45  49
ATOM     49  O   UNL     1      10.593  -5.224  25.200  0.00  0.00    -0.386 OA
ATOM     50  H   UNL     1      10.804  -5.103  26.143  0.00  0.00    +0.210 HD
ENDBRANCH  45  49
BRANCH  44  51
ATOM     51  O   UNL     1       8.779  -5.173  27.419  0.00  0.00    -0.383 OA
ATOM     52  H   UNL     1       7.895  -5.206  27.831  0.00  0.00    +0.210 HD
ENDBRANCH  44  51
BRANCH  41  53
ATOM     53  C   UNL     1       6.069  -5.103  23.530  0.00  0.00    +0.266 C 
BRANCH  53  54
ATOM     54  O   UNL     1       6.962  -4.268  22.739  0.00  0.00    -0.459 OA
BRANCH  54  55
ATOM     55  C   UNL     1       6.468  -3.036  22.418  0.00  0.00    +0.332 C 
ATOM     56  O   UNL     1       5.321  -2.809  22.067  0.00  0.00    -0.246 OA
BRANCH  55  58
ATOM     57  C   UNL     1       7.180  -0.719  22.616  0.00  0.00    +0.015 C 
ATOM     58  C   UNL     1       7.534  -2.015  22.563  0.00  0.00    +0.092 C 
BRANCH  57  60
ATOM     59  C   UNL     1       7.758   1.718  22.295  0.00  0.00    +0.011 A 
ATOM     60  C   UNL     1       8.084   0.436  22.758  0.00  0.00    -0.025 A 
ATOM     61  C   UNL     1       9.367   0.229  23.300  0.00  0.00    +0.011 A 
ATOM     62  C   UNL     1      10.288   1.274  23.391  0.00  0.00    +0.046 A 
ATOM     63  C   UNL     1       9.943   2.534  22.928  0.00  0.00    +0.117 A 
ATOM     64  C   UNL     1       8.683   2.768  22.385  0.00  0.00    +0.046 A 
BRANCH  63  65
ATOM     65  O   UNL     1      10.878   3.523  23.010  0.00  0.00    -0.507 OA
ATOM     66  H   UNL     1      11.486   3.316  23.740  0.00  0.00    +0.292 HD
ENDBRANCH  63  65
ENDBRANCH  57  60
ENDBRANCH  55  58
ENDBRANCH  54  55
ENDBRANCH  53  54
ENDBRANCH  41  53
ENDBRANCH  40  43
ENDBRANCH   1  40
TORSDOF 22
ENDMDL
MODEL 7
REMARK VINA RESULT:      -6.6      1.822      3.613
REMARK  Name = 
REMARK  22 active torsions:
REMARK  status: ('A' for Active; 'I' for Inactive)
REMARK    1  A    between atoms: C_3  and  O_61
REMARK    2  A    between atoms: C_6  and  C_7
REMARK    3  A    between atoms: C_8  and  C_9
REMARK    4  A    between atoms: C_9  and  O_11
REMARK    5  A    between atoms: O_11  and  C_12
REMARK    6  A    between atoms: C_12  and  C_13
REMARK    7  A    between atoms: C_14  and  O_60
REMARK    8  A    between atoms: C_16  and  O_59
REMARK    9  A    between atoms: C_18  and  O_58
REMARK   10  A    between atoms: C_19  and  O_22
REMARK   11  A    between atoms: O_22  and  C_23
REMARK   12  A    between atoms: C_24  and  C_50
REMARK   13  A    between atoms: C_28  and  O_35
REMARK   14  A    between atoms: C_30  and  O_34
REMARK   15  A    between atoms: O_35  and  C_36
REMARK   16  A    between atoms: C_38  and  O_49
REMARK   17  A    between atoms: C_39  and  O_48
REMARK   18  A    between atoms: C_41  and  O_47
REMARK   19  A    between atoms: C_43  and  C_45
REMARK   20  A    between atoms: C_45  and  O_46
REMARK   21  A    between atoms: C_52  and  O_57
REMARK   22  A    between atoms: C_53  and  O_56
REMARK                            x       y       z     vdW  Elec       q    Type
REMARK                         _______ _______ _______ _____ _____    ______ ____
ROOT
ATOM      1  C   UNL     1       4.909  -2.050  26.896  0.00  0.00    +0.214 A 
ATOM      2  C   UNL     1       4.082  -0.800  27.008  0.00  0.00    +0.238 A 
ATOM      3  O   UNL     1       2.877  -0.828  27.232  0.00  0.00    -0.283 OA
ATOM      4  C   UNL     1       4.730   0.491  26.809  0.00  0.00    +0.109 A 
ATOM      5  C   UNL     1       6.058   0.494  26.411  0.00  0.00    +0.147 A 
ATOM      6  C   UNL     1       6.698   1.721  26.179  0.00  0.00    +0.093 A 
ATOM      7  C   UNL     1       6.000   2.929  26.338  0.00  0.00    +0.131 A 
ATOM      8  C   UNL     1       4.661   2.910  26.720  0.00  0.00    +0.092 A 
ATOM      9  O   UNL     1       6.786  -0.662  26.232  0.00  0.00    -0.451 OA
ATOM     10  C   UNL     1       4.035   1.700  26.981  0.00  0.00    +0.135 A 
ATOM     11  C   UNL     1       6.191  -1.902  26.492  0.00  0.00    +0.181 A 
ENDROOT
BRANCH  11  12
ATOM     12  C   UNL     1       7.118  -3.067  26.303  0.00  0.00    +0.025 A 
ATOM     13  C   UNL     1       6.854  -4.301  26.931  0.00  0.00    +0.015 A 
ATOM     14  C   UNL     1       7.690  -5.413  26.738  0.00  0.00    +0.050 A 
ATOM     15  C   UNL     1       8.794  -5.304  25.909  0.00  0.00    +0.158 A 
ATOM     16  C   UNL     1       9.091  -4.094  25.296  0.00  0.00    +0.159 A 
ATOM     17  C   UNL     1       8.281  -2.980  25.507  0.00  0.00    +0.060 A 
BRANCH  16  18
ATOM     18  O   UNL     1      10.193  -4.046  24.485  0.00  0.00    -0.503 OA
ATOM     19  H   UNL     1      10.960  -4.351  25.001  0.00  0.00    +0.292 HD
ENDBRANCH  16  18
BRANCH  15  20
ATOM     20  O   UNL     1       9.588  -6.392  25.691  0.00  0.00    -0.503 OA
ATOM     21  H   UNL     1       9.023  -7.012  25.188  0.00  0.00    +0.292 HD
ENDBRANCH  15  20
ENDBRANCH  11  12
BRANCH  10  22
ATOM     22  O   UNL     1       2.744   1.725  27.428  0.00  0.00    -0.506 OA
ATOM     23  H   UNL     1       2.126   1.449  26.733  0.00  0.00    +0.292 HD
ENDBRANCH  10  22
BRANCH   7  24
ATOM     24  O   UNL     1       6.485   4.200  26.174  0.00  0.00    -0.461 OA
BRANCH  24  25
ATOM     25  C   UNL     1       5.930   4.971  25.101  0.00  0.00    +0.339 C 
ATOM     26  O   UNL     1       5.662   4.152  23.960  0.00  0.00    -0.331 OA
ATOM     27  C   UNL     1       6.842   3.627  23.319  0.00  0.00    +0.179 C 
ATOM     28  C   UNL     1       7.737   4.778  22.824  0.00  0.00    +0.177 C 
ATOM     29  C   UNL     1       8.137   5.657  24.014  0.00  0.00    +0.180 C 
ATOM     30  C   UNL     1       6.888   6.138  24.764  0.00  0.00    +0.214 C 
BRANCH  30  31
ATOM     31  O   UNL     1       7.278   6.870  25.936  0.00  0.00    -0.383 OA
ATOM     32  H   UNL     1       6.967   7.788  25.814  0.00  0.00    +0.210 HD
ENDBRANCH  30  31
BRANCH  29  33
ATOM     33  O   UNL     1       9.041   4.970  24.893  0.00  0.00    -0.386 OA
ATOM     34  H   UNL     1       8.531   4.374  25.472  0.00  0.00    +0.210 HD
ENDBRANCH  29  33
BRANCH  28  35
ATOM     35  O   UNL     1       7.021   5.558  21.860  0.00  0.00    -0.386 OA
ATOM     36  H   UNL     1       6.201   5.887  22.268  0.00  0.00    +0.210 HD
ENDBRANCH  28  35
BRANCH  27  37
ATOM     37  C   UNL     1       6.402   2.721  22.157  0.00  0.00    +0.190 C 
BRANCH  37  38
ATOM     38  O   UNL     1       6.068   1.406  22.610  0.00  0.00    -0.392 OA
ATOM     39  H   UNL     1       5.382   1.480  23.293  0.00  0.00    +0.210 HD
ENDBRANCH  37  38
ENDBRANCH  27  37
ENDBRANCH  24  25
ENDBRANCH   7  24
BRANCH   1  40
ATOM     40  O   UNL     1       4.385  -3.320  27.183  0.00  0.00    -0.453 OA
BRANCH  40  43
ATOM     41  C   UNL     1       3.451  -4.012  23.735  0.00  0.00    +0.191 C 
ATOM     42  O   UNL     1       3.644  -3.200  24.924  0.00  0.00    -0.330 OA
ATOM     43  C   UNL     1       3.843  -4.044  26.080  0.00  0.00    +0.340 C 
ATOM     44  C   UNL     1       2.457  -4.632  26.416  0.00  0.00    +0.214 C 
ATOM     45  C   UNL     1       2.148  -5.644  25.311  0.00  0.00    +0.180 C 
ATOM     46  C   UNL     1       2.262  -5.006  23.912  0.00  0.00    +0.178 C 
BRANCH  46  47
ATOM     47  O   UNL     1       2.276  -6.059  22.944  0.00  0.00    -0.386 OA
ATOM     48  H   UNL     1       2.030  -6.884  23.402  0.00  0.00    +0.210 HD
ENDBRANCH  46  47
BRANCH  45  49
ATOM     49  O   UNL     1       0.832  -6.194  25.486  0.00  0.00    -0.386 OA
ATOM     50  H   UNL     1       0.843  -7.072  25.064  0.00  0.00    +0.210 HD
ENDBRANCH  45  49
BRANCH  44  51
ATOM     51  O   UNL     1       1.472  -3.574  26.459  0.00  0.00    -0.383 OA
ATOM     52  H   UNL     1       1.822  -2.851  25.907  0.00  0.00    +0.210 HD
ENDBRANCH  44  51
BRANCH  41  53
ATOM     53  C   UNL     1       4.798  -4.610  23.244  0.00  0.00    +0.266 C 
BRANCH  53  54
ATOM     54  O   UNL     1       5.330  -3.846  22.125  0.00  0.00    -0.459 OA
BRANCH  54  55
ATOM     55  C   UNL     1       6.689  -3.715  22.108  0.00  0.00    +0.332 C 
ATOM     56  O   UNL     1       7.478  -4.614  21.860  0.00  0.00    -0.246 OA
BRANCH  55  58
ATOM     57  C   UNL     1       8.338  -1.933  22.248  0.00  0.00    +0.015 C 
ATOM     58  C   UNL     1       7.063  -2.317  22.433  0.00  0.00    +0.092 C 
BRANCH  57  60
ATOM     59  C   UNL     1       9.234   0.301  21.485  0.00  0.00    +0.011 A 
ATOM     60  C   UNL     1       8.903  -0.597  22.509  0.00  0.00    -0.025 A 
ATOM     61  C   UNL     1       9.207  -0.239  23.835  0.00  0.00    +0.011 A 
ATOM     62  C   UNL     1       9.808   0.986  24.131  0.00  0.00    +0.046 A 
ATOM     63  C   UNL     1      10.126   1.860  23.101  0.00  0.00    +0.117 A 
ATOM     64  C   UNL     1       9.839   1.531  21.780  0.00  0.00    +0.046 A 
BRANCH  63  65
ATOM     65  O   UNL     1      10.736   3.035  23.428  0.00  0.00    -0.507 OA
ATOM     66  H   UNL     1      10.127   3.766  23.233  0.00  0.00    +0.292 HD
ENDBRANCH  63  65
ENDBRANCH  57  60
ENDBRANCH  55  58
ENDBRANCH  54  55
ENDBRANCH  53  54
ENDBRANCH  41  53
ENDBRANCH  40  43
ENDBRANCH   1  40
TORSDOF 22
ENDMDL
MODEL 8
REMARK VINA RESULT:      -6.5      2.246      9.228
REMARK  Name = 
REMARK  22 active torsions:
REMARK  status: ('A' for Active; 'I' for Inactive)
REMARK    1  A    between atoms: C_3  and  O_61
REMARK    2  A    between atoms: C_6  and  C_7
REMARK    3  A    between atoms: C_8  and  C_9
REMARK    4  A    between atoms: C_9  and  O_11
REMARK    5  A    between atoms: O_11  and  C_12
REMARK    6  A    between atoms: C_12  and  C_13
REMARK    7  A    between atoms: C_14  and  O_60
REMARK    8  A    between atoms: C_16  and  O_59
REMARK    9  A    between atoms: C_18  and  O_58
REMARK   10  A    between atoms: C_19  and  O_22
REMARK   11  A    between atoms: O_22  and  C_23
REMARK   12  A    between atoms: C_24  and  C_50
REMARK   13  A    between atoms: C_28  and  O_35
REMARK   14  A    between atoms: C_30  and  O_34
REMARK   15  A    between atoms: O_35  and  C_36
REMARK   16  A    between atoms: C_38  and  O_49
REMARK   17  A    between atoms: C_39  and  O_48
REMARK   18  A    between atoms: C_41  and  O_47
REMARK   19  A    between atoms: C_43  and  C_45
REMARK   20  A    between atoms: C_45  and  O_46
REMARK   21  A    between atoms: C_52  and  O_57
REMARK   22  A    between atoms: C_53  and  O_56
REMARK                            x       y       z     vdW  Elec       q    Type
REMARK                         _______ _______ _______ _____ _____    ______ ____
ROOT
ATOM      1  C   UNL     1       7.060   2.103  27.202  0.00  0.00    +0.214 A 
ATOM      2  C   UNL     1       6.086   1.334  28.051  0.00  0.00    +0.238 A 
ATOM      3  O   UNL     1       5.607   1.794  29.081  0.00  0.00    -0.283 OA
ATOM      4  C   UNL     1       5.724  -0.021  27.652  0.00  0.00    +0.109 A 
ATOM      5  C   UNL     1       6.387  -0.576  26.569  0.00  0.00    +0.147 A 
ATOM      6  C   UNL     1       6.084  -1.890  26.184  0.00  0.00    +0.093 A 
ATOM      7  C   UNL     1       5.128  -2.637  26.892  0.00  0.00    +0.131 A 
ATOM      8  C   UNL     1       4.484  -2.073  27.989  0.00  0.00    +0.092 A 
ATOM      9  O   UNL     1       7.339   0.109  25.846  0.00  0.00    -0.451 OA
ATOM     10  C   UNL     1       4.758  -0.764  28.353  0.00  0.00    +0.135 A 
ATOM     11  C   UNL     1       7.639   1.436  26.178  0.00  0.00    +0.181 A 
ENDROOT
BRANCH  11  12
ATOM     12  C   UNL     1       8.655   2.069  25.273  0.00  0.00    +0.025 A 
ATOM     13  C   UNL     1       9.805   1.356  24.879  0.00  0.00    +0.015 A 
ATOM     14  C   UNL     1      10.749   1.919  24.004  0.00  0.00    +0.050 A 
ATOM     15  C   UNL     1      10.548   3.197  23.511  0.00  0.00    +0.158 A 
ATOM     16  C   UNL     1       9.437   3.931  23.900  0.00  0.00    +0.159 A 
ATOM     17  C   UNL     1       8.511   3.388  24.790  0.00  0.00    +0.060 A 
BRANCH  16  18
ATOM     18  O   UNL     1       9.288   5.187  23.377  0.00  0.00    -0.503 OA
ATOM     19  H   UNL     1       8.592   5.643  23.882  0.00  0.00    +0.292 HD
ENDBRANCH  16  18
BRANCH  15  20
ATOM     20  O   UNL     1      11.445   3.733  22.632  0.00  0.00    -0.503 OA
ATOM     21  H   UNL     1      12.034   2.988  22.396  0.00  0.00    +0.292 HD
ENDBRANCH  15  20
ENDBRANCH  11  12
BRANCH  10  22
ATOM     22  O   UNL     1       4.050  -0.218  29.387  0.00  0.00    -0.506 OA
ATOM     23  H   UNL     1       3.171   0.069  29.098  0.00  0.00    +0.292 HD
ENDBRANCH  10  22
BRANCH   7  24
ATOM     24  O   UNL     1       4.706  -3.914  26.629  0.00  0.00    -0.461 OA
BRANCH  24  25
ATOM     25  C   UNL     1       5.352  -4.600  25.550  0.00  0.00    +0.339 C 
ATOM     26  O   UNL     1       4.508  -4.665  24.398  0.00  0.00    -0.331 OA
ATOM     27  C   UNL     1       3.339  -5.491  24.567  0.00  0.00    +0.179 C 
ATOM     28  C   UNL     1       3.752  -6.942  24.882  0.00  0.00    +0.177 C 
ATOM     29  C   UNL     1       4.596  -6.962  26.161  0.00  0.00    +0.180 C 
ATOM     30  C   UNL     1       5.788  -6.006  26.028  0.00  0.00    +0.214 C 
BRANCH  30  31
ATOM     31  O   UNL     1       6.509  -5.953  27.268  0.00  0.00    -0.383 OA
ATOM     32  H   UNL     1       7.221  -6.620  27.211  0.00  0.00    +0.210 HD
ENDBRANCH  30  31
BRANCH  29  33
ATOM     33  O   UNL     1       3.804  -6.649  27.317  0.00  0.00    -0.386 OA
ATOM     34  H   UNL     1       3.139  -7.350  27.447  0.00  0.00    +0.210 HD
ENDBRANCH  29  33
BRANCH  28  35
ATOM     35  O   UNL     1       4.510  -7.468  23.788  0.00  0.00    -0.386 OA
ATOM     36  H   UNL     1       5.457  -7.340  23.971  0.00  0.00    +0.210 HD
ENDBRANCH  28  35
BRANCH  27  37
ATOM     37  C   UNL     1       2.498  -5.415  23.283  0.00  0.00    +0.190 C 
BRANCH  37  38
ATOM     38  O   UNL     1       2.025  -6.705  22.884  0.00  0.00    -0.392 OA
ATOM     39  H   UNL     1       1.148  -6.846  23.275  0.00  0.00    +0.210 HD
ENDBRANCH  37  38
ENDBRANCH  27  37
ENDBRANCH  24  25
ENDBRANCH   7  24
BRANCH   1  40
ATOM     40  O   UNL     1       7.372   3.448  27.456  0.00  0.00    -0.453 OA
BRANCH  40  43
ATOM     41  C   UNL     1       5.143   5.964  26.064  0.00  0.00    +0.191 C 
ATOM     42  O   UNL     1       6.410   5.298  26.308  0.00  0.00    -0.330 OA
ATOM     43  C   UNL     1       6.284   4.369  27.408  0.00  0.00    +0.340 C 
ATOM     44  C   UNL     1       6.220   5.233  28.684  0.00  0.00    +0.214 C 
ATOM     45  C   UNL     1       4.850   5.916  28.663  0.00  0.00    +0.180 C 
ATOM     46  C   UNL     1       4.622   6.683  27.347  0.00  0.00    +0.178 C 
BRANCH  46  47
ATOM     47  O   UNL     1       3.233   7.018  27.264  0.00  0.00    -0.386 OA
ATOM     48  H   UNL     1       2.771   6.261  26.860  0.00  0.00    +0.210 HD
ENDBRANCH  46  47
BRANCH  45  49
ATOM     49  O   UNL     1       4.719   6.815  29.777  0.00  0.00    -0.386 OA
ATOM     50  H   UNL     1       4.616   6.258  30.569  0.00  0.00    +0.210 HD
ENDBRANCH  45  49
BRANCH  44  51
ATOM     51  O   UNL     1       7.296   6.200  28.679  0.00  0.00    -0.383 OA
ATOM     52  H   UNL     1       6.986   6.952  28.141  0.00  0.00    +0.210 HD
ENDBRANCH  44  51
BRANCH  41  53
ATOM     53  C   UNL     1       4.148   5.018  25.337  0.00  0.00    +0.266 C 
BRANCH  53  54
ATOM     54  O   UNL     1       4.805   4.306  24.250  0.00  0.00    -0.459 OA
BRANCH  54  55
ATOM     55  C   UNL     1       4.213   3.131  23.887  0.00  0.00    +0.332 C 
ATOM     56  O   UNL     1       3.016   2.978  23.694  0.00  0.00    -0.246 OA
BRANCH  55  58
ATOM     57  C   UNL     1       5.958   2.002  22.624  0.00  0.00    +0.015 C 
ATOM     58  C   UNL     1       5.240   2.069  23.759  0.00  0.00    +0.092 C 
BRANCH  57  60
ATOM     59  C   UNL     1       7.046  -0.265  22.848  0.00  0.00    +0.011 A 
ATOM     60  C   UNL     1       7.017   1.028  22.308  0.00  0.00    -0.025 A 
ATOM     61  C   UNL     1       8.096   1.438  21.502  0.00  0.00    +0.011 A 
ATOM     62  C   UNL     1       9.161   0.577  21.231  0.00  0.00    +0.046 A 
ATOM     63  C   UNL     1       9.168  -0.698  21.776  0.00  0.00    +0.117 A 
ATOM     64  C   UNL     1       8.116  -1.130  22.578  0.00  0.00    +0.046 A 
BRANCH  63  65
ATOM     65  O   UNL     1      10.238  -1.500  21.509  0.00  0.00    -0.507 OA
ATOM     66  H   UNL     1      10.149  -2.319  22.025  0.00  0.00    +0.292 HD
ENDBRANCH  63  65
ENDBRANCH  57  60
ENDBRANCH  55  58
ENDBRANCH  54  55
ENDBRANCH  53  54
ENDBRANCH  41  53
ENDBRANCH  40  43
ENDBRANCH   1  40
TORSDOF 22
ENDMDL
MODEL 9
REMARK VINA RESULT:      -6.5      2.067      9.606
REMARK  Name = 
REMARK  22 active torsions:
REMARK  status: ('A' for Active; 'I' for Inactive)
REMARK    1  A    between atoms: C_3  and  O_61
REMARK    2  A    between atoms: C_6  and  C_7
REMARK    3  A    between atoms: C_8  and  C_9
REMARK    4  A    between atoms: C_9  and  O_11
REMARK    5  A    between atoms: O_11  and  C_12
REMARK    6  A    between atoms: C_12  and  C_13
REMARK    7  A    between atoms: C_14  and  O_60
REMARK    8  A    between atoms: C_16  and  O_59
REMARK    9  A    between atoms: C_18  and  O_58
REMARK   10  A    between atoms: C_19  and  O_22
REMARK   11  A    between atoms: O_22  and  C_23
REMARK   12  A    between atoms: C_24  and  C_50
REMARK   13  A    between atoms: C_28  and  O_35
REMARK   14  A    between atoms: C_30  and  O_34
REMARK   15  A    between atoms: O_35  and  C_36
REMARK   16  A    between atoms: C_38  and  O_49
REMARK   17  A    between atoms: C_39  and  O_48
REMARK   18  A    between atoms: C_41  and  O_47
REMARK   19  A    between atoms: C_43  and  C_45
REMARK   20  A    between atoms: C_45  and  O_46
REMARK   21  A    between atoms: C_52  and  O_57
REMARK   22  A    between atoms: C_53  and  O_56
REMARK                            x       y       z     vdW  Elec       q    Type
REMARK                         _______ _______ _______ _____ _____    ______ ____
ROOT
ATOM      1  C   UNL     1       6.116   2.247  25.076  0.00  0.00    +0.214 A 
ATOM      2  C   UNL     1       6.062   1.063  24.151  0.00  0.00    +0.238 A 
ATOM      3  O   UNL     1       6.204   1.171  22.938  0.00  0.00    -0.283 OA
ATOM      4  C   UNL     1       5.799  -0.256  24.713  0.00  0.00    +0.109 A 
ATOM      5  C   UNL     1       5.497  -0.337  26.064  0.00  0.00    +0.147 A 
ATOM      6  C   UNL     1       5.206  -1.589  26.624  0.00  0.00    +0.093 A 
ATOM      7  C   UNL     1       5.212  -2.745  25.827  0.00  0.00    +0.131 A 
ATOM      8  C   UNL     1       5.500  -2.647  24.468  0.00  0.00    +0.092 A 
ATOM      9  O   UNL     1       5.468   0.767  26.888  0.00  0.00    -0.451 OA
ATOM     10  C   UNL     1       5.819  -1.415  23.918  0.00  0.00    +0.135 A 
ATOM     11  C   UNL     1       5.790   2.027  26.371  0.00  0.00    +0.181 A 
ENDROOT
BRANCH  11  12
ATOM     12  C   UNL     1       5.766   3.124  27.395  0.00  0.00    +0.025 A 
ATOM     13  C   UNL     1       4.646   3.971  27.510  0.00  0.00    +0.015 A 
ATOM     14  C   UNL     1       4.590   4.981  28.485  0.00  0.00    +0.050 A 
ATOM     15  C   UNL     1       5.651   5.146  29.360  0.00  0.00    +0.158 A 
ATOM     16  C   UNL     1       6.776   4.341  29.255  0.00  0.00    +0.159 A 
ATOM     17  C   UNL     1       6.849   3.356  28.271  0.00  0.00    +0.060 A 
BRANCH  16  18
ATOM     18  O   UNL     1       7.792   4.548  30.150  0.00  0.00    -0.503 OA
ATOM     19  H   UNL     1       7.734   5.467  30.464  0.00  0.00    +0.292 HD
ENDBRANCH  16  18
BRANCH  15  20
ATOM     20  O   UNL     1       5.584   6.102  30.332  0.00  0.00    -0.503 OA
ATOM     21  H   UNL     1       4.933   5.755  30.974  0.00  0.00    +0.292 HD
ENDBRANCH  15  20
ENDBRANCH  11  12
BRANCH  10  22
ATOM     22  O   UNL     1       6.171  -1.369  22.598  0.00  0.00    -0.506 OA
ATOM     23  H   UNL     1       6.454  -0.478  22.340  0.00  0.00    +0.292 HD
ENDBRANCH  10  22
BRANCH   7  24
ATOM     24  O   UNL     1       4.975  -4.034  26.225  0.00  0.00    -0.461 OA
BRANCH  24  25
ATOM     25  C   UNL     1       4.260  -4.873  25.310  0.00  0.00    +0.339 C 
ATOM     26  O   UNL     1       2.970  -4.333  25.011  0.00  0.00    -0.331 OA
ATOM     27  C   UNL     1       2.058  -4.332  26.127  0.00  0.00    +0.179 C 
ATOM     28  C   UNL     1       1.819  -5.770  26.624  0.00  0.00    +0.177 C 
ATOM     29  C   UNL     1       3.156  -6.389  27.044  0.00  0.00    +0.180 C 
ATOM     30  C   UNL     1       4.168  -6.303  25.894  0.00  0.00    +0.214 C 
BRANCH  30  31
ATOM     31  O   UNL     1       5.445  -6.788  26.334  0.00  0.00    -0.383 OA
ATOM     32  H   UNL     1       5.429  -7.760  26.237  0.00  0.00    +0.210 HD
ENDBRANCH  30  31
BRANCH  29  33
ATOM     33  O   UNL     1       3.668  -5.772  28.235  0.00  0.00    -0.386 OA
ATOM     34  H   UNL     1       3.266  -6.199  29.014  0.00  0.00    +0.210 HD
ENDBRANCH  29  33
BRANCH  28  35
ATOM     35  O   UNL     1       1.231  -6.545  25.574  0.00  0.00    -0.386 OA
ATOM     36  H   UNL     1       0.984  -7.417  25.927  0.00  0.00    +0.210 HD
ENDBRANCH  28  35
BRANCH  27  37
ATOM     37  C   UNL     1       0.744  -3.669  25.681  0.00  0.00    +0.190 C 
BRANCH  37  38
ATOM     38  O   UNL     1       0.923  -2.280  25.395  0.00  0.00    -0.392 OA
ATOM     39  H   UNL     1       1.545  -2.195  24.654  0.00  0.00    +0.210 HD
ENDBRANCH  37  38
ENDBRANCH  27  37
ENDBRANCH  24  25
ENDBRANCH   7  24
BRANCH   1  40
ATOM     40  O   UNL     1       6.473   3.529  24.630  0.00  0.00    -0.453 OA
BRANCH  40  43
ATOM     41  C   UNL     1       9.938   2.642  23.966  0.00  0.00    +0.191 C 
ATOM     42  O   UNL     1       8.702   2.699  24.726  0.00  0.00    -0.330 OA
ATOM     43  C   UNL     1       7.809   3.683  24.157  0.00  0.00    +0.340 C 
ATOM     44  C   UNL     1       8.392   5.057  24.549  0.00  0.00    +0.214 C 
ATOM     45  C   UNL     1       9.661   5.231  23.713  0.00  0.00    +0.180 C 
ATOM     46  C   UNL     1      10.625   4.042  23.892  0.00  0.00    +0.178 C 
BRANCH  46  47
ATOM     47  O   UNL     1      11.615   4.115  22.862  0.00  0.00    -0.386 OA
ATOM     48  H   UNL     1      11.859   3.202  22.623  0.00  0.00    +0.210 HD
ENDBRANCH  46  47
BRANCH  45  49
ATOM     49  O   UNL     1      10.331   6.454  24.065  0.00  0.00    -0.386 OA
ATOM     50  H   UNL     1      11.271   6.227  24.183  0.00  0.00    +0.210 HD
ENDBRANCH  45  49
BRANCH  44  51
ATOM     51  O   UNL     1       8.682   5.081  25.966  0.00  0.00    -0.383 OA
ATOM     52  H   UNL     1       9.631   5.289  26.048  0.00  0.00    +0.210 HD
ENDBRANCH  44  51
BRANCH  41  53
ATOM     53  C   UNL     1       9.734   1.890  22.623  0.00  0.00    +0.266 C 
BRANCH  53  54
ATOM     54  O   UNL     1      10.215   0.518  22.716  0.00  0.00    -0.459 OA
BRANCH  54  55
ATOM     55  C   UNL     1       9.618  -0.363  21.861  0.00  0.00    +0.332 C 
ATOM     56  O   UNL     1       9.346  -0.134  20.692  0.00  0.00    -0.246 OA
BRANCH  55  58
ATOM     57  C   UNL     1       9.305  -1.639  23.908  0.00  0.00    +0.015 C 
ATOM     58  C   UNL     1       9.350  -1.641  22.564  0.00  0.00    +0.092 C 
BRANCH  57  60
ATOM     59  C   UNL     1       8.963  -4.110  24.298  0.00  0.00    +0.011 A 
ATOM     60  C   UNL     1       9.053  -2.798  24.782  0.00  0.00    -0.025 A 
ATOM     61  C   UNL     1       8.802  -2.572  26.149  0.00  0.00    +0.011 A 
ATOM     62  C   UNL     1       8.487  -3.628  27.008  0.00  0.00    +0.046 A 
ATOM     63  C   UNL     1       8.404  -4.918  26.506  0.00  0.00    +0.117 A 
ATOM     64  C   UNL     1       8.646  -5.171  25.159  0.00  0.00    +0.046 A 
BRANCH  63  65
ATOM     65  O   UNL     1       8.069  -5.918  27.370  0.00  0.00    -0.507 OA
ATOM     66  H   UNL     1       7.787  -5.521  28.211  0.00  0.00    +0.292 HD
ENDBRANCH  63  65
ENDBRANCH  57  60
ENDBRANCH  55  58
ENDBRANCH  54  55
ENDBRANCH  53  54
ENDBRANCH  41  53
ENDBRANCH  40  43
ENDBRANCH   1  40
TORSDOF 22
ENDMDL
