MODEL 1
REMARK VINA RESULT:      -8.4      0.000      0.000
REMARK  Name = 
REMARK  17 active torsions:
REMARK  status: ('A' for Active; 'I' for Inactive)
REMARK    1  A    between atoms: C_3  and  O_47
REMARK    2  A    between atoms: C_4  and  O_46
REMARK    3  A    between atoms: C_6  and  C_7
REMARK    4  A    between atoms: C_8  and  O_45
REMARK    5  A    between atoms: C_12  and  O_44
REMARK    6  A    between atoms: C_14  and  O_18
REMARK    7  A    between atoms: O_18  and  C_19
REMARK    8  A    between atoms: C_21  and  O_43
REMARK    9  A    between atoms: C_22  and  O_42
REMARK   10  A    between atoms: C_24  and  O_41
REMARK   11  A    between atoms: C_26  and  C_28
REMARK   12  A    between atoms: C_28  and  O_29
REMARK   13  A    between atoms: O_29  and  C_30
REMARK   14  A    between atoms: C_30  and  C_32
REMARK   15  A    between atoms: C_34  and  O_40
REMARK   16  A    between atoms: C_35  and  O_39
REMARK   17  A    between atoms: C_36  and  O_38
REMARK                            x       y       z     vdW  Elec       q    Type
REMARK                         _______ _______ _______ _____ _____    ______ ____
ROOT
ATOM      1  C   UNL     1       3.358  -5.083  23.664  0.00  0.00    +0.339 C 
ATOM      2  O   UNL     1       4.049  -5.251  24.905  0.00  0.00    -0.330 OA
ATOM      3  C   UNL     1       4.229  -6.598  25.352  0.00  0.00    +0.191 C 
ATOM      4  C   UNL     1       2.851  -7.176  25.683  0.00  0.00    +0.178 C 
ATOM      5  C   UNL     1       2.027  -7.223  24.389  0.00  0.00    +0.180 C 
ATOM      6  C   UNL     1       2.019  -5.876  23.643  0.00  0.00    +0.214 C 
ENDROOT
BRANCH   6   7
ATOM      7  O   UNL     1       1.466  -6.021  22.332  0.00  0.00    -0.383 OA
ATOM      8  H   UNL     1       0.772  -6.707  22.396  0.00  0.00    +0.210 HD
ENDBRANCH   6   7
BRANCH   5   9
ATOM      9  O   UNL     1       2.452  -8.275  23.515  0.00  0.00    -0.386 OA
ATOM     10  H   UNL     1       2.599  -7.915  22.622  0.00  0.00    +0.210 HD
ENDBRANCH   5   9
BRANCH   4  11
ATOM     11  O   UNL     1       2.207  -6.333  26.649  0.00  0.00    -0.386 OA
ATOM     12  H   UNL     1       1.631  -6.879  27.211  0.00  0.00    +0.210 HD
ENDBRANCH   4  11
BRANCH   3  13
ATOM     13  C   UNL     1       5.142  -6.547  26.586  0.00  0.00    +0.266 C 
BRANCH  13  14
ATOM     14  O   UNL     1       5.422  -5.174  26.942  0.00  0.00    -0.458 OA
BRANCH  14  15
ATOM     15  C   UNL     1       6.704  -4.777  26.766  0.00  0.00    +0.340 C 
ATOM     16  O   UNL     1       7.681  -5.513  26.739  0.00  0.00    -0.245 OA
BRANCH  15  17
ATOM     17  C   UNL     1       6.771  -3.304  26.640  0.00  0.00    +0.066 A 
ATOM     18  C   UNL     1       5.593  -2.616  26.313  0.00  0.00    +0.064 A 
ATOM     19  C   UNL     1       5.626  -1.234  26.189  0.00  0.00    +0.163 A 
ATOM     20  C   UNL     1       6.806  -0.536  26.410  0.00  0.00    +0.201 A 
ATOM     21  C   UNL     1       7.972  -1.214  26.745  0.00  0.00    +0.163 A 
ATOM     22  C   UNL     1       7.967  -2.599  26.866  0.00  0.00    +0.064 A 
BRANCH  21  23
ATOM     23  O   UNL     1       9.104  -0.477  26.953  0.00  0.00    -0.503 OA
ATOM     24  H   UNL     1       9.114   0.271  26.329  0.00  0.00    +0.292 HD
ENDBRANCH  21  23
BRANCH  20  25
ATOM     25  O   UNL     1       6.800   0.825  26.285  0.00  0.00    -0.501 OA
ATOM     26  H   UNL     1       6.502   1.145  27.161  0.00  0.00    +0.292 HD
ENDBRANCH  20  25
BRANCH  19  27
ATOM     27  O   UNL     1       4.487  -0.565  25.849  0.00  0.00    -0.503 OA
ATOM     28  H   UNL     1       4.228  -0.081  26.660  0.00  0.00    +0.292 HD
ENDBRANCH  19  27
ENDBRANCH  15  17
ENDBRANCH  14  15
ENDBRANCH  13  14
ENDBRANCH   3  13
BRANCH   1  29
ATOM     29  O   UNL     1       4.238  -5.249  22.511  0.00  0.00    -0.461 OA
BRANCH  29  36
ATOM     30  C   UNL     1       8.162  -0.580  23.005  0.00  0.00    +0.181 A 
ATOM     31  O   UNL     1       6.965  -1.219  22.610  0.00  0.00    -0.451 OA
ATOM     32  C   UNL     1       6.842  -2.589  22.785  0.00  0.00    +0.147 A 
ATOM     33  C   UNL     1       7.913  -3.353  23.241  0.00  0.00    +0.109 A 
ATOM     34  C   UNL     1       7.807  -4.733  23.348  0.00  0.00    +0.135 A 
ATOM     35  C   UNL     1       6.614  -5.361  23.050  0.00  0.00    +0.092 A 
ATOM     36  C   UNL     1       5.475  -4.633  22.686  0.00  0.00    +0.131 A 
ATOM     37  C   UNL     1       9.151  -2.704  23.647  0.00  0.00    +0.238 A 
ATOM     38  O   UNL     1      10.086  -3.378  24.075  0.00  0.00    -0.283 OA
ATOM     39  C   UNL     1       5.607  -3.235  22.507  0.00  0.00    +0.093 A 
ATOM     40  C   UNL     1       9.203  -1.237  23.573  0.00  0.00    +0.208 A 
BRANCH  30  42
ATOM     41  C   UNL     1       9.344   1.665  23.164  0.00  0.00    +0.015 A 
ATOM     42  C   UNL     1       8.202   0.901  22.809  0.00  0.00    +0.025 A 
ATOM     43  C   UNL     1       7.098   1.597  22.306  0.00  0.00    +0.060 A 
ATOM     44  C   UNL     1       7.110   2.992  22.265  0.00  0.00    +0.159 A 
ATOM     45  C   UNL     1       8.204   3.724  22.721  0.00  0.00    +0.158 A 
ATOM     46  C   UNL     1       9.338   3.066  23.159  0.00  0.00    +0.050 A 
BRANCH  45  47
ATOM     47  O   UNL     1       8.113   5.087  22.722  0.00  0.00    -0.503 OA
ATOM     48  H   UNL     1       7.380   5.349  22.137  0.00  0.00    +0.292 HD
ENDBRANCH  45  47
BRANCH  44  49
ATOM     49  O   UNL     1       6.013   3.655  21.791  0.00  0.00    -0.503 OA
ATOM     50  H   UNL     1       5.356   3.594  22.514  0.00  0.00    +0.292 HD
ENDBRANCH  44  49
ENDBRANCH  30  42
BRANCH  40  51
ATOM     51  O   UNL     1      10.332  -0.655  24.116  0.00  0.00    -0.501 OA
ATOM     52  H   UNL     1      10.058  -0.099  24.865  0.00  0.00    +0.292 HD
ENDBRANCH  40  51
BRANCH  34  53
ATOM     53  O   UNL     1       8.825  -5.548  23.758  0.00  0.00    -0.506 OA
ATOM     54  H   UNL     1       9.089  -6.115  22.995  0.00  0.00    +0.292 HD
ENDBRANCH  34  53
ENDBRANCH  29  36
ENDBRANCH   1  29
TORSDOF 17
ENDMDL
MODEL 2
REMARK VINA RESULT:      -7.6      1.603      2.377
REMARK  Name = 
REMARK  17 active torsions:
REMARK  status: ('A' for Active; 'I' for Inactive)
REMARK    1  A    between atoms: C_3  and  O_47
REMARK    2  A    between atoms: C_4  and  O_46
REMARK    3  A    between atoms: C_6  and  C_7
REMARK    4  A    between atoms: C_8  and  O_45
REMARK    5  A    between atoms: C_12  and  O_44
REMARK    6  A    between atoms: C_14  and  O_18
REMARK    7  A    between atoms: O_18  and  C_19
REMARK    8  A    between atoms: C_21  and  O_43
REMARK    9  A    between atoms: C_22  and  O_42
REMARK   10  A    between atoms: C_24  and  O_41
REMARK   11  A    between atoms: C_26  and  C_28
REMARK   12  A    between atoms: C_28  and  O_29
REMARK   13  A    between atoms: O_29  and  C_30
REMARK   14  A    between atoms: C_30  and  C_32
REMARK   15  A    between atoms: C_34  and  O_40
REMARK   16  A    between atoms: C_35  and  O_39
REMARK   17  A    between atoms: C_36  and  O_38
REMARK                            x       y       z     vdW  Elec       q    Type
REMARK                         _______ _______ _______ _____ _____    ______ ____
ROOT
ATOM      1  C   UNL     1       4.777  -4.244  23.925  0.00  0.00    +0.339 C 
ATOM      2  O   UNL     1       5.521  -4.237  25.146  0.00  0.00    -0.330 OA
ATOM      3  C   UNL     1       6.094  -5.487  25.546  0.00  0.00    +0.191 C 
ATOM      4  C   UNL     1       4.949  -6.445  25.885  0.00  0.00    +0.178 C 
ATOM      5  C   UNL     1       4.137  -6.694  24.606  0.00  0.00    +0.180 C 
ATOM      6  C   UNL     1       3.723  -5.388  23.904  0.00  0.00    +0.214 C 
ENDROOT
BRANCH   6   7
ATOM      7  O   UNL     1       3.198  -5.652  22.600  0.00  0.00    -0.383 OA
ATOM      8  H   UNL     1       2.651  -6.460  22.678  0.00  0.00    +0.210 HD
ENDBRANCH   6   7
BRANCH   5   9
ATOM      9  O   UNL     1       4.822  -7.557  23.691  0.00  0.00    -0.386 OA
ATOM     10  H   UNL     1       5.783  -7.419  23.772  0.00  0.00    +0.210 HD
ENDBRANCH   5   9
BRANCH   4  11
ATOM     11  O   UNL     1       4.117  -5.847  26.890  0.00  0.00    -0.386 OA
ATOM     12  H   UNL     1       3.226  -6.234  26.835  0.00  0.00    +0.210 HD
ENDBRANCH   4  11
BRANCH   3  13
ATOM     13  C   UNL     1       6.987  -5.205  26.763  0.00  0.00    +0.266 C 
BRANCH  13  14
ATOM     14  O   UNL     1       6.744  -3.871  27.262  0.00  0.00    -0.458 OA
BRANCH  14  15
ATOM     15  C   UNL     1       7.586  -2.916  26.802  0.00  0.00    +0.340 C 
ATOM     16  O   UNL     1       8.744  -3.095  26.452  0.00  0.00    -0.245 OA
BRANCH  15  17
ATOM     17  C   UNL     1       6.916  -1.596  26.811  0.00  0.00    +0.066 A 
ATOM     18  C   UNL     1       5.517  -1.566  26.714  0.00  0.00    +0.064 A 
ATOM     19  C   UNL     1       4.862  -0.343  26.720  0.00  0.00    +0.163 A 
ATOM     20  C   UNL     1       5.580   0.839  26.844  0.00  0.00    +0.201 A 
ATOM     21  C   UNL     1       6.966   0.812  26.952  0.00  0.00    +0.163 A 
ATOM     22  C   UNL     1       7.646  -0.400  26.938  0.00  0.00    +0.064 A 
BRANCH  21  23
ATOM     23  O   UNL     1       7.621   2.005  27.074  0.00  0.00    -0.503 OA
ATOM     24  H   UNL     1       6.992   2.683  27.376  0.00  0.00    +0.292 HD
ENDBRANCH  21  23
BRANCH  20  25
ATOM     25  O   UNL     1       4.901   2.026  26.853  0.00  0.00    -0.501 OA
ATOM     26  H   UNL     1       5.070   2.404  25.966  0.00  0.00    +0.292 HD
ENDBRANCH  20  25
BRANCH  19  27
ATOM     27  O   UNL     1       3.503  -0.310  26.603  0.00  0.00    -0.503 OA
ATOM     28  H   UNL     1       3.337  -0.150  25.652  0.00  0.00    +0.292 HD
ENDBRANCH  19  27
ENDBRANCH  15  17
ENDBRANCH  14  15
ENDBRANCH  13  14
ENDBRANCH   3  13
BRANCH   1  29
ATOM     29  O   UNL     1       5.635  -4.120  22.751  0.00  0.00    -0.461 OA
BRANCH  29  36
ATOM     30  C   UNL     1       7.681   1.612  23.382  0.00  0.00    +0.181 A 
ATOM     31  O   UNL     1       6.752   0.609  23.026  0.00  0.00    -0.451 OA
ATOM     32  C   UNL     1       7.143  -0.721  23.072  0.00  0.00    +0.147 A 
ATOM     33  C   UNL     1       8.459  -1.072  23.359  0.00  0.00    +0.109 A 
ATOM     34  C   UNL     1       8.861  -2.401  23.336  0.00  0.00    +0.135 A 
ATOM     35  C   UNL     1       7.942  -3.398  23.076  0.00  0.00    +0.092 A 
ATOM     36  C   UNL     1       6.585  -3.110  22.883  0.00  0.00    +0.131 A 
ATOM     37  C   UNL     1       9.424  -0.045  23.724  0.00  0.00    +0.238 A 
ATOM     38  O   UNL     1      10.579  -0.361  24.004  0.00  0.00    -0.283 OA
ATOM     39  C   UNL     1       6.193  -1.752  22.834  0.00  0.00    +0.093 A 
ATOM     40  C   UNL     1       8.945   1.342  23.793  0.00  0.00    +0.208 A 
BRANCH  30  42
ATOM     41  C   UNL     1       6.158   3.469  24.214  0.00  0.00    +0.015 A 
ATOM     42  C   UNL     1       7.172   3.016  23.332  0.00  0.00    +0.025 A 
ATOM     43  C   UNL     1       7.650   3.927  22.384  0.00  0.00    +0.060 A 
ATOM     44  C   UNL     1       7.061   5.187  22.267  0.00  0.00    +0.159 A 
ATOM     45  C   UNL     1       5.992   5.569  23.074  0.00  0.00    +0.158 A 
ATOM     46  C   UNL     1       5.541   4.719  24.067  0.00  0.00    +0.050 A 
BRANCH  45  47
ATOM     47  O   UNL     1       5.416   6.787  22.849  0.00  0.00    -0.503 OA
ATOM     48  H   UNL     1       4.586   6.650  22.358  0.00  0.00    +0.292 HD
ENDBRANCH  45  47
BRANCH  44  49
ATOM     49  O   UNL     1       7.526   6.056  21.320  0.00  0.00    -0.503 OA
ATOM     50  H   UNL     1       6.866   6.778  21.301  0.00  0.00    +0.292 HD
ENDBRANCH  44  49
ENDBRANCH  30  42
BRANCH  40  51
ATOM     51  O   UNL     1       9.848   2.258  24.296  0.00  0.00    -0.501 OA
ATOM     52  H   UNL     1       9.430   3.135  24.287  0.00  0.00    +0.292 HD
ENDBRANCH  40  51
BRANCH  34  53
ATOM     53  O   UNL     1      10.142  -2.816  23.577  0.00  0.00    -0.506 OA
ATOM     54  H   UNL     1      10.575  -2.987  22.709  0.00  0.00    +0.292 HD
ENDBRANCH  34  53
ENDBRANCH  29  36
ENDBRANCH   1  29
TORSDOF 17
ENDMDL
MODEL 3
REMARK VINA RESULT:      -7.5      1.710      8.218
REMARK  Name = 
REMARK  17 active torsions:
REMARK  status: ('A' for Active; 'I' for Inactive)
REMARK    1  A    between atoms: C_3  and  O_47
REMARK    2  A    between atoms: C_4  and  O_46
REMARK    3  A    between atoms: C_6  and  C_7
REMARK    4  A    between atoms: C_8  and  O_45
REMARK    5  A    between atoms: C_12  and  O_44
REMARK    6  A    between atoms: C_14  and  O_18
REMARK    7  A    between atoms: O_18  and  C_19
REMARK    8  A    between atoms: C_21  and  O_43
REMARK    9  A    between atoms: C_22  and  O_42
REMARK   10  A    between atoms: C_24  and  O_41
REMARK   11  A    between atoms: C_26  and  C_28
REMARK   12  A    between atoms: C_28  and  O_29
REMARK   13  A    between atoms: O_29  and  C_30
REMARK   14  A    between atoms: C_30  and  C_32
REMARK   15  A    between atoms: C_34  and  O_40
REMARK   16  A    between atoms: C_35  and  O_39
REMARK   17  A    between atoms: C_36  and  O_38
REMARK                            x       y       z     vdW  Elec       q    Type
REMARK                         _______ _______ _______ _____ _____    ______ ____
ROOT
ATOM      1  C   UNL     1       5.549   2.530  24.505  0.00  0.00    +0.339 C 
ATOM      2  O   UNL     1       6.813   2.494  23.837  0.00  0.00    -0.330 OA
ATOM      3  C   UNL     1       7.601   3.686  23.907  0.00  0.00    +0.191 C 
ATOM      4  C   UNL     1       6.870   4.783  23.129  0.00  0.00    +0.178 C 
ATOM      5  C   UNL     1       5.537   5.065  23.835  0.00  0.00    +0.180 C 
ATOM      6  C   UNL     1       4.724   3.785  24.099  0.00  0.00    +0.214 C 
ENDROOT
BRANCH   6   7
ATOM      7  O   UNL     1       3.624   4.049  24.974  0.00  0.00    -0.383 OA
ATOM      8  H   UNL     1       4.004   4.411  25.799  0.00  0.00    +0.210 HD
ENDBRANCH   6   7
BRANCH   5   9
ATOM      9  O   UNL     1       5.715   5.802  25.051  0.00  0.00    -0.386 OA
ATOM     10  H   UNL     1       5.337   6.694  24.948  0.00  0.00    +0.210 HD
ENDBRANCH   5   9
BRANCH   4  11
ATOM     11  O   UNL     1       6.633   4.330  21.788  0.00  0.00    -0.386 OA
ATOM     12  H   UNL     1       6.060   3.543  21.817  0.00  0.00    +0.210 HD
ENDBRANCH   4  11
BRANCH   3  13
ATOM     13  C   UNL     1       8.970   3.360  23.291  0.00  0.00    +0.266 C 
BRANCH  13  14
ATOM     14  O   UNL     1       9.016   1.974  22.883  0.00  0.00    -0.458 OA
BRANCH  14  15
ATOM     15  C   UNL     1       9.682   1.144  23.719  0.00  0.00    +0.340 C 
ATOM     16  O   UNL     1      10.575   1.471  24.487  0.00  0.00    -0.245 OA
BRANCH  15  17
ATOM     17  C   UNL     1       9.200  -0.246  23.551  0.00  0.00    +0.066 A 
ATOM     18  C   UNL     1       7.943  -0.441  22.960  0.00  0.00    +0.064 A 
ATOM     19  C   UNL     1       7.465  -1.732  22.790  0.00  0.00    +0.163 A 
ATOM     20  C   UNL     1       8.233  -2.822  23.178  0.00  0.00    +0.201 A 
ATOM     21  C   UNL     1       9.484  -2.633  23.753  0.00  0.00    +0.163 A 
ATOM     22  C   UNL     1       9.980  -1.349  23.944  0.00  0.00    +0.064 A 
BRANCH  21  23
ATOM     23  O   UNL     1      10.196  -3.742  24.114  0.00  0.00    -0.503 OA
ATOM     24  H   UNL     1      10.105  -3.880  25.074  0.00  0.00    +0.292 HD
ENDBRANCH  21  23
BRANCH  20  25
ATOM     25  O   UNL     1       7.733  -4.081  22.989  0.00  0.00    -0.501 OA
ATOM     26  H   UNL     1       8.506  -4.603  22.690  0.00  0.00    +0.292 HD
ENDBRANCH  20  25
BRANCH  19  27
ATOM     27  O   UNL     1       6.233  -1.924  22.236  0.00  0.00    -0.503 OA
ATOM     28  H   UNL     1       5.642  -1.313  22.722  0.00  0.00    +0.292 HD
ENDBRANCH  19  27
ENDBRANCH  15  17
ENDBRANCH  14  15
ENDBRANCH  13  14
ENDBRANCH   3  13
BRANCH   1  29
ATOM     29  O   UNL     1       5.668   2.256  25.934  0.00  0.00    -0.461 OA
BRANCH  29  36
ATOM     30  C   UNL     1       5.652  -3.859  25.736  0.00  0.00    +0.181 A 
ATOM     31  O   UNL     1       5.083  -2.568  25.669  0.00  0.00    -0.451 OA
ATOM     32  C   UNL     1       5.855  -1.471  26.019  0.00  0.00    +0.147 A 
ATOM     33  C   UNL     1       7.138  -1.631  26.534  0.00  0.00    +0.109 A 
ATOM     34  C   UNL     1       7.880  -0.533  26.948  0.00  0.00    +0.135 A 
ATOM     35  C   UNL     1       7.369   0.741  26.804  0.00  0.00    +0.092 A 
ATOM     36  C   UNL     1       6.128   0.969  26.198  0.00  0.00    +0.131 A 
ATOM     37  C   UNL     1       7.732  -2.959  26.611  0.00  0.00    +0.238 A 
ATOM     38  O   UNL     1       8.876  -3.095  27.041  0.00  0.00    -0.283 OA
ATOM     39  C   UNL     1       5.344  -0.155  25.845  0.00  0.00    +0.093 A 
ATOM     40  C   UNL     1       6.936  -4.087  26.109  0.00  0.00    +0.208 A 
BRANCH  30  42
ATOM     41  C   UNL     1       4.334  -5.974  26.236  0.00  0.00    +0.015 A 
ATOM     42  C   UNL     1       4.763  -4.984  25.315  0.00  0.00    +0.025 A 
ATOM     43  C   UNL     1       4.354  -5.127  23.985  0.00  0.00    +0.060 A 
ATOM     44  C   UNL     1       3.641  -6.261  23.591  0.00  0.00    +0.159 A 
ATOM     45  C   UNL     1       3.325  -7.272  24.494  0.00  0.00    +0.158 A 
ATOM     46  C   UNL     1       3.654  -7.131  25.829  0.00  0.00    +0.050 A 
BRANCH  45  47
ATOM     47  O   UNL     1       2.695  -8.387  24.019  0.00  0.00    -0.503 OA
ATOM     48  H   UNL     1       2.779  -9.096  24.681  0.00  0.00    +0.292 HD
ENDBRANCH  45  47
BRANCH  44  49
ATOM     49  O   UNL     1       3.270  -6.393  22.282  0.00  0.00    -0.503 OA
ATOM     50  H   UNL     1       2.333  -6.675  22.318  0.00  0.00    +0.292 HD
ENDBRANCH  44  49
ENDBRANCH  30  42
BRANCH  40  51
ATOM     51  O   UNL     1       7.595  -5.299  26.052  0.00  0.00    -0.501 OA
ATOM     52  H   UNL     1       7.883  -5.532  26.951  0.00  0.00    +0.292 HD
ENDBRANCH  40  51
BRANCH  34  53
ATOM     53  O   UNL     1       9.132  -0.619  27.491  0.00  0.00    -0.506 OA
ATOM     54  H   UNL     1       9.788  -0.521  26.761  0.00  0.00    +0.292 HD
ENDBRANCH  34  53
ENDBRANCH  29  36
ENDBRANCH   1  29
TORSDOF 17
ENDMDL
MODEL 4
REMARK VINA RESULT:      -7.3      1.964      8.094
REMARK  Name = 
REMARK  17 active torsions:
REMARK  status: ('A' for Active; 'I' for Inactive)
REMARK    1  A    between atoms: C_3  and  O_47
REMARK    2  A    between atoms: C_4  and  O_46
REMARK    3  A    between atoms: C_6  and  C_7
REMARK    4  A    between atoms: C_8  and  O_45
REMARK    5  A    between atoms: C_12  and  O_44
REMARK    6  A    between atoms: C_14  and  O_18
REMARK    7  A    between atoms: O_18  and  C_19
REMARK    8  A    between atoms: C_21  and  O_43
REMARK    9  A    between atoms: C_22  and  O_42
REMARK   10  A    between atoms: C_24  and  O_41
REMARK   11  A    between atoms: C_26  and  C_28
REMARK   12  A    between atoms: C_28  and  O_29
REMARK   13  A    between atoms: O_29  and  C_30
REMARK   14  A    between atoms: C_30  and  C_32
REMARK   15  A    between atoms: C_34  and  O_40
REMARK   16  A    between atoms: C_35  and  O_39
REMARK   17  A    between atoms: C_36  and  O_38
REMARK                            x       y       z     vdW  Elec       q    Type
REMARK                         _______ _______ _______ _____ _____    ______ ____
ROOT
ATOM      1  C   UNL     1       7.277   4.870  23.023  0.00  0.00    +0.339 C 
ATOM      2  O   UNL     1       6.629   4.431  24.220  0.00  0.00    -0.330 OA
ATOM      3  C   UNL     1       5.201   4.515  24.235  0.00  0.00    +0.191 C 
ATOM      4  C   UNL     1       4.813   5.996  24.197  0.00  0.00    +0.178 C 
ATOM      5  C   UNL     1       5.299   6.585  22.866  0.00  0.00    +0.180 C 
ATOM      6  C   UNL     1       6.783   6.281  22.590  0.00  0.00    +0.214 C 
ENDROOT
BRANCH   6   7
ATOM      7  O   UNL     1       7.133   6.616  21.245  0.00  0.00    -0.383 OA
ATOM      8  H   UNL     1       7.858   7.270  21.300  0.00  0.00    +0.210 HD
ENDBRANCH   6   7
BRANCH   5   9
ATOM      9  O   UNL     1       4.490   6.164  21.761  0.00  0.00    -0.386 OA
ATOM     10  H   UNL     1       4.365   5.199  21.800  0.00  0.00    +0.210 HD
ENDBRANCH   5   9
BRANCH   4  11
ATOM     11  O   UNL     1       5.440   6.673  25.296  0.00  0.00    -0.386 OA
ATOM     12  H   UNL     1       6.374   6.835  25.077  0.00  0.00    +0.210 HD
ENDBRANCH   4  11
BRANCH   3  13
ATOM     13  C   UNL     1       4.721   3.828  25.522  0.00  0.00    +0.266 C 
BRANCH  13  14
ATOM     14  O   UNL     1       5.519   2.652  25.787  0.00  0.00    -0.458 OA
BRANCH  14  15
ATOM     15  C   UNL     1       4.821   1.511  25.996  0.00  0.00    +0.340 C 
ATOM     16  O   UNL     1       3.602   1.415  26.019  0.00  0.00    -0.245 OA
BRANCH  15  17
ATOM     17  C   UNL     1       5.747   0.381  26.233  0.00  0.00    +0.066 A 
ATOM     18  C   UNL     1       7.113   0.667  26.377  0.00  0.00    +0.064 A 
ATOM     19  C   UNL     1       8.004  -0.373  26.600  0.00  0.00    +0.163 A 
ATOM     20  C   UNL     1       7.548  -1.680  26.703  0.00  0.00    +0.201 A 
ATOM     21  C   UNL     1       6.194  -1.966  26.571  0.00  0.00    +0.163 A 
ATOM     22  C   UNL     1       5.282  -0.943  26.337  0.00  0.00    +0.064 A 
BRANCH  21  23
ATOM     23  O   UNL     1       5.801  -3.269  26.682  0.00  0.00    -0.503 OA
ATOM     24  H   UNL     1       5.153  -3.467  25.983  0.00  0.00    +0.292 HD
ENDBRANCH  21  23
BRANCH  20  25
ATOM     25  O   UNL     1       8.454  -2.679  26.928  0.00  0.00    -0.501 OA
ATOM     26  H   UNL     1       8.224  -3.364  26.268  0.00  0.00    +0.292 HD
ENDBRANCH  20  25
BRANCH  19  27
ATOM     27  O   UNL     1       9.336  -0.100  26.719  0.00  0.00    -0.503 OA
ATOM     28  H   UNL     1       9.455   0.766  26.278  0.00  0.00    +0.292 HD
ENDBRANCH  19  27
ENDBRANCH  15  17
ENDBRANCH  14  15
ENDBRANCH  13  14
ENDBRANCH   3  13
BRANCH   1  29
ATOM     29  O   UNL     1       7.298   3.837  21.992  0.00  0.00    -0.461 OA
BRANCH  29  36
ATOM     30  C   UNL     1       7.145  -2.195  23.005  0.00  0.00    +0.181 A 
ATOM     31  O   UNL     1       6.598  -0.923  22.728  0.00  0.00    -0.451 OA
ATOM     32  C   UNL     1       7.417   0.193  22.795  0.00  0.00    +0.147 A 
ATOM     33  C   UNL     1       8.735   0.091  23.233  0.00  0.00    +0.109 A 
ATOM     34  C   UNL     1       9.530   1.222  23.365  0.00  0.00    +0.135 A 
ATOM     35  C   UNL     1       9.035   2.461  23.012  0.00  0.00    +0.092 A 
ATOM     36  C   UNL     1       7.753   2.610  22.469  0.00  0.00    +0.131 A 
ATOM     37  C   UNL     1       9.307  -1.216  23.525  0.00  0.00    +0.238 A 
ATOM     38  O   UNL     1      10.479  -1.306  23.885  0.00  0.00    -0.283 OA
ATOM     39  C   UNL     1       6.920   1.467  22.405  0.00  0.00    +0.093 A 
ATOM     40  C   UNL     1       8.450  -2.392  23.317  0.00  0.00    +0.208 A 
BRANCH  30  42
ATOM     41  C   UNL     1       4.912  -3.318  23.472  0.00  0.00    +0.015 A 
ATOM     42  C   UNL     1       6.202  -3.349  22.883  0.00  0.00    +0.025 A 
ATOM     43  C   UNL     1       6.574  -4.521  22.217  0.00  0.00    +0.060 A 
ATOM     44  C   UNL     1       5.730  -5.634  22.238  0.00  0.00    +0.159 A 
ATOM     45  C   UNL     1       4.515  -5.613  22.917  0.00  0.00    +0.158 A 
ATOM     46  C   UNL     1       4.086  -4.448  23.526  0.00  0.00    +0.050 A 
BRANCH  45  47
ATOM     47  O   UNL     1       3.780  -6.764  22.959  0.00  0.00    -0.503 OA
ATOM     48  H   UNL     1       3.456  -6.957  22.061  0.00  0.00    +0.292 HD
ENDBRANCH  45  47
BRANCH  44  49
ATOM     49  O   UNL     1       6.121  -6.778  21.601  0.00  0.00    -0.503 OA
ATOM     50  H   UNL     1       6.012  -6.580  20.649  0.00  0.00    +0.292 HD
ENDBRANCH  44  49
ENDBRANCH  30  42
BRANCH  40  51
ATOM     51  O   UNL     1       9.078  -3.614  23.450  0.00  0.00    -0.501 OA
ATOM     52  H   UNL     1       9.494  -3.838  22.601  0.00  0.00    +0.292 HD
ENDBRANCH  40  51
BRANCH  34  53
ATOM     53  O   UNL     1      10.820   1.199  23.817  0.00  0.00    -0.506 OA
ATOM     54  H   UNL     1      11.398   1.574  23.111  0.00  0.00    +0.292 HD
ENDBRANCH  34  53
ENDBRANCH  29  36
ENDBRANCH   1  29
TORSDOF 17
ENDMDL
MODEL 5
REMARK VINA RESULT:      -7.2      2.091      3.399
REMARK  Name = 
REMARK  17 active torsions:
REMARK  status: ('A' for Active; 'I' for Inactive)
REMARK    1  A    between atoms: C_3  and  O_47
REMARK    2  A    between atoms: C_4  and  O_46
REMARK    3  A    between atoms: C_6  and  C_7
REMARK    4  A    between atoms: C_8  and  O_45
REMARK    5  A    between atoms: C_12  and  O_44
REMARK    6  A    between atoms: C_14  and  O_18
REMARK    7  A    between atoms: O_18  and  C_19
REMARK    8  A    between atoms: C_21  and  O_43
REMARK    9  A    between atoms: C_22  and  O_42
REMARK   10  A    between atoms: C_24  and  O_41
REMARK   11  A    between atoms: C_26  and  C_28
REMARK   12  A    between atoms: C_28  and  O_29
REMARK   13  A    between atoms: O_29  and  C_30
REMARK   14  A    between atoms: C_30  and  C_32
REMARK   15  A    between atoms: C_34  and  O_40
REMARK   16  A    between atoms: C_35  and  O_39
REMARK   17  A    between atoms: C_36  and  O_38
REMARK                            x       y       z     vdW  Elec       q    Type
REMARK                         _______ _______ _______ _____ _____    ______ ____
ROOT
ATOM      1  C   UNL     1       4.895  -4.049  23.253  0.00  0.00    +0.339 C 
ATOM      2  O   UNL     1       4.248  -3.665  24.469  0.00  0.00    -0.330 OA
ATOM      3  C   UNL     1       4.075  -4.695  25.447  0.00  0.00    +0.191 C 
ATOM      4  C   UNL     1       3.090  -5.723  24.883  0.00  0.00    +0.178 C 
ATOM      5  C   UNL     1       3.724  -6.364  23.641  0.00  0.00    +0.180 C 
ATOM      6  C   UNL     1       4.242  -5.320  22.635  0.00  0.00    +0.214 C 
ENDROOT
BRANCH   6   7
ATOM      7  O   UNL     1       5.045  -5.937  21.625  0.00  0.00    -0.383 OA
ATOM      8  H   UNL     1       5.975  -5.715  21.834  0.00  0.00    +0.210 HD
ENDBRANCH   6   7
BRANCH   5   9
ATOM      9  O   UNL     1       4.765  -7.287  23.982  0.00  0.00    -0.386 OA
ATOM     10  H   UNL     1       4.570  -8.156  23.586  0.00  0.00    +0.210 HD
ENDBRANCH   5   9
BRANCH   4  11
ATOM     11  O   UNL     1       1.870  -5.058  24.527  0.00  0.00    -0.386 OA
ATOM     12  H   UNL     1       1.578  -5.376  23.655  0.00  0.00    +0.210 HD
ENDBRANCH   4  11
BRANCH   3  13
ATOM     13  C   UNL     1       3.539  -4.023  26.720  0.00  0.00    +0.266 C 
BRANCH  13  14
ATOM     14  O   UNL     1       4.619  -3.393  27.444  0.00  0.00    -0.458 OA
BRANCH  14  15
ATOM     15  C   UNL     1       5.565  -4.233  27.924  0.00  0.00    +0.340 C 
ATOM     16  O   UNL     1       5.445  -4.959  28.902  0.00  0.00    -0.245 OA
BRANCH  15  17
ATOM     17  C   UNL     1       6.800  -4.131  27.113  0.00  0.00    +0.066 A 
ATOM     18  C   UNL     1       7.423  -5.320  26.707  0.00  0.00    +0.064 A 
ATOM     19  C   UNL     1       8.581  -5.253  25.946  0.00  0.00    +0.163 A 
ATOM     20  C   UNL     1       9.105  -4.025  25.569  0.00  0.00    +0.201 A 
ATOM     21  C   UNL     1       8.484  -2.844  25.960  0.00  0.00    +0.163 A 
ATOM     22  C   UNL     1       7.328  -2.884  26.731  0.00  0.00    +0.064 A 
BRANCH  21  23
ATOM     23  O   UNL     1       9.042  -1.664  25.558  0.00  0.00    -0.503 OA
ATOM     24  H   UNL     1       8.337  -1.070  25.246  0.00  0.00    +0.292 HD
ENDBRANCH  21  23
BRANCH  20  25
ATOM     25  O   UNL     1      10.244  -3.997  24.813  0.00  0.00    -0.501 OA
ATOM     26  H   UNL     1      10.525  -4.934  24.770  0.00  0.00    +0.292 HD
ENDBRANCH  20  25
BRANCH  19  27
ATOM     27  O   UNL     1       9.202  -6.409  25.569  0.00  0.00    -0.503 OA
ATOM     28  H   UNL     1       9.601  -6.206  24.699  0.00  0.00    +0.292 HD
ENDBRANCH  19  27
ENDBRANCH  15  17
ENDBRANCH  14  15
ENDBRANCH  13  14
ENDBRANCH   3  13
BRANCH   1  29
ATOM     29  O   UNL     1       6.349  -4.051  23.373  0.00  0.00    -0.461 OA
BRANCH  29  36
ATOM     30  C   UNL     1       6.997   2.028  23.122  0.00  0.00    +0.181 A 
ATOM     31  O   UNL     1       6.301   0.816  23.322  0.00  0.00    -0.451 OA
ATOM     32  C   UNL     1       6.924  -0.381  23.002  0.00  0.00    +0.147 A 
ATOM     33  C   UNL     1       8.174  -0.398  22.391  0.00  0.00    +0.109 A 
ATOM     34  C   UNL     1       8.762  -1.597  22.009  0.00  0.00    +0.135 A 
ATOM     35  C   UNL     1       8.132  -2.794  22.280  0.00  0.00    +0.092 A 
ATOM     36  C   UNL     1       6.922  -2.842  22.984  0.00  0.00    +0.131 A 
ATOM     37  C   UNL     1       8.898   0.847  22.177  0.00  0.00    +0.238 A 
ATOM     38  O   UNL     1      10.014   0.827  21.662  0.00  0.00    -0.283 OA
ATOM     39  C   UNL     1       6.291  -1.618  23.306  0.00  0.00    +0.093 A 
ATOM     40  C   UNL     1       8.266   2.088  22.648  0.00  0.00    +0.208 A 
BRANCH  30  42
ATOM     41  C   UNL     1       6.151   3.661  24.877  0.00  0.00    +0.015 A 
ATOM     42  C   UNL     1       6.267   3.270  23.518  0.00  0.00    +0.025 A 
ATOM     43  C   UNL     1       5.633   4.074  22.565  0.00  0.00    +0.060 A 
ATOM     44  C   UNL     1       4.841   5.149  22.973  0.00  0.00    +0.159 A 
ATOM     45  C   UNL     1       4.655   5.446  24.320  0.00  0.00    +0.158 A 
ATOM     46  C   UNL     1       5.322   4.714  25.285  0.00  0.00    +0.050 A 
BRANCH  45  47
ATOM     47  O   UNL     1       3.803   6.464  24.645  0.00  0.00    -0.503 OA
ATOM     48  H   UNL     1       4.220   7.308  24.395  0.00  0.00    +0.292 HD
ENDBRANCH  45  47
BRANCH  44  49
ATOM     49  O   UNL     1       4.211   5.910  22.028  0.00  0.00    -0.503 OA
ATOM     50  H   UNL     1       4.736   5.775  21.213  0.00  0.00    +0.292 HD
ENDBRANCH  44  49
ENDBRANCH  30  42
BRANCH  40  51
ATOM     51  O   UNL     1       9.053   3.220  22.570  0.00  0.00    -0.501 OA
ATOM     52  H   UNL     1       8.581   3.884  22.041  0.00  0.00    +0.292 HD
ENDBRANCH  40  51
BRANCH  34  53
ATOM     53  O   UNL     1       9.972  -1.687  21.378  0.00  0.00    -0.506 OA
ATOM     54  H   UNL     1      10.253  -0.776  21.125  0.00  0.00    +0.292 HD
ENDBRANCH  34  53
ENDBRANCH  29  36
ENDBRANCH   1  29
TORSDOF 17
ENDMDL
MODEL 6
REMARK VINA RESULT:      -7.2      2.013      8.277
REMARK  Name = 
REMARK  17 active torsions:
REMARK  status: ('A' for Active; 'I' for Inactive)
REMARK    1  A    between atoms: C_3  and  O_47
REMARK    2  A    between atoms: C_4  and  O_46
REMARK    3  A    between atoms: C_6  and  C_7
REMARK    4  A    between atoms: C_8  and  O_45
REMARK    5  A    between atoms: C_12  and  O_44
REMARK    6  A    between atoms: C_14  and  O_18
REMARK    7  A    between atoms: O_18  and  C_19
REMARK    8  A    between atoms: C_21  and  O_43
REMARK    9  A    between atoms: C_22  and  O_42
REMARK   10  A    between atoms: C_24  and  O_41
REMARK   11  A    between atoms: C_26  and  C_28
REMARK   12  A    between atoms: C_28  and  O_29
REMARK   13  A    between atoms: O_29  and  C_30
REMARK   14  A    between atoms: C_30  and  C_32
REMARK   15  A    between atoms: C_34  and  O_40
REMARK   16  A    between atoms: C_35  and  O_39
REMARK   17  A    between atoms: C_36  and  O_38
REMARK                            x       y       z     vdW  Elec       q    Type
REMARK                         _______ _______ _______ _____ _____    ______ ____
ROOT
ATOM      1  C   UNL     1       7.544   0.491  24.339  0.00  0.00    +0.339 C 
ATOM      2  O   UNL     1       7.562  -0.517  23.326  0.00  0.00    -0.330 OA
ATOM      3  C   UNL     1       8.829  -1.128  23.063  0.00  0.00    +0.191 C 
ATOM      4  C   UNL     1       9.751  -0.065  22.460  0.00  0.00    +0.178 C 
ATOM      5  C   UNL     1       9.974   1.030  23.512  0.00  0.00    +0.180 C 
ATOM      6  C   UNL     1       8.655   1.556  24.106  0.00  0.00    +0.214 C 
ENDROOT
BRANCH   6   7
ATOM      7  O   UNL     1       8.901   2.379  25.250  0.00  0.00    -0.383 OA
ATOM      8  H   UNL     1       9.445   3.131  24.941  0.00  0.00    +0.210 HD
ENDBRANCH   6   7
BRANCH   5   9
ATOM      9  O   UNL     1      10.857   0.604  24.557  0.00  0.00    -0.386 OA
ATOM     10  H   UNL     1      11.772   0.594  24.224  0.00  0.00    +0.210 HD
ENDBRANCH   5   9
BRANCH   4  11
ATOM     11  O   UNL     1       9.129   0.490  21.292  0.00  0.00    -0.386 OA
ATOM     12  H   UNL     1       9.216   1.459  21.318  0.00  0.00    +0.210 HD
ENDBRANCH   4  11
BRANCH   3  13
ATOM     13  C   UNL     1       8.577  -2.289  22.090  0.00  0.00    +0.266 C 
BRANCH  13  14
ATOM     14  O   UNL     1       7.334  -2.951  22.414  0.00  0.00    -0.458 OA
BRANCH  14  15
ATOM     15  C   UNL     1       7.399  -4.300  22.502  0.00  0.00    +0.340 C 
ATOM     16  O   UNL     1       7.350  -5.080  21.561  0.00  0.00    -0.245 OA
BRANCH  15  17
ATOM     17  C   UNL     1       7.505  -4.715  23.920  0.00  0.00    +0.066 A 
ATOM     18  C   UNL     1       6.371  -5.272  24.530  0.00  0.00    +0.064 A 
ATOM     19  C   UNL     1       6.442  -5.670  25.857  0.00  0.00    +0.163 A 
ATOM     20  C   UNL     1       7.628  -5.541  26.568  0.00  0.00    +0.201 A 
ATOM     21  C   UNL     1       8.756  -5.000  25.962  0.00  0.00    +0.163 A 
ATOM     22  C   UNL     1       8.708  -4.585  24.637  0.00  0.00    +0.064 A 
BRANCH  21  23
ATOM     23  O   UNL     1       9.896  -4.899  26.708  0.00  0.00    -0.503 OA
ATOM     24  H   UNL     1       9.742  -5.305  27.580  0.00  0.00    +0.292 HD
ENDBRANCH  21  23
BRANCH  20  25
ATOM     25  O   UNL     1       7.663  -5.950  27.872  0.00  0.00    -0.501 OA
ATOM     26  H   UNL     1       7.042  -5.346  28.329  0.00  0.00    +0.292 HD
ENDBRANCH  20  25
BRANCH  19  27
ATOM     27  O   UNL     1       5.334  -6.191  26.460  0.00  0.00    -0.503 OA
ATOM     28  H   UNL     1       4.989  -6.849  25.824  0.00  0.00    +0.292 HD
ENDBRANCH  19  27
ENDBRANCH  15  17
ENDBRANCH  14  15
ENDBRANCH  13  14
ENDBRANCH   3  13
BRANCH   1  29
ATOM     29  O   UNL     1       7.446  -0.072  25.682  0.00  0.00    -0.461 OA
BRANCH  29  36
ATOM     30  C   UNL     1       2.654  -3.844  25.186  0.00  0.00    +0.181 A 
ATOM     31  O   UNL     1       3.836  -3.202  24.755  0.00  0.00    -0.451 OA
ATOM     32  C   UNL     1       4.372  -2.184  25.529  0.00  0.00    +0.147 A 
ATOM     33  C   UNL     1       3.708  -1.717  26.659  0.00  0.00    +0.109 A 
ATOM     34  C   UNL     1       4.214  -0.650  27.391  0.00  0.00    +0.135 A 
ATOM     35  C   UNL     1       5.414  -0.072  27.032  0.00  0.00    +0.092 A 
ATOM     36  C   UNL     1       6.176  -0.567  25.966  0.00  0.00    +0.131 A 
ATOM     37  C   UNL     1       2.487  -2.370  27.109  0.00  0.00    +0.238 A 
ATOM     38  O   UNL     1       1.917  -1.973  28.124  0.00  0.00    -0.283 OA
ATOM     39  C   UNL     1       5.623  -1.605  25.179  0.00  0.00    +0.093 A 
ATOM     40  C   UNL     1       2.016  -3.531  26.341  0.00  0.00    +0.208 A 
BRANCH  30  42
ATOM     41  C   UNL     1       1.128  -4.735  23.358  0.00  0.00    +0.015 A 
ATOM     42  C   UNL     1       2.158  -4.949  24.310  0.00  0.00    +0.025 A 
ATOM     43  C   UNL     1       2.664  -6.248  24.425  0.00  0.00    +0.060 A 
ATOM     44  C   UNL     1       2.088  -7.290  23.696  0.00  0.00    +0.159 A 
ATOM     45  C   UNL     1       1.005  -7.072  22.848  0.00  0.00    +0.158 A 
ATOM     46  C   UNL     1       0.525  -5.789  22.658  0.00  0.00    +0.050 A 
BRANCH  45  47
ATOM     47  O   UNL     1       0.444  -8.153  22.228  0.00  0.00    -0.503 OA
ATOM     48  H   UNL     1       1.136  -8.611  21.719  0.00  0.00    +0.292 HD
ENDBRANCH  45  47
BRANCH  44  49
ATOM     49  O   UNL     1       2.581  -8.556  23.839  0.00  0.00    -0.503 OA
ATOM     50  H   UNL     1       1.824  -9.080  24.172  0.00  0.00    +0.292 HD
ENDBRANCH  44  49
ENDBRANCH  30  42
BRANCH  40  51
ATOM     51  O   UNL     1       0.950  -4.214  26.891  0.00  0.00    -0.501 OA
ATOM     52  H   UNL     1       1.269  -5.079  27.199  0.00  0.00    +0.292 HD
ENDBRANCH  40  51
BRANCH  34  53
ATOM     53  O   UNL     1       3.600  -0.120  28.492  0.00  0.00    -0.506 OA
ATOM     54  H   UNL     1       4.174   0.600  28.844  0.00  0.00    +0.292 HD
ENDBRANCH  34  53
ENDBRANCH  29  36
ENDBRANCH   1  29
TORSDOF 17
ENDMDL
MODEL 7
REMARK VINA RESULT:      -7.2      2.355      8.731
REMARK  Name = 
REMARK  17 active torsions:
REMARK  status: ('A' for Active; 'I' for Inactive)
REMARK    1  A    between atoms: C_3  and  O_47
REMARK    2  A    between atoms: C_4  and  O_46
REMARK    3  A    between atoms: C_6  and  C_7
REMARK    4  A    between atoms: C_8  and  O_45
REMARK    5  A    between atoms: C_12  and  O_44
REMARK    6  A    between atoms: C_14  and  O_18
REMARK    7  A    between atoms: O_18  and  C_19
REMARK    8  A    between atoms: C_21  and  O_43
REMARK    9  A    between atoms: C_22  and  O_42
REMARK   10  A    between atoms: C_24  and  O_41
REMARK   11  A    between atoms: C_26  and  C_28
REMARK   12  A    between atoms: C_28  and  O_29
REMARK   13  A    between atoms: O_29  and  C_30
REMARK   14  A    between atoms: C_30  and  C_32
REMARK   15  A    between atoms: C_34  and  O_40
REMARK   16  A    between atoms: C_35  and  O_39
REMARK   17  A    between atoms: C_36  and  O_38
REMARK                            x       y       z     vdW  Elec       q    Type
REMARK                         _______ _______ _______ _____ _____    ______ ____
ROOT
ATOM      1  C   UNL     1       7.967   1.311  24.291  0.00  0.00    +0.339 C 
ATOM      2  O   UNL     1       8.064   0.259  23.328  0.00  0.00    -0.330 OA
ATOM      3  C   UNL     1       9.362   0.025  22.773  0.00  0.00    +0.191 C 
ATOM      4  C   UNL     1       9.746   1.249  21.936  0.00  0.00    +0.178 C 
ATOM      5  C   UNL     1       9.852   2.458  22.874  0.00  0.00    +0.180 C 
ATOM      6  C   UNL     1       8.608   2.628  23.765  0.00  0.00    +0.214 C 
ENDROOT
BRANCH   6   7
ATOM      7  O   UNL     1       8.842   3.595  24.792  0.00  0.00    -0.383 OA
ATOM      8  H   UNL     1       8.027   4.131  24.861  0.00  0.00    +0.210 HD
ENDBRANCH   6   7
BRANCH   5   9
ATOM      9  O   UNL     1      11.038   2.417  23.677  0.00  0.00    -0.386 OA
ATOM     10  H   UNL     1      11.093   1.557  24.130  0.00  0.00    +0.210 HD
ENDBRANCH   5   9
BRANCH   4  11
ATOM     11  O   UNL     1       8.732   1.478  20.947  0.00  0.00    -0.386 OA
ATOM     12  H   UNL     1       9.130   1.400  20.062  0.00  0.00    +0.210 HD
ENDBRANCH   4  11
BRANCH   3  13
ATOM     13  C   UNL     1       9.267  -1.248  21.920  0.00  0.00    +0.266 C 
BRANCH  13  14
ATOM     14  O   UNL     1       9.238  -2.417  22.770  0.00  0.00    -0.458 OA
BRANCH  14  15
ATOM     15  C   UNL     1       8.049  -3.058  22.836  0.00  0.00    +0.340 C 
ATOM     16  O   UNL     1       7.156  -2.994  22.002  0.00  0.00    -0.245 OA
BRANCH  15  17
ATOM     17  C   UNL     1       7.957  -3.837  24.092  0.00  0.00    +0.066 A 
ATOM     18  C   UNL     1       6.802  -4.603  24.309  0.00  0.00    +0.064 A 
ATOM     19  C   UNL     1       6.689  -5.343  25.477  0.00  0.00    +0.163 A 
ATOM     20  C   UNL     1       7.717  -5.346  26.411  0.00  0.00    +0.201 A 
ATOM     21  C   UNL     1       8.867  -4.596  26.193  0.00  0.00    +0.163 A 
ATOM     22  C   UNL     1       9.000  -3.839  25.035  0.00  0.00    +0.064 A 
BRANCH  21  23
ATOM     23  O   UNL     1       9.847  -4.638  27.144  0.00  0.00    -0.503 OA
ATOM     24  H   UNL     1      10.696  -4.395  26.735  0.00  0.00    +0.292 HD
ENDBRANCH  21  23
BRANCH  20  25
ATOM     25  O   UNL     1       7.573  -6.092  27.548  0.00  0.00    -0.501 OA
ATOM     26  H   UNL     1       7.935  -5.520  28.256  0.00  0.00    +0.292 HD
ENDBRANCH  20  25
BRANCH  19  27
ATOM     27  O   UNL     1       5.557  -6.071  25.702  0.00  0.00    -0.503 OA
ATOM     28  H   UNL     1       5.522  -6.715  24.965  0.00  0.00    +0.292 HD
ENDBRANCH  19  27
ENDBRANCH  15  17
ENDBRANCH  14  15
ENDBRANCH  13  14
ENDBRANCH   3  13
BRANCH   1  29
ATOM     29  O   UNL     1       8.359   0.879  25.629  0.00  0.00    -0.461 OA
BRANCH  29  36
ATOM     30  C   UNL     1       4.171  -2.834  28.103  0.00  0.00    +0.181 A 
ATOM     31  O   UNL     1       5.123  -2.428  27.141  0.00  0.00    -0.451 OA
ATOM     32  C   UNL     1       5.665  -1.154  27.224  0.00  0.00    +0.147 A 
ATOM     33  C   UNL     1       5.208  -0.240  28.169  0.00  0.00    +0.109 A 
ATOM     34  C   UNL     1       5.704   1.056  28.203  0.00  0.00    +0.135 A 
ATOM     35  C   UNL     1       6.699   1.439  27.326  0.00  0.00    +0.092 A 
ATOM     36  C   UNL     1       7.268   0.533  26.423  0.00  0.00    +0.131 A 
ATOM     37  C   UNL     1       4.224  -0.649  29.162  0.00  0.00    +0.238 A 
ATOM     38  O   UNL     1       3.843   0.152  30.014  0.00  0.00    -0.283 OA
ATOM     39  C   UNL     1       6.710  -0.765  26.342  0.00  0.00    +0.093 A 
ATOM     40  C   UNL     1       3.767  -2.045  29.129  0.00  0.00    +0.208 A 
BRANCH  30  42
ATOM     41  C   UNL     1       2.547  -4.531  27.130  0.00  0.00    +0.015 A 
ATOM     42  C   UNL     1       3.658  -4.230  27.959  0.00  0.00    +0.025 A 
ATOM     43  C   UNL     1       4.230  -5.290  28.672  0.00  0.00    +0.060 A 
ATOM     44  C   UNL     1       3.646  -6.557  28.629  0.00  0.00    +0.159 A 
ATOM     45  C   UNL     1       2.490  -6.801  27.892  0.00  0.00    +0.158 A 
ATOM     46  C   UNL     1       1.939  -5.793  27.122  0.00  0.00    +0.050 A 
BRANCH  45  47
ATOM     47  O   UNL     1       1.931  -8.045  27.961  0.00  0.00    -0.503 OA
ATOM     48  H   UNL     1       2.624  -8.682  28.211  0.00  0.00    +0.292 HD
ENDBRANCH  45  47
BRANCH  44  49
ATOM     49  O   UNL     1       4.205  -7.574  29.350  0.00  0.00    -0.503 OA
ATOM     50  H   UNL     1       4.394  -7.181  30.226  0.00  0.00    +0.292 HD
ENDBRANCH  44  49
ENDBRANCH  30  42
BRANCH  40  51
ATOM     51  O   UNL     1       2.960  -2.430  30.181  0.00  0.00    -0.501 OA
ATOM     52  H   UNL     1       2.796  -3.385  30.105  0.00  0.00    +0.292 HD
ENDBRANCH  40  51
BRANCH  34  53
ATOM     53  O   UNL     1       5.280   2.014  29.082  0.00  0.00    -0.506 OA
ATOM     54  H   UNL     1       4.375   1.769  29.387  0.00  0.00    +0.292 HD
ENDBRANCH  34  53
ENDBRANCH  29  36
ENDBRANCH   1  29
TORSDOF 17
ENDMDL
MODEL 8
REMARK VINA RESULT:      -7.1      1.910      3.627
REMARK  Name = 
REMARK  17 active torsions:
REMARK  status: ('A' for Active; 'I' for Inactive)
REMARK    1  A    between atoms: C_3  and  O_47
REMARK    2  A    between atoms: C_4  and  O_46
REMARK    3  A    between atoms: C_6  and  C_7
REMARK    4  A    between atoms: C_8  and  O_45
REMARK    5  A    between atoms: C_12  and  O_44
REMARK    6  A    between atoms: C_14  and  O_18
REMARK    7  A    between atoms: O_18  and  C_19
REMARK    8  A    between atoms: C_21  and  O_43
REMARK    9  A    between atoms: C_22  and  O_42
REMARK   10  A    between atoms: C_24  and  O_41
REMARK   11  A    between atoms: C_26  and  C_28
REMARK   12  A    between atoms: C_28  and  O_29
REMARK   13  A    between atoms: O_29  and  C_30
REMARK   14  A    between atoms: C_30  and  C_32
REMARK   15  A    between atoms: C_34  and  O_40
REMARK   16  A    between atoms: C_35  and  O_39
REMARK   17  A    between atoms: C_36  and  O_38
REMARK                            x       y       z     vdW  Elec       q    Type
REMARK                         _______ _______ _______ _____ _____    ______ ____
ROOT
ATOM      1  C   UNL     1       4.923  -4.351  23.163  0.00  0.00    +0.339 C 
ATOM      2  O   UNL     1       3.759  -3.826  23.805  0.00  0.00    -0.330 OA
ATOM      3  C   UNL     1       3.041  -4.728  24.653  0.00  0.00    +0.191 C 
ATOM      4  C   UNL     1       2.440  -5.827  23.773  0.00  0.00    +0.178 C 
ATOM      5  C   UNL     1       3.593  -6.611  23.131  0.00  0.00    +0.180 C 
ATOM      6  C   UNL     1       4.619  -5.695  22.440  0.00  0.00    +0.214 C 
ENDROOT
BRANCH   6   7
ATOM      7  O   UNL     1       5.795  -6.425  22.080  0.00  0.00    -0.383 OA
ATOM      8  H   UNL     1       6.302  -6.562  22.905  0.00  0.00    +0.210 HD
ENDBRANCH   6   7
BRANCH   5   9
ATOM      9  O   UNL     1       4.247  -7.475  24.068  0.00  0.00    -0.386 OA
ATOM     10  H   UNL     1       4.375  -7.003  24.910  0.00  0.00    +0.210 HD
ENDBRANCH   5   9
BRANCH   4  11
ATOM     11  O   UNL     1       1.626  -5.224  22.757  0.00  0.00    -0.386 OA
ATOM     12  H   UNL     1       1.101  -4.508  23.157  0.00  0.00    +0.210 HD
ENDBRANCH   4  11
BRANCH   3  13
ATOM     13  C   UNL     1       1.957  -3.908  25.369  0.00  0.00    +0.266 C 
BRANCH  13  14
ATOM     14  O   UNL     1       2.564  -2.985  26.301  0.00  0.00    -0.458 OA
BRANCH  14  15
ATOM     15  C   UNL     1       2.752  -3.463  27.554  0.00  0.00    +0.340 C 
ATOM     16  O   UNL     1       2.003  -3.285  28.505  0.00  0.00    -0.245 OA
BRANCH  15  17
ATOM     17  C   UNL     1       4.025  -4.216  27.629  0.00  0.00    +0.066 A 
ATOM     18  C   UNL     1       5.211  -3.539  27.309  0.00  0.00    +0.064 A 
ATOM     19  C   UNL     1       6.418  -4.219  27.371  0.00  0.00    +0.163 A 
ATOM     20  C   UNL     1       6.457  -5.549  27.768  0.00  0.00    +0.201 A 
ATOM     21  C   UNL     1       5.284  -6.219  28.096  0.00  0.00    +0.163 A 
ATOM     22  C   UNL     1       4.061  -5.563  28.033  0.00  0.00    +0.064 A 
BRANCH  21  23
ATOM     23  O   UNL     1       5.381  -7.526  28.482  0.00  0.00    -0.503 OA
ATOM     24  H   UNL     1       6.308  -7.812  28.404  0.00  0.00    +0.292 HD
ENDBRANCH  21  23
BRANCH  20  25
ATOM     25  O   UNL     1       7.665  -6.186  27.823  0.00  0.00    -0.501 OA
ATOM     26  H   UNL     1       7.905  -6.162  28.772  0.00  0.00    +0.292 HD
ENDBRANCH  20  25
BRANCH  19  27
ATOM     27  O   UNL     1       7.571  -3.569  27.038  0.00  0.00    -0.503 OA
ATOM     28  H   UNL     1       7.284  -2.823  26.474  0.00  0.00    +0.292 HD
ENDBRANCH  19  27
ENDBRANCH  15  17
ENDBRANCH  14  15
ENDBRANCH  13  14
ENDBRANCH   3  13
BRANCH   1  29
ATOM     29  O   UNL     1       6.097  -4.324  24.030  0.00  0.00    -0.461 OA
BRANCH  29  36
ATOM     30  C   UNL     1       7.718   1.530  23.288  0.00  0.00    +0.181 A 
ATOM     31  O   UNL     1       6.819   0.442  23.354  0.00  0.00    -0.451 OA
ATOM     32  C   UNL     1       7.324  -0.846  23.453  0.00  0.00    +0.147 A 
ATOM     33  C   UNL     1       8.692  -1.087  23.380  0.00  0.00    +0.109 A 
ATOM     34  C   UNL     1       9.188  -2.384  23.409  0.00  0.00    +0.135 A 
ATOM     35  C   UNL     1       8.326  -3.451  23.563  0.00  0.00    +0.092 A 
ATOM     36  C   UNL     1       6.951  -3.261  23.745  0.00  0.00    +0.131 A 
ATOM     37  C   UNL     1       9.627   0.028  23.309  0.00  0.00    +0.238 A 
ATOM     38  O   UNL     1      10.837  -0.187  23.272  0.00  0.00    -0.283 OA
ATOM     39  C   UNL     1       6.441  -1.945  23.641  0.00  0.00    +0.093 A 
ATOM     40  C   UNL     1       9.065   1.385  23.338  0.00  0.00    +0.208 A 
BRANCH  30  42
ATOM     41  C   UNL     1       5.920   3.203  23.944  0.00  0.00    +0.015 A 
ATOM     42  C   UNL     1       7.093   2.885  23.212  0.00  0.00    +0.025 A 
ATOM     43  C   UNL     1       7.619   3.880  22.381  0.00  0.00    +0.060 A 
ATOM     44  C   UNL     1       6.938   5.089  22.221  0.00  0.00    +0.159 A 
ATOM     45  C   UNL     1       5.730   5.335  22.868  0.00  0.00    +0.158 A 
ATOM     46  C   UNL     1       5.218   4.400  23.749  0.00  0.00    +0.050 A 
BRANCH  45  47
ATOM     47  O   UNL     1       5.082   6.507  22.601  0.00  0.00    -0.503 OA
ATOM     48  H   UNL     1       4.378   6.331  21.952  0.00  0.00    +0.292 HD
ENDBRANCH  45  47
BRANCH  44  49
ATOM     49  O   UNL     1       7.456   6.040  21.387  0.00  0.00    -0.503 OA
ATOM     50  H   UNL     1       8.341   6.236  21.756  0.00  0.00    +0.292 HD
ENDBRANCH  44  49
ENDBRANCH  30  42
BRANCH  40  51
ATOM     51  O   UNL     1       9.989   2.407  23.430  0.00  0.00    -0.501 OA
ATOM     52  H   UNL     1      10.791   2.137  22.952  0.00  0.00    +0.292 HD
ENDBRANCH  40  51
BRANCH  34  53
ATOM     53  O   UNL     1      10.516  -2.697  23.312  0.00  0.00    -0.506 OA
ATOM     54  H   UNL     1      11.006  -1.874  23.076  0.00  0.00    +0.292 HD
ENDBRANCH  34  53
ENDBRANCH  29  36
ENDBRANCH   1  29
TORSDOF 17
ENDMDL
MODEL 9
REMARK VINA RESULT:      -7.1      1.964      8.519
REMARK  Name = 
REMARK  17 active torsions:
REMARK  status: ('A' for Active; 'I' for Inactive)
REMARK    1  A    between atoms: C_3  and  O_47
REMARK    2  A    between atoms: C_4  and  O_46
REMARK    3  A    between atoms: C_6  and  C_7
REMARK    4  A    between atoms: C_8  and  O_45
REMARK    5  A    between atoms: C_12  and  O_44
REMARK    6  A    between atoms: C_14  and  O_18
REMARK    7  A    between atoms: O_18  and  C_19
REMARK    8  A    between atoms: C_21  and  O_43
REMARK    9  A    between atoms: C_22  and  O_42
REMARK   10  A    between atoms: C_24  and  O_41
REMARK   11  A    between atoms: C_26  and  C_28
REMARK   12  A    between atoms: C_28  and  O_29
REMARK   13  A    between atoms: O_29  and  C_30
REMARK   14  A    between atoms: C_30  and  C_32
REMARK   15  A    between atoms: C_34  and  O_40
REMARK   16  A    between atoms: C_35  and  O_39
REMARK   17  A    between atoms: C_36  and  O_38
REMARK                            x       y       z     vdW  Elec       q    Type
REMARK                         _______ _______ _______ _____ _____    ______ ____
ROOT
ATOM      1  C   UNL     1       7.302   2.070  24.409  0.00  0.00    +0.339 C 
ATOM      2  O   UNL     1       8.327   1.139  24.053  0.00  0.00    -0.330 OA
ATOM      3  C   UNL     1       9.673   1.615  24.137  0.00  0.00    +0.191 C 
ATOM      4  C   UNL     1       9.859   2.703  23.076  0.00  0.00    +0.178 C 
ATOM      5  C   UNL     1       8.929   3.874  23.422  0.00  0.00    +0.180 C 
ATOM      6  C   UNL     1       7.477   3.425  23.665  0.00  0.00    +0.214 C 
ENDROOT
BRANCH   6   7
ATOM      7  O   UNL     1       6.701   4.487  24.228  0.00  0.00    -0.383 OA
ATOM      8  H   UNL     1       7.312   5.240  24.359  0.00  0.00    +0.210 HD
ENDBRANCH   6   7
BRANCH   5   9
ATOM      9  O   UNL     1       9.410   4.634  24.536  0.00  0.00    -0.386 OA
ATOM     10  H   UNL     1      10.324   4.367  24.742  0.00  0.00    +0.210 HD
ENDBRANCH   5   9
BRANCH   4  11
ATOM     11  O   UNL     1       9.520   2.166  21.789  0.00  0.00    -0.386 OA
ATOM     12  H   UNL     1       9.432   2.898  21.154  0.00  0.00    +0.210 HD
ENDBRANCH   4  11
BRANCH   3  13
ATOM     13  C   UNL     1      10.595   0.411  23.893  0.00  0.00    +0.266 C 
BRANCH  13  14
ATOM     14  O   UNL     1      10.128  -0.734  24.642  0.00  0.00    -0.458 OA
BRANCH  14  15
ATOM     15  C   UNL     1       9.787  -1.814  23.900  0.00  0.00    +0.340 C 
ATOM     16  O   UNL     1       9.908  -1.913  22.687  0.00  0.00    -0.245 OA
BRANCH  15  17
ATOM     17  C   UNL     1       9.204  -2.865  24.765  0.00  0.00    +0.066 A 
ATOM     18  C   UNL     1       9.778  -4.144  24.727  0.00  0.00    +0.064 A 
ATOM     19  C   UNL     1       9.253  -5.148  25.527  0.00  0.00    +0.163 A 
ATOM     20  C   UNL     1       8.185  -4.885  26.375  0.00  0.00    +0.201 A 
ATOM     21  C   UNL     1       7.621  -3.616  26.424  0.00  0.00    +0.163 A 
ATOM     22  C   UNL     1       8.123  -2.595  25.624  0.00  0.00    +0.064 A 
BRANCH  21  23
ATOM     23  O   UNL     1       6.574  -3.414  27.277  0.00  0.00    -0.503 OA
ATOM     24  H   UNL     1       5.741  -3.469  26.777  0.00  0.00    +0.292 HD
ENDBRANCH  21  23
BRANCH  20  25
ATOM     25  O   UNL     1       7.697  -5.897  27.154  0.00  0.00    -0.501 OA
ATOM     26  H   UNL     1       8.497  -6.325  27.519  0.00  0.00    +0.292 HD
ENDBRANCH  20  25
BRANCH  19  27
ATOM     27  O   UNL     1       9.795  -6.399  25.474  0.00  0.00    -0.503 OA
ATOM     28  H   UNL     1       9.301  -6.857  24.764  0.00  0.00    +0.292 HD
ENDBRANCH  19  27
ENDBRANCH  15  17
ENDBRANCH  14  15
ENDBRANCH  13  14
ENDBRANCH   3  13
BRANCH   1  29
ATOM     29  O   UNL     1       7.089   2.137  25.852  0.00  0.00    -0.461 OA
BRANCH  29  36
ATOM     30  C   UNL     1       3.646  -2.921  25.787  0.00  0.00    +0.181 A 
ATOM     31  O   UNL     1       4.481  -1.926  25.233  0.00  0.00    -0.451 OA
ATOM     32  C   UNL     1       4.818  -0.822  26.001  0.00  0.00    +0.147 A 
ATOM     33  C   UNL     1       4.263  -0.630  27.263  0.00  0.00    +0.109 A 
ATOM     34  C   UNL     1       4.550   0.512  28.000  0.00  0.00    +0.135 A 
ATOM     35  C   UNL     1       5.434   1.449  27.507  0.00  0.00    +0.092 A 
ATOM     36  C   UNL     1       6.101   1.259  26.290  0.00  0.00    +0.131 A 
ATOM     37  C   UNL     1       3.398  -1.649  27.842  0.00  0.00    +0.238 A 
ATOM     38  O   UNL     1       2.931  -1.489  28.968  0.00  0.00    -0.283 OA
ATOM     39  C   UNL     1       5.751   0.131  25.509  0.00  0.00    +0.093 A 
ATOM     40  C   UNL     1       3.166  -2.868  27.055  0.00  0.00    +0.208 A 
BRANCH  30  42
ATOM     41  C   UNL     1       2.101  -4.233  24.253  0.00  0.00    +0.015 A 
ATOM     42  C   UNL     1       3.353  -4.090  24.904  0.00  0.00    +0.025 A 
ATOM     43  C   UNL     1       4.292  -5.111  24.719  0.00  0.00    +0.060 A 
ATOM     44  C   UNL     1       3.943  -6.259  24.003  0.00  0.00    +0.159 A 
ATOM     45  C   UNL     1       2.669  -6.423  23.466  0.00  0.00    +0.158 A 
ATOM     46  C   UNL     1       1.741  -5.404  23.572  0.00  0.00    +0.050 A 
BRANCH  45  47
ATOM     47  O   UNL     1       2.378  -7.605  22.847  0.00  0.00    -0.503 OA
ATOM     48  H   UNL     1       3.093  -7.810  22.219  0.00  0.00    +0.292 HD
ENDBRANCH  45  47
BRANCH  44  49
ATOM     49  O   UNL     1       4.866  -7.255  23.852  0.00  0.00    -0.503 OA
ATOM     50  H   UNL     1       5.731  -6.810  23.958  0.00  0.00    +0.292 HD
ENDBRANCH  44  49
ENDBRANCH  30  42
BRANCH  40  51
ATOM     51  O   UNL     1       2.474  -3.871  27.705  0.00  0.00    -0.501 OA
ATOM     52  H   UNL     1       3.065  -4.636  27.800  0.00  0.00    +0.292 HD
ENDBRANCH  40  51
BRANCH  34  53
ATOM     53  O   UNL     1       4.017   0.780  29.231  0.00  0.00    -0.506 OA
ATOM     54  H   UNL     1       4.270   1.701  29.478  0.00  0.00    +0.292 HD
ENDBRANCH  34  53
ENDBRANCH  29  36
ENDBRANCH   1  29
TORSDOF 17
ENDMDL
