MODEL 1
REMARK VINA RESULT:      -3.3      0.000      0.000
REMARK  Name = 
REMARK  40 active torsions:
REMARK  status: ('A' for Active; 'I' for Inactive)
REMARK    1  A    between atoms: C_1  and  O_2
REMARK    2  A    between atoms: O_2  and  C_3
REMARK    3  A    between atoms: C_5  and  C_12
REMARK    4  A    between atoms: C_7  and  O_10
REMARK    5  A    between atoms: C_8  and  O_9
REMARK    6  A    between atoms: O_10  and  C_11
REMARK    7  A    between atoms: C_13  and  C_14
REMARK    8  A    between atoms: C_14  and  O_16
REMARK    9  A    between atoms: O_16  and  C_17
REMARK   10  A    between atoms: C_17  and  C_18
REMARK   11  A    between atoms: C_20  and  O_94
REMARK   12  A    between atoms: C_22  and  O_93
REMARK   13  A    between atoms: C_23  and  O_92
REMARK   14  A    between atoms: C_24  and  O_27
REMARK   15  A    between atoms: O_27  and  C_28
REMARK   16  A    between atoms: C_29  and  O_77
REMARK   17  A    between atoms: C_32  and  C_34
REMARK   18  A    between atoms: C_35  and  O_47
REMARK   19  A    between atoms: C_39  and  O_46
REMARK   20  A    between atoms: C_41  and  O_45
REMARK   21  A    between atoms: O_47  and  C_48
REMARK   22  A    between atoms: C_50  and  O_61
REMARK   23  A    between atoms: C_51  and  O_60
REMARK   24  A    between atoms: C_53  and  O_59
REMARK   25  A    between atoms: C_55  and  C_57
REMARK   26  A    between atoms: C_57  and  O_58
REMARK   27  A    between atoms: O_61  and  C_62
REMARK   28  A    between atoms: C_62  and  C_64
REMARK   29  A    between atoms: C_65  and  C_66
REMARK   30  A    between atoms: C_68  and  O_75
REMARK   31  A    between atoms: C_69  and  O_74
REMARK   32  A    between atoms: C_70  and  O_72
REMARK   33  A    between atoms: O_72  and  C_73
REMARK   34  A    between atoms: O_75  and  C_76
REMARK   35  A    between atoms: O_77  and  C_78
REMARK   36  A    between atoms: C_80  and  O_91
REMARK   37  A    between atoms: C_81  and  O_90
REMARK   38  A    between atoms: C_82  and  O_89
REMARK   39  A    between atoms: C_84  and  C_87
REMARK   40  A    between atoms: C_87  and  O_88
REMARK                            x       y       z     vdW  Elec       q    Type
REMARK                         _______ _______ _______ _____ _____    ______ ____
ROOT
ATOM      1  C   UNL     1       2.275   2.621  26.321  0.00  0.00    +0.166 A 
ATOM      2  C   UNL     1       2.785   1.316  26.288  0.00  0.00    +0.061 A 
ATOM      3  C   UNL     1       2.496   0.327  27.289  0.00  0.00    +0.025 A 
ATOM      4  C   UNL     1       1.411   0.612  28.124  0.00  0.00    +0.015 A 
ATOM      5  C   UNL     1       0.748   1.870  28.043  0.00  0.00    +0.050 A 
ATOM      6  C   UNL     1       1.257   2.914  27.255  0.00  0.00    +0.166 A 
ENDROOT
BRANCH   3   7
ATOM      7  C   UNL     1       3.493  -0.842  27.452  0.00  0.00    +0.181 A 
ATOM      8  O   UNL     1       3.044  -1.671  28.489  0.00  0.00    -0.451 OA
ATOM      9  C   UNL     1       2.640  -2.935  28.166  0.00  0.00    +0.147 A 
ATOM     10  C   UNL     1       2.980  -3.551  26.986  0.00  0.00    +0.109 A 
ATOM     11  C   UNL     1       2.444  -4.807  26.697  0.00  0.00    +0.135 A 
ATOM     12  C   UNL     1       1.575  -5.449  27.586  0.00  0.00    +0.091 A 
ATOM     13  C   UNL     1       1.280  -4.819  28.788  0.00  0.00    +0.124 A 
ATOM     14  C   UNL     1       3.910  -2.822  26.106  0.00  0.00    +0.238 A 
ATOM     15  O   UNL     1       4.271  -3.369  25.069  0.00  0.00    -0.283 OA
ATOM     16  C   UNL     1       1.820  -3.577  29.080  0.00  0.00    +0.092 A 
ATOM     17  C   UNL     1       4.268  -1.395  26.474  0.00  0.00    +0.214 A 
BRANCH  11  18
ATOM     18  O   UNL     1       2.712  -5.488  25.540  0.00  0.00    -0.506 OA
ATOM     19  H   UNL     1       1.859  -5.684  25.098  0.00  0.00    +0.292 HD
ENDBRANCH  11  18
BRANCH  13  20
ATOM     20  O   UNL     1       0.443  -5.392  29.699  0.00  0.00    -0.507 OA
ATOM     21  H   UNL     1       0.065  -4.698  30.267  0.00  0.00    +0.292 HD
ENDBRANCH  13  20
BRANCH  17  22
ATOM     22  O   UNL     1       5.488  -0.836  26.056  0.00  0.00    -0.452 OA
BRANCH  22  23
ATOM     23  C   UNL     1       6.619  -0.923  27.001  0.00  0.00    +0.352 C 
ATOM     24  O   UNL     1       6.283  -0.722  28.380  0.00  0.00    -0.330 OA
ATOM     25  C   UNL     1       5.883   0.616  28.729  0.00  0.00    +0.179 C 
ATOM     26  C   UNL     1       6.900   1.726  28.320  0.00  0.00    +0.178 C 
ATOM     27  C   UNL     1       7.376   1.507  26.865  0.00  0.00    +0.192 C 
ATOM     28  C   UNL     1       7.775   0.039  26.625  0.00  0.00    +0.276 C 
BRANCH  26  29
ATOM     29  O   UNL     1       8.054   1.837  29.153  0.00  0.00    -0.386 OA
ATOM     30  H   UNL     1       8.552   2.620  28.852  0.00  0.00    +0.210 HD
ENDBRANCH  26  29
BRANCH  27  31
ATOM     31  O   UNL     1       6.339   1.941  25.980  0.00  0.00    -0.385 OA
ATOM     32  H   UNL     1       6.052   1.165  25.465  0.00  0.00    +0.210 HD
ENDBRANCH  27  31
BRANCH  25  33
ATOM     33  C   UNL     1       5.406   0.572  30.202  0.00  0.00    +0.190 C 
BRANCH  33  34
ATOM     34  O   UNL     1       4.378  -0.368  30.485  0.00  0.00    -0.392 OA
ATOM     35  H   UNL     1       3.562  -0.055  30.051  0.00  0.00    +0.210 HD
ENDBRANCH  33  34
ENDBRANCH  25  33
BRANCH  28  36
ATOM     36  O   UNL     1       8.201  -0.168  25.249  0.00  0.00    -0.449 OA
BRANCH  36  37
ATOM     37  C   UNL     1       9.550  -0.339  25.119  0.00  0.00    +0.332 C 
ATOM     38  O   UNL     1      10.113  -1.414  24.996  0.00  0.00    -0.246 OA
BRANCH  37  39
ATOM     39  C   UNL     1      10.250   0.965  25.112  0.00  0.00    +0.092 C 
ATOM     40  C   UNL     1       9.916   1.868  24.173  0.00  0.00    +0.015 C 
BRANCH  40  41
ATOM     41  C   UNL     1      10.497   3.210  24.087  0.00  0.00    -0.018 A 
ATOM     42  C   UNL     1       9.795   4.309  24.584  0.00  0.00    +0.057 A 
ATOM     43  C   UNL     1      10.334   5.596  24.470  0.00  0.00    +0.166 A 
ATOM     44  C   UNL     1      11.589   5.790  23.852  0.00  0.00    +0.201 A 
ATOM     45  C   UNL     1      12.300   4.701  23.339  0.00  0.00    +0.166 A 
ATOM     46  C   UNL     1      11.732   3.417  23.466  0.00  0.00    +0.057 A 
BRANCH  43  47
ATOM     47  O   UNL     1       9.708   6.735  24.930  0.00  0.00    -0.491 OA
ATOM     48  C   UNL     1       9.415   6.821  26.315  0.00  0.00    +0.277 C 
ENDBRANCH  43  47
BRANCH  44  49
ATOM     49  O   UNL     1      11.994   7.105  23.804  0.00  0.00    -0.501 OA
ATOM     50  H   UNL     1      12.945   7.177  23.693  0.00  0.00    +0.292 HD
ENDBRANCH  44  49
BRANCH  45  51
ATOM     51  O   UNL     1      13.503   4.632  22.694  0.00  0.00    -0.491 OA
ATOM     52  C   UNL     1      13.721   5.238  21.437  0.00  0.00    +0.277 C 
ENDBRANCH  45  51
ENDBRANCH  40  41
ENDBRANCH  37  39
ENDBRANCH  36  37
ENDBRANCH  28  36
ENDBRANCH  22  23
ENDBRANCH  17  22
ENDBRANCH   3   7
BRANCH   6  53
ATOM     53  O   UNL     1       0.881   4.237  27.340  0.00  0.00    -0.457 OA
BRANCH  53  54
ATOM     54  C   UNL     1       0.697   4.923  28.592  0.00  0.00    +0.339 C 
ATOM     55  O   UNL     1       0.711   6.365  28.364  0.00  0.00    -0.331 OA
ATOM     56  C   UNL     1       1.993   7.012  28.134  0.00  0.00    +0.179 C 
ATOM     57  C   UNL     1       3.162   6.513  29.003  0.00  0.00    +0.177 C 
ATOM     58  C   UNL     1       3.116   5.000  29.154  0.00  0.00    +0.180 C 
ATOM     59  C   UNL     1       1.737   4.626  29.698  0.00  0.00    +0.214 C 
BRANCH  57  60
ATOM     60  O   UNL     1       3.075   7.094  30.318  0.00  0.00    -0.386 OA
ATOM     61  H   UNL     1       3.211   6.355  30.944  0.00  0.00    +0.210 HD
ENDBRANCH  57  60
BRANCH  58  62
ATOM     62  O   UNL     1       4.149   4.569  30.052  0.00  0.00    -0.386 OA
ATOM     63  H   UNL     1       4.466   3.701  29.738  0.00  0.00    +0.210 HD
ENDBRANCH  58  62
BRANCH  59  64
ATOM     64  O   UNL     1       1.764   3.306  30.243  0.00  0.00    -0.383 OA
ATOM     65  H   UNL     1       0.845   3.049  30.440  0.00  0.00    +0.210 HD
ENDBRANCH  59  64
BRANCH  56  66
ATOM     66  C   UNL     1       2.362   6.963  26.645  0.00  0.00    +0.190 C 
BRANCH  66  67
ATOM     67  O   UNL     1       1.184   6.960  25.839  0.00  0.00    -0.392 OA
ATOM     68  H   UNL     1       1.309   7.649  25.160  0.00  0.00    +0.210 HD
ENDBRANCH  66  67
ENDBRANCH  56  66
ENDBRANCH  53  54
ENDBRANCH   6  53
BRANCH   1  69
ATOM     69  O   UNL     1       2.788   3.689  25.636  0.00  0.00    -0.457 OA
BRANCH  69  72
ATOM     70  C   UNL     1       5.431   2.811  23.144  0.00  0.00    +0.191 C 
ATOM     71  O   UNL     1       4.648   2.638  24.354  0.00  0.00    -0.330 OA
ATOM     72  C   UNL     1       3.747   3.747  24.553  0.00  0.00    +0.339 C 
ATOM     73  C   UNL     1       4.644   5.002  24.797  0.00  0.00    +0.214 C 
ATOM     74  C   UNL     1       5.550   5.270  23.583  0.00  0.00    +0.180 C 
ATOM     75  C   UNL     1       6.379   4.026  23.244  0.00  0.00    +0.178 C 
BRANCH  73  76
ATOM     76  O   UNL     1       5.508   4.791  25.944  0.00  0.00    -0.383 OA
ATOM     77  H   UNL     1       5.628   3.825  26.030  0.00  0.00    +0.210 HD
ENDBRANCH  73  76
BRANCH  74  78
ATOM     78  O   UNL     1       6.420   6.385  23.843  0.00  0.00    -0.386 OA
ATOM     79  H   UNL     1       6.498   6.466  24.812  0.00  0.00    +0.210 HD
ENDBRANCH  74  78
BRANCH  75  80
ATOM     80  O   UNL     1       7.086   4.247  22.019  0.00  0.00    -0.386 OA
ATOM     81  H   UNL     1       6.581   3.816  21.304  0.00  0.00    +0.210 HD
ENDBRANCH  75  80
BRANCH  70  82
ATOM     82  C   UNL     1       6.250   1.544  22.873  0.00  0.00    +0.266 C 
BRANCH  82  83
ATOM     83  O   UNL     1       7.034   1.623  21.680  0.00  0.00    -0.459 OA
BRANCH  83  84
ATOM     84  C   UNL     1       7.919   0.609  21.534  0.00  0.00    +0.332 C 
ATOM     85  O   UNL     1       9.078   0.712  21.206  0.00  0.00    -0.246 OA
BRANCH  84  87
ATOM     86  C   UNL     1       7.909  -1.578  22.528  0.00  0.00    +0.015 C 
ATOM     87  C   UNL     1       7.227  -0.638  21.881  0.00  0.00    +0.092 C 
BRANCH  86  92
ATOM     88  C   UNL     1       7.075  -4.529  24.660  0.00  0.00    +0.166 A 
ATOM     89  C   UNL     1       6.327  -5.343  23.782  0.00  0.00    +0.201 A 
ATOM     90  C   UNL     1       6.094  -4.928  22.463  0.00  0.00    +0.166 A 
ATOM     91  C   UNL     1       6.618  -3.688  22.054  0.00  0.00    +0.057 A 
ATOM     92  C   UNL     1       7.375  -2.885  22.911  0.00  0.00    -0.018 A 
ATOM     93  C   UNL     1       7.601  -3.316  24.216  0.00  0.00    +0.057 A 
BRANCH  88  95
ATOM     94  C   UNL     1       8.331  -4.370  26.668  0.00  0.00    +0.277 C 
ATOM     95  O   UNL     1       7.296  -5.012  25.929  0.00  0.00    -0.491 OA
ENDBRANCH  88  95
BRANCH  89  96
ATOM     96  O   UNL     1       5.847  -6.497  24.339  0.00  0.00    -0.501 OA
ATOM     97  H   UNL     1       5.318  -6.987  23.705  0.00  0.00    +0.292 HD
ENDBRANCH  89  96
BRANCH  90  98
ATOM     98  O   UNL     1       5.405  -5.519  21.444  0.00  0.00    -0.491 OA
ATOM     99  C   UNL     1       6.045  -6.160  20.361  0.00  0.00    +0.277 C 
ENDBRANCH  90  98
ENDBRANCH  86  92
ENDBRANCH  84  87
ENDBRANCH  83  84
ENDBRANCH  82  83
ENDBRANCH  70  82
ENDBRANCH  69  72
ENDBRANCH   1  69
TORSDOF 36
ENDMDL
MODEL 2
REMARK VINA RESULT:      -2.9      0.643      2.060
REMARK  Name = 
REMARK  40 active torsions:
REMARK  status: ('A' for Active; 'I' for Inactive)
REMARK    1  A    between atoms: C_1  and  O_2
REMARK    2  A    between atoms: O_2  and  C_3
REMARK    3  A    between atoms: C_5  and  C_12
REMARK    4  A    between atoms: C_7  and  O_10
REMARK    5  A    between atoms: C_8  and  O_9
REMARK    6  A    between atoms: O_10  and  C_11
REMARK    7  A    between atoms: C_13  and  C_14
REMARK    8  A    between atoms: C_14  and  O_16
REMARK    9  A    between atoms: O_16  and  C_17
REMARK   10  A    between atoms: C_17  and  C_18
REMARK   11  A    between atoms: C_20  and  O_94
REMARK   12  A    between atoms: C_22  and  O_93
REMARK   13  A    between atoms: C_23  and  O_92
REMARK   14  A    between atoms: C_24  and  O_27
REMARK   15  A    between atoms: O_27  and  C_28
REMARK   16  A    between atoms: C_29  and  O_77
REMARK   17  A    between atoms: C_32  and  C_34
REMARK   18  A    between atoms: C_35  and  O_47
REMARK   19  A    between atoms: C_39  and  O_46
REMARK   20  A    between atoms: C_41  and  O_45
REMARK   21  A    between atoms: O_47  and  C_48
REMARK   22  A    between atoms: C_50  and  O_61
REMARK   23  A    between atoms: C_51  and  O_60
REMARK   24  A    between atoms: C_53  and  O_59
REMARK   25  A    between atoms: C_55  and  C_57
REMARK   26  A    between atoms: C_57  and  O_58
REMARK   27  A    between atoms: O_61  and  C_62
REMARK   28  A    between atoms: C_62  and  C_64
REMARK   29  A    between atoms: C_65  and  C_66
REMARK   30  A    between atoms: C_68  and  O_75
REMARK   31  A    between atoms: C_69  and  O_74
REMARK   32  A    between atoms: C_70  and  O_72
REMARK   33  A    between atoms: O_72  and  C_73
REMARK   34  A    between atoms: O_75  and  C_76
REMARK   35  A    between atoms: O_77  and  C_78
REMARK   36  A    between atoms: C_80  and  O_91
REMARK   37  A    between atoms: C_81  and  O_90
REMARK   38  A    between atoms: C_82  and  O_89
REMARK   39  A    between atoms: C_84  and  C_87
REMARK   40  A    between atoms: C_87  and  O_88
REMARK                            x       y       z     vdW  Elec       q    Type
REMARK                         _______ _______ _______ _____ _____    ______ ____
ROOT
ATOM      1  C   UNL     1       2.287   2.444  25.620  0.00  0.00    +0.166 A 
ATOM      2  C   UNL     1       2.892   1.188  25.763  0.00  0.00    +0.061 A 
ATOM      3  C   UNL     1       2.468   0.210  26.726  0.00  0.00    +0.025 A 
ATOM      4  C   UNL     1       1.209   0.427  27.294  0.00  0.00    +0.015 A 
ATOM      5  C   UNL     1       0.484   1.619  27.010  0.00  0.00    +0.050 A 
ATOM      6  C   UNL     1       1.070   2.678  26.298  0.00  0.00    +0.166 A 
ENDROOT
BRANCH   3   7
ATOM      7  C   UNL     1       3.494  -0.862  27.159  0.00  0.00    +0.181 A 
ATOM      8  O   UNL     1       2.992  -1.534  28.282  0.00  0.00    -0.451 OA
ATOM      9  C   UNL     1       2.666  -2.853  28.144  0.00  0.00    +0.147 A 
ATOM     10  C   UNL     1       3.128  -3.635  27.113  0.00  0.00    +0.109 A 
ATOM     11  C   UNL     1       2.668  -4.948  26.997  0.00  0.00    +0.135 A 
ATOM     12  C   UNL     1       1.753  -5.480  27.911  0.00  0.00    +0.091 A 
ATOM     13  C   UNL     1       1.334  -4.679  28.965  0.00  0.00    +0.124 A 
ATOM     14  C   UNL     1       4.100  -3.011  26.198  0.00  0.00    +0.238 A 
ATOM     15  O   UNL     1       4.568  -3.700  25.297  0.00  0.00    -0.283 OA
ATOM     16  C   UNL     1       1.798  -3.380  29.087  0.00  0.00    +0.092 A 
ATOM     17  C   UNL     1       4.369  -1.527  26.349  0.00  0.00    +0.214 A 
BRANCH  11  18
ATOM     18  O   UNL     1       3.059  -5.793  25.994  0.00  0.00    -0.506 OA
ATOM     19  H   UNL     1       2.329  -5.849  25.342  0.00  0.00    +0.292 HD
ENDBRANCH  11  18
BRANCH  13  20
ATOM     20  O   UNL     1       0.446  -5.140  29.893  0.00  0.00    -0.507 OA
ATOM     21  H   UNL     1       0.606  -6.088  30.045  0.00  0.00    +0.292 HD
ENDBRANCH  13  20
BRANCH  17  22
ATOM     22  O   UNL     1       5.597  -0.979  25.938  0.00  0.00    -0.452 OA
BRANCH  22  23
ATOM     23  C   UNL     1       6.721  -1.077  26.890  0.00  0.00    +0.352 C 
ATOM     24  O   UNL     1       6.361  -0.999  28.275  0.00  0.00    -0.330 OA
ATOM     25  C   UNL     1       5.886   0.286  28.717  0.00  0.00    +0.179 C 
ATOM     26  C   UNL     1       6.846   1.476  28.407  0.00  0.00    +0.178 C 
ATOM     27  C   UNL     1       7.348   1.393  26.946  0.00  0.00    +0.192 C 
ATOM     28  C   UNL     1       7.828  -0.030  26.603  0.00  0.00    +0.276 C 
BRANCH  26  29
ATOM     29  O   UNL     1       7.983   1.586  29.262  0.00  0.00    -0.386 OA
ATOM     30  H   UNL     1       7.682   1.387  30.168  0.00  0.00    +0.210 HD
ENDBRANCH  26  29
BRANCH  27  31
ATOM     31  O   UNL     1       6.298   1.836  26.081  0.00  0.00    -0.385 OA
ATOM     32  H   UNL     1       6.227   1.191  25.354  0.00  0.00    +0.210 HD
ENDBRANCH  27  31
BRANCH  25  33
ATOM     33  C   UNL     1       5.397   0.107  30.175  0.00  0.00    +0.190 C 
BRANCH  33  34
ATOM     34  O   UNL     1       4.250  -0.717  30.340  0.00  0.00    -0.392 OA
ATOM     35  H   UNL     1       3.900  -0.563  31.237  0.00  0.00    +0.210 HD
ENDBRANCH  33  34
ENDBRANCH  25  33
BRANCH  28  36
ATOM     36  O   UNL     1       8.278  -0.109  25.221  0.00  0.00    -0.449 OA
BRANCH  36  37
ATOM     37  C   UNL     1       9.630  -0.267  25.101  0.00  0.00    +0.332 C 
ATOM     38  O   UNL     1      10.213  -1.339  25.073  0.00  0.00    -0.246 OA
BRANCH  37  39
ATOM     39  C   UNL     1      10.305   1.043  24.971  0.00  0.00    +0.092 C 
ATOM     40  C   UNL     1       9.769   1.964  24.150  0.00  0.00    +0.015 C 
BRANCH  40  41
ATOM     41  C   UNL     1      10.312   3.313  23.971  0.00  0.00    -0.018 A 
ATOM     42  C   UNL     1      11.636   3.486  23.567  0.00  0.00    +0.057 A 
ATOM     43  C   UNL     1      12.166   4.774  23.430  0.00  0.00    +0.166 A 
ATOM     44  C   UNL     1      11.366   5.905  23.701  0.00  0.00    +0.201 A 
ATOM     45  C   UNL     1      10.040   5.749  24.119  0.00  0.00    +0.166 A 
ATOM     46  C   UNL     1       9.534   4.440  24.250  0.00  0.00    +0.057 A 
BRANCH  43  47
ATOM     47  O   UNL     1      13.462   5.035  23.039  0.00  0.00    -0.491 OA
ATOM     48  C   UNL     1      13.669   5.591  21.750  0.00  0.00    +0.277 C 
ENDBRANCH  43  47
BRANCH  44  49
ATOM     49  O   UNL     1      12.015   7.107  23.532  0.00  0.00    -0.501 OA
ATOM     50  H   UNL     1      11.903   7.679  24.296  0.00  0.00    +0.292 HD
ENDBRANCH  44  49
BRANCH  45  51
ATOM     51  O   UNL     1       9.085   6.669  24.453  0.00  0.00    -0.491 OA
ATOM     52  C   UNL     1       8.786   6.993  25.795  0.00  0.00    +0.277 C 
ENDBRANCH  45  51
ENDBRANCH  40  41
ENDBRANCH  37  39
ENDBRANCH  36  37
ENDBRANCH  28  36
ENDBRANCH  22  23
ENDBRANCH  17  22
ENDBRANCH   3   7
BRANCH   6  53
ATOM     53  O   UNL     1       0.583   3.965  26.234  0.00  0.00    -0.457 OA
BRANCH  53  54
ATOM     54  C   UNL     1       0.443   4.811  27.390  0.00  0.00    +0.339 C 
ATOM     55  O   UNL     1       0.497   6.211  26.980  0.00  0.00    -0.331 OA
ATOM     56  C   UNL     1       1.794   6.782  26.650  0.00  0.00    +0.179 C 
ATOM     57  C   UNL     1       2.963   6.360  27.558  0.00  0.00    +0.177 C 
ATOM     58  C   UNL     1       2.874   4.881  27.903  0.00  0.00    +0.180 C 
ATOM     59  C   UNL     1       1.494   4.625  28.510  0.00  0.00    +0.214 C 
BRANCH  57  60
ATOM     60  O   UNL     1       2.918   7.107  28.789  0.00  0.00    -0.386 OA
ATOM     61  H   UNL     1       3.323   7.974  28.588  0.00  0.00    +0.210 HD
ENDBRANCH  57  60
BRANCH  58  62
ATOM     62  O   UNL     1       3.910   4.535  28.833  0.00  0.00    -0.386 OA
ATOM     63  H   UNL     1       4.759   4.571  28.352  0.00  0.00    +0.210 HD
ENDBRANCH  58  62
BRANCH  59  64
ATOM     64  O   UNL     1       1.492   3.385  29.219  0.00  0.00    -0.383 OA
ATOM     65  H   UNL     1       2.421   3.134  29.378  0.00  0.00    +0.210 HD
ENDBRANCH  59  64
BRANCH  56  66
ATOM     66  C   UNL     1       2.133   6.530  25.173  0.00  0.00    +0.190 C 
BRANCH  66  67
ATOM     67  O   UNL     1       1.044   6.920  24.338  0.00  0.00    -0.392 OA
ATOM     68  H   UNL     1       0.529   7.580  24.840  0.00  0.00    +0.210 HD
ENDBRANCH  66  67
ENDBRANCH  56  66
ENDBRANCH  53  54
ENDBRANCH   6  53
BRANCH   1  69
ATOM     69  O   UNL     1       2.853   3.529  25.009  0.00  0.00    -0.457 OA
BRANCH  69  72
ATOM     70  C   UNL     1       5.769   2.780  22.795  0.00  0.00    +0.191 C 
ATOM     71  O   UNL     1       4.918   2.613  23.960  0.00  0.00    -0.330 OA
ATOM     72  C   UNL     1       3.881   3.615  23.993  0.00  0.00    +0.339 C 
ATOM     73  C   UNL     1       4.603   4.987  24.182  0.00  0.00    +0.214 C 
ATOM     74  C   UNL     1       5.566   5.263  23.014  0.00  0.00    +0.180 C 
ATOM     75  C   UNL     1       6.558   4.107  22.848  0.00  0.00    +0.178 C 
BRANCH  73  76
ATOM     76  O   UNL     1       5.392   4.980  25.400  0.00  0.00    -0.383 OA
ATOM     77  H   UNL     1       5.434   5.905  25.712  0.00  0.00    +0.210 HD
ENDBRANCH  73  76
BRANCH  74  78
ATOM     78  O   UNL     1       6.276   6.494  23.229  0.00  0.00    -0.386 OA
ATOM     79  H   UNL     1       6.051   6.800  24.127  0.00  0.00    +0.210 HD
ENDBRANCH  74  78
BRANCH  75  80
ATOM     80  O   UNL     1       7.329   4.311  21.659  0.00  0.00    -0.386 OA
ATOM     81  H   UNL     1       8.000   4.990  21.856  0.00  0.00    +0.210 HD
ENDBRANCH  75  80
BRANCH  70  82
ATOM     82  C   UNL     1       6.749   1.605  22.699  0.00  0.00    +0.266 C 
BRANCH  82  83
ATOM     83  O   UNL     1       7.386   1.505  21.423  0.00  0.00    -0.459 OA
BRANCH  83  84
ATOM     84  C   UNL     1       8.401   0.610  21.382  0.00  0.00    +0.332 C 
ATOM     85  O   UNL     1       9.577   0.866  21.267  0.00  0.00    -0.246 OA
BRANCH  84  87
ATOM     86  C   UNL     1       8.008  -1.366  22.689  0.00  0.00    +0.015 C 
ATOM     87  C   UNL     1       7.819  -0.729  21.539  0.00  0.00    +0.092 C 
BRANCH  86  92
ATOM     88  C   UNL     1       6.278  -4.644  22.229  0.00  0.00    +0.166 A 
ATOM     89  C   UNL     1       6.609  -5.337  23.415  0.00  0.00    +0.201 A 
ATOM     90  C   UNL     1       7.405  -4.723  24.391  0.00  0.00    +0.166 A 
ATOM     91  C   UNL     1       7.863  -3.415  24.149  0.00  0.00    +0.057 A 
ATOM     92  C   UNL     1       7.526  -2.715  22.987  0.00  0.00    -0.018 A 
ATOM     93  C   UNL     1       6.728  -3.340  22.031  0.00  0.00    +0.057 A 
BRANCH  88  95
ATOM     94  C   UNL     1       6.095  -5.757  20.141  0.00  0.00    +0.277 C 
ATOM     95  O   UNL     1       5.463  -5.292  21.330  0.00  0.00    -0.491 OA
ENDBRANCH  88  95
BRANCH  89  96
ATOM     96  O   UNL     1       6.126  -6.616  23.485  0.00  0.00    -0.501 OA
ATOM     97  H   UNL     1       5.482  -6.699  24.192  0.00  0.00    +0.292 HD
ENDBRANCH  89  96
BRANCH  90  98
ATOM     98  O   UNL     1       7.864  -5.178  25.593  0.00  0.00    -0.491 OA
ATOM     99  C   UNL     1       8.562  -4.356  26.504  0.00  0.00    +0.277 C 
ENDBRANCH  90  98
ENDBRANCH  86  92
ENDBRANCH  84  87
ENDBRANCH  83  84
ENDBRANCH  82  83
ENDBRANCH  70  82
ENDBRANCH  69  72
ENDBRANCH   1  69
TORSDOF 36
ENDMDL
MODEL 3
REMARK VINA RESULT:      -2.7      2.288      8.283
REMARK  Name = 
REMARK  40 active torsions:
REMARK  status: ('A' for Active; 'I' for Inactive)
REMARK    1  A    between atoms: C_1  and  O_2
REMARK    2  A    between atoms: O_2  and  C_3
REMARK    3  A    between atoms: C_5  and  C_12
REMARK    4  A    between atoms: C_7  and  O_10
REMARK    5  A    between atoms: C_8  and  O_9
REMARK    6  A    between atoms: O_10  and  C_11
REMARK    7  A    between atoms: C_13  and  C_14
REMARK    8  A    between atoms: C_14  and  O_16
REMARK    9  A    between atoms: O_16  and  C_17
REMARK   10  A    between atoms: C_17  and  C_18
REMARK   11  A    between atoms: C_20  and  O_94
REMARK   12  A    between atoms: C_22  and  O_93
REMARK   13  A    between atoms: C_23  and  O_92
REMARK   14  A    between atoms: C_24  and  O_27
REMARK   15  A    between atoms: O_27  and  C_28
REMARK   16  A    between atoms: C_29  and  O_77
REMARK   17  A    between atoms: C_32  and  C_34
REMARK   18  A    between atoms: C_35  and  O_47
REMARK   19  A    between atoms: C_39  and  O_46
REMARK   20  A    between atoms: C_41  and  O_45
REMARK   21  A    between atoms: O_47  and  C_48
REMARK   22  A    between atoms: C_50  and  O_61
REMARK   23  A    between atoms: C_51  and  O_60
REMARK   24  A    between atoms: C_53  and  O_59
REMARK   25  A    between atoms: C_55  and  C_57
REMARK   26  A    between atoms: C_57  and  O_58
REMARK   27  A    between atoms: O_61  and  C_62
REMARK   28  A    between atoms: C_62  and  C_64
REMARK   29  A    between atoms: C_65  and  C_66
REMARK   30  A    between atoms: C_68  and  O_75
REMARK   31  A    between atoms: C_69  and  O_74
REMARK   32  A    between atoms: C_70  and  O_72
REMARK   33  A    between atoms: O_72  and  C_73
REMARK   34  A    between atoms: O_75  and  C_76
REMARK   35  A    between atoms: O_77  and  C_78
REMARK   36  A    between atoms: C_80  and  O_91
REMARK   37  A    between atoms: C_81  and  O_90
REMARK   38  A    between atoms: C_82  and  O_89
REMARK   39  A    between atoms: C_84  and  C_87
REMARK   40  A    between atoms: C_87  and  O_88
REMARK                            x       y       z     vdW  Elec       q    Type
REMARK                         _______ _______ _______ _____ _____    ______ ____
ROOT
ATOM      1  C   UNL     1       6.164  -1.959  23.392  0.00  0.00    +0.166 A 
ATOM      2  C   UNL     1       4.933  -2.248  23.995  0.00  0.00    +0.061 A 
ATOM      3  C   UNL     1       4.530  -3.573  24.377  0.00  0.00    +0.025 A 
ATOM      4  C   UNL     1       5.554  -4.524  24.431  0.00  0.00    +0.015 A 
ATOM      5  C   UNL     1       6.870  -4.194  24.000  0.00  0.00    +0.050 A 
ATOM      6  C   UNL     1       7.144  -2.976  23.357  0.00  0.00    +0.166 A 
ENDROOT
BRANCH   3   7
ATOM      7  C   UNL     1       3.016  -3.851  24.517  0.00  0.00    +0.181 A 
ATOM      8  O   UNL     1       2.561  -4.453  23.336  0.00  0.00    -0.451 OA
ATOM      9  C   UNL     1       2.131  -5.748  23.404  0.00  0.00    +0.147 A 
ATOM     10  C   UNL     1       1.779  -6.358  24.583  0.00  0.00    +0.109 A 
ATOM     11  C   UNL     1       1.442  -7.713  24.572  0.00  0.00    +0.135 A 
ATOM     12  C   UNL     1       1.450  -8.454  23.385  0.00  0.00    +0.091 A 
ATOM     13  C   UNL     1       1.771  -7.800  22.203  0.00  0.00    +0.124 A 
ATOM     14  C   UNL     1       1.781  -5.512  25.789  0.00  0.00    +0.238 A 
ATOM     15  O   UNL     1       1.423  -6.018  26.849  0.00  0.00    -0.283 OA
ATOM     16  C   UNL     1       2.096  -6.453  22.212  0.00  0.00    +0.092 A 
ATOM     17  C   UNL     1       2.338  -4.107  25.674  0.00  0.00    +0.214 A 
BRANCH  11  18
ATOM     18  O   UNL     1       1.096  -8.409  25.699  0.00  0.00    -0.506 OA
ATOM     19  H   UNL     1       1.569  -9.267  25.683  0.00  0.00    +0.292 HD
ENDBRANCH  11  18
BRANCH  13  20
ATOM     20  O   UNL     1       1.794  -8.464  21.012  0.00  0.00    -0.507 OA
ATOM     21  H   UNL     1       0.999  -9.023  20.943  0.00  0.00    +0.292 HD
ENDBRANCH  13  20
BRANCH  17  22
ATOM     22  O   UNL     1       1.906  -3.094  26.547  0.00  0.00    -0.452 OA
BRANCH  22  23
ATOM     23  C   UNL     1       2.939  -2.451  27.383  0.00  0.00    +0.352 C 
ATOM     24  O   UNL     1       4.219  -3.097  27.382  0.00  0.00    -0.330 OA
ATOM     25  C   UNL     1       4.262  -4.381  28.030  0.00  0.00    +0.179 C 
ATOM     26  C   UNL     1       3.727  -4.389  29.495  0.00  0.00    +0.178 C 
ATOM     27  C   UNL     1       2.388  -3.620  29.581  0.00  0.00    +0.192 C 
ATOM     28  C   UNL     1       2.477  -2.266  28.852  0.00  0.00    +0.276 C 
BRANCH  26  29
ATOM     29  O   UNL     1       4.614  -3.848  30.475  0.00  0.00    -0.386 OA
ATOM     30  H   UNL     1       4.105  -3.199  30.995  0.00  0.00    +0.210 HD
ENDBRANCH  26  29
BRANCH  27  31
ATOM     31  O   UNL     1       1.352  -4.455  29.053  0.00  0.00    -0.385 OA
ATOM     32  H   UNL     1       1.252  -5.213  29.657  0.00  0.00    +0.210 HD
ENDBRANCH  27  31
BRANCH  25  33
ATOM     33  C   UNL     1       5.671  -4.970  27.766  0.00  0.00    +0.190 C 
BRANCH  33  34
ATOM     34  O   UNL     1       6.439  -5.264  28.925  0.00  0.00    -0.392 OA
ATOM     35  H   UNL     1       7.377  -5.115  28.705  0.00  0.00    +0.210 HD
ENDBRANCH  33  34
ENDBRANCH  25  33
BRANCH  28  36
ATOM     36  O   UNL     1       1.208  -1.556  28.915  0.00  0.00    -0.449 OA
BRANCH  36  37
ATOM     37  C   UNL     1       1.035  -0.665  27.893  0.00  0.00    +0.332 C 
ATOM     38  O   UNL     1       0.512  -0.920  26.821  0.00  0.00    -0.246 OA
BRANCH  37  39
ATOM     39  C   UNL     1       1.537   0.675  28.269  0.00  0.00    +0.092 C 
ATOM     40  C   UNL     1       0.871   1.757  27.829  0.00  0.00    +0.015 C 
BRANCH  40  41
ATOM     41  C   UNL     1       1.234   3.135  28.170  0.00  0.00    -0.018 A 
ATOM     42  C   UNL     1       0.671   4.201  27.467  0.00  0.00    +0.057 A 
ATOM     43  C   UNL     1       1.044   5.516  27.768  0.00  0.00    +0.166 A 
ATOM     44  C   UNL     1       1.994   5.771  28.782  0.00  0.00    +0.201 A 
ATOM     45  C   UNL     1       2.576   4.714  29.488  0.00  0.00    +0.166 A 
ATOM     46  C   UNL     1       2.183   3.400  29.162  0.00  0.00    +0.057 A 
BRANCH  43  47
ATOM     47  O   UNL     1       0.541   6.625  27.124  0.00  0.00    -0.491 OA
ATOM     48  C   UNL     1       0.831   6.781  25.743  0.00  0.00    +0.277 C 
ENDBRANCH  43  47
BRANCH  44  49
ATOM     49  O   UNL     1       2.272   7.106  28.968  0.00  0.00    -0.501 OA
ATOM     50  H   UNL     1       3.164   7.238  29.298  0.00  0.00    +0.292 HD
ENDBRANCH  44  49
BRANCH  45  51
ATOM     51  O   UNL     1       3.514   4.701  30.483  0.00  0.00    -0.491 OA
ATOM     52  C   UNL     1       4.810   5.231  30.306  0.00  0.00    +0.277 C 
ENDBRANCH  45  51
ENDBRANCH  40  41
ENDBRANCH  37  39
ENDBRANCH  36  37
ENDBRANCH  28  36
ENDBRANCH  22  23
ENDBRANCH  17  22
ENDBRANCH   3   7
BRANCH   6  53
ATOM     53  O   UNL     1       8.285  -2.688  22.641  0.00  0.00    -0.457 OA
BRANCH  53  54
ATOM     54  C   UNL     1       9.606  -2.748  23.209  0.00  0.00    +0.339 C 
ATOM     55  O   UNL     1       9.511  -2.757  24.666  0.00  0.00    -0.331 OA
ATOM     56  C   UNL     1       9.216  -1.503  25.343  0.00  0.00    +0.179 C 
ATOM     57  C   UNL     1       9.917  -0.254  24.778  0.00  0.00    +0.177 C 
ATOM     58  C   UNL     1       9.933  -0.285  23.257  0.00  0.00    +0.180 C 
ATOM     59  C   UNL     1      10.573  -1.604  22.823  0.00  0.00    +0.214 C 
BRANCH  57  60
ATOM     60  O   UNL     1      11.281  -0.212  25.237  0.00  0.00    -0.386 OA
ATOM     61  H   UNL     1      11.826  -0.485  24.472  0.00  0.00    +0.210 HD
ENDBRANCH  57  60
BRANCH  58  62
ATOM     62  O   UNL     1      10.682   0.832  22.756  0.00  0.00    -0.386 OA
ATOM     63  H   UNL     1      11.469   0.475  22.302  0.00  0.00    +0.210 HD
ENDBRANCH  58  62
BRANCH  59  64
ATOM     64  O   UNL     1      10.990  -1.523  21.459  0.00  0.00    -0.383 OA
ATOM     65  H   UNL     1      10.906  -2.413  21.071  0.00  0.00    +0.210 HD
ENDBRANCH  59  64
BRANCH  56  66
ATOM     66  C   UNL     1       7.699  -1.283  25.432  0.00  0.00    +0.190 C 
BRANCH  66  67
ATOM     67  O   UNL     1       7.410  -0.076  26.133  0.00  0.00    -0.392 OA
ATOM     68  H   UNL     1       7.457  -0.287  27.085  0.00  0.00    +0.210 HD
ENDBRANCH  66  67
ENDBRANCH  56  66
ENDBRANCH  53  54
ENDBRANCH   6  53
BRANCH   1  69
ATOM     69  O   UNL     1       6.451  -0.824  22.684  0.00  0.00    -0.457 OA
BRANCH  69  72
ATOM     70  C   UNL     1       5.334   2.714  23.136  0.00  0.00    +0.191 C 
ATOM     71  O   UNL     1       5.322   1.392  22.534  0.00  0.00    -0.330 OA
ATOM     72  C   UNL     1       6.384   0.572  23.064  0.00  0.00    +0.339 C 
ATOM     73  C   UNL     1       7.721   1.239  22.609  0.00  0.00    +0.214 C 
ATOM     74  C   UNL     1       7.834   2.670  23.163  0.00  0.00    +0.180 C 
ATOM     75  C   UNL     1       6.610   3.500  22.764  0.00  0.00    +0.178 C 
BRANCH  73  76
ATOM     76  O   UNL     1       7.774   1.330  21.162  0.00  0.00    -0.383 OA
ATOM     77  H   UNL     1       7.231   2.102  20.909  0.00  0.00    +0.210 HD
ENDBRANCH  73  76
BRANCH  74  78
ATOM     78  O   UNL     1       9.034   3.300  22.685  0.00  0.00    -0.386 OA
ATOM     79  H   UNL     1       8.948   4.254  22.869  0.00  0.00    +0.210 HD
ENDBRANCH  74  78
BRANCH  75  80
ATOM     80  O   UNL     1       6.661   4.768  23.427  0.00  0.00    -0.386 OA
ATOM     81  H   UNL     1       5.865   5.269  23.168  0.00  0.00    +0.210 HD
ENDBRANCH  75  80
BRANCH  70  82
ATOM     82  C   UNL     1       4.098   3.498  22.681  0.00  0.00    +0.266 C 
BRANCH  82  83
ATOM     83  O   UNL     1       2.866   2.863  23.029  0.00  0.00    -0.459 OA
BRANCH  83  84
ATOM     84  C   UNL     1       2.274   3.375  24.133  0.00  0.00    +0.332 C 
ATOM     85  O   UNL     1       1.088   3.545  24.296  0.00  0.00    -0.246 OA
BRANCH  84  87
ATOM     86  C   UNL     1       3.888   2.626  25.747  0.00  0.00    +0.015 C 
ATOM     87  C   UNL     1       3.329   3.653  25.115  0.00  0.00    +0.092 C 
BRANCH  86  92
ATOM     88  C   UNL     1       5.917   1.808  28.774  0.00  0.00    +0.166 A 
ATOM     89  C   UNL     1       6.911   2.812  28.760  0.00  0.00    +0.201 A 
ATOM     90  C   UNL     1       6.918   3.782  27.748  0.00  0.00    +0.166 A 
ATOM     91  C   UNL     1       5.920   3.718  26.759  0.00  0.00    +0.057 A 
ATOM     92  C   UNL     1       4.922   2.740  26.775  0.00  0.00    -0.018 A 
ATOM     93  C   UNL     1       4.928   1.787  27.792  0.00  0.00    +0.057 A 
BRANCH  88  95
ATOM     94  C   UNL     1       4.703   0.304  30.151  0.00  0.00    +0.277 C 
ATOM     95  O   UNL     1       5.948   0.909  29.814  0.00  0.00    -0.491 OA
ENDBRANCH  88  95
BRANCH  89  96
ATOM     96  O   UNL     1       7.838   2.715  29.762  0.00  0.00    -0.501 OA
ATOM     97  H   UNL     1       8.578   3.305  29.600  0.00  0.00    +0.292 HD
ENDBRANCH  89  96
BRANCH  90  98
ATOM     98  O   UNL     1       7.762   4.828  27.512  0.00  0.00    -0.491 OA
ATOM     99  C   UNL     1       7.306   6.152  27.337  0.00  0.00    +0.277 C 
ENDBRANCH  90  98
ENDBRANCH  86  92
ENDBRANCH  84  87
ENDBRANCH  83  84
ENDBRANCH  82  83
ENDBRANCH  70  82
ENDBRANCH  69  72
ENDBRANCH   1  69
TORSDOF 36
ENDMDL
MODEL 4
REMARK VINA RESULT:      -2.0      2.094      8.337
REMARK  Name = 
REMARK  40 active torsions:
REMARK  status: ('A' for Active; 'I' for Inactive)
REMARK    1  A    between atoms: C_1  and  O_2
REMARK    2  A    between atoms: O_2  and  C_3
REMARK    3  A    between atoms: C_5  and  C_12
REMARK    4  A    between atoms: C_7  and  O_10
REMARK    5  A    between atoms: C_8  and  O_9
REMARK    6  A    between atoms: O_10  and  C_11
REMARK    7  A    between atoms: C_13  and  C_14
REMARK    8  A    between atoms: C_14  and  O_16
REMARK    9  A    between atoms: O_16  and  C_17
REMARK   10  A    between atoms: C_17  and  C_18
REMARK   11  A    between atoms: C_20  and  O_94
REMARK   12  A    between atoms: C_22  and  O_93
REMARK   13  A    between atoms: C_23  and  O_92
REMARK   14  A    between atoms: C_24  and  O_27
REMARK   15  A    between atoms: O_27  and  C_28
REMARK   16  A    between atoms: C_29  and  O_77
REMARK   17  A    between atoms: C_32  and  C_34
REMARK   18  A    between atoms: C_35  and  O_47
REMARK   19  A    between atoms: C_39  and  O_46
REMARK   20  A    between atoms: C_41  and  O_45
REMARK   21  A    between atoms: O_47  and  C_48
REMARK   22  A    between atoms: C_50  and  O_61
REMARK   23  A    between atoms: C_51  and  O_60
REMARK   24  A    between atoms: C_53  and  O_59
REMARK   25  A    between atoms: C_55  and  C_57
REMARK   26  A    between atoms: C_57  and  O_58
REMARK   27  A    between atoms: O_61  and  C_62
REMARK   28  A    between atoms: C_62  and  C_64
REMARK   29  A    between atoms: C_65  and  C_66
REMARK   30  A    between atoms: C_68  and  O_75
REMARK   31  A    between atoms: C_69  and  O_74
REMARK   32  A    between atoms: C_70  and  O_72
REMARK   33  A    between atoms: O_72  and  C_73
REMARK   34  A    between atoms: O_75  and  C_76
REMARK   35  A    between atoms: O_77  and  C_78
REMARK   36  A    between atoms: C_80  and  O_91
REMARK   37  A    between atoms: C_81  and  O_90
REMARK   38  A    between atoms: C_82  and  O_89
REMARK   39  A    between atoms: C_84  and  C_87
REMARK   40  A    between atoms: C_87  and  O_88
REMARK                            x       y       z     vdW  Elec       q    Type
REMARK                         _______ _______ _______ _____ _____    ______ ____
ROOT
ATOM      1  C   UNL     1       2.786  -1.256  27.535  0.00  0.00    +0.166 A 
ATOM      2  C   UNL     1       3.890  -0.652  26.920  0.00  0.00    +0.061 A 
ATOM      3  C   UNL     1       5.196  -1.250  26.873  0.00  0.00    +0.025 A 
ATOM      4  C   UNL     1       5.247  -2.614  27.173  0.00  0.00    +0.015 A 
ATOM      5  C   UNL     1       4.082  -3.300  27.620  0.00  0.00    +0.050 A 
ATOM      6  C   UNL     1       2.902  -2.607  27.934  0.00  0.00    +0.166 A 
ENDROOT
BRANCH   3   7
ATOM      7  C   UNL     1       6.408  -0.311  26.672  0.00  0.00    +0.181 A 
ATOM      8  O   UNL     1       6.030   0.989  27.033  0.00  0.00    -0.451 OA
ATOM      9  C   UNL     1       6.624   1.544  28.132  0.00  0.00    +0.147 A 
ATOM     10  C   UNL     1       7.796   1.070  28.669  0.00  0.00    +0.109 A 
ATOM     11  C   UNL     1       8.281   1.638  29.849  0.00  0.00    +0.135 A 
ATOM     12  C   UNL     1       7.601   2.682  30.485  0.00  0.00    +0.091 A 
ATOM     13  C   UNL     1       6.440   3.167  29.897  0.00  0.00    +0.124 A 
ATOM     14  C   UNL     1       8.463  -0.021  27.937  0.00  0.00    +0.238 A 
ATOM     15  O   UNL     1       9.537  -0.431  28.367  0.00  0.00    -0.283 OA
ATOM     16  C   UNL     1       5.964   2.610  28.721  0.00  0.00    +0.092 A 
ATOM     17  C   UNL     1       7.727  -0.651  26.771  0.00  0.00    +0.214 A 
BRANCH  11  18
ATOM     18  O   UNL     1       9.428   1.219  30.466  0.00  0.00    -0.506 OA
ATOM     19  H   UNL     1      10.179   1.723  30.086  0.00  0.00    +0.292 HD
ENDBRANCH  11  18
BRANCH  13  20
ATOM     20  O   UNL     1       5.733   4.186  30.465  0.00  0.00    -0.507 OA
ATOM     21  H   UNL     1       4.901   4.309  29.974  0.00  0.00    +0.292 HD
ENDBRANCH  13  20
BRANCH  17  22
ATOM     22  O   UNL     1       8.438  -1.265  25.726  0.00  0.00    -0.452 OA
BRANCH  22  23
ATOM     23  C   UNL     1       8.060  -0.886  24.351  0.00  0.00    +0.352 C 
ATOM     24  O   UNL     1       6.782  -1.366  23.911  0.00  0.00    -0.330 OA
ATOM     25  C   UNL     1       6.691  -2.789  23.718  0.00  0.00    +0.179 C 
ATOM     26  C   UNL     1       7.775  -3.388  22.771  0.00  0.00    +0.178 C 
ATOM     27  C   UNL     1       9.171  -2.832  23.134  0.00  0.00    +0.192 C 
ATOM     28  C   UNL     1       9.132  -1.302  23.310  0.00  0.00    +0.276 C 
BRANCH  26  29
ATOM     29  O   UNL     1       7.559  -3.170  21.376  0.00  0.00    -0.386 OA
ATOM     30  H   UNL     1       8.104  -3.821  20.896  0.00  0.00    +0.210 HD
ENDBRANCH  26  29
BRANCH  27  31
ATOM     31  O   UNL     1       9.634  -3.503  24.311  0.00  0.00    -0.385 OA
ATOM     32  H   UNL     1      10.503  -3.127  24.539  0.00  0.00    +0.210 HD
ENDBRANCH  27  31
BRANCH  25  33
ATOM     33  C   UNL     1       5.205  -3.107  23.417  0.00  0.00    +0.190 C 
BRANCH  33  34
ATOM     34  O   UNL     1       4.759  -4.394  23.822  0.00  0.00    -0.392 OA
ATOM     35  H   UNL     1       5.353  -4.705  24.530  0.00  0.00    +0.210 HD
ENDBRANCH  33  34
ENDBRANCH  25  33
BRANCH  28  36
ATOM     36  O   UNL     1      10.443  -0.785  23.675  0.00  0.00    -0.449 OA
BRANCH  36  37
ATOM     37  C   UNL     1      10.431   0.544  23.992  0.00  0.00    +0.332 C 
ATOM     38  O   UNL     1      11.287   1.118  24.645  0.00  0.00    -0.246 OA
BRANCH  37  39
ATOM     39  C   UNL     1       9.251   1.217  23.405  0.00  0.00    +0.092 C 
ATOM     40  C   UNL     1       8.698   2.243  24.076  0.00  0.00    +0.015 C 
BRANCH  40  41
ATOM     41  C   UNL     1       7.560   3.023  23.581  0.00  0.00    -0.018 A 
ATOM     42  C   UNL     1       6.264   2.520  23.699  0.00  0.00    +0.057 A 
ATOM     43  C   UNL     1       5.179   3.248  23.195  0.00  0.00    +0.166 A 
ATOM     44  C   UNL     1       5.391   4.494  22.564  0.00  0.00    +0.201 A 
ATOM     45  C   UNL     1       6.685   5.007  22.428  0.00  0.00    +0.166 A 
ATOM     46  C   UNL     1       7.758   4.251  22.943  0.00  0.00    +0.057 A 
BRANCH  43  47
ATOM     47  O   UNL     1       3.870   2.825  23.265  0.00  0.00    -0.491 OA
ATOM     48  C   UNL     1       3.053   2.997  22.118  0.00  0.00    +0.277 C 
ENDBRANCH  43  47
BRANCH  44  49
ATOM     49  O   UNL     1       4.240   5.097  22.111  0.00  0.00    -0.501 OA
ATOM     50  H   UNL     1       4.083   4.906  21.183  0.00  0.00    +0.292 HD
ENDBRANCH  44  49
BRANCH  45  51
ATOM     51  O   UNL     1       7.142   6.159  21.853  0.00  0.00    -0.491 OA
ATOM     52  C   UNL     1       6.275   7.105  21.264  0.00  0.00    +0.277 C 
ENDBRANCH  45  51
ENDBRANCH  40  41
ENDBRANCH  37  39
ENDBRANCH  36  37
ENDBRANCH  28  36
ENDBRANCH  22  23
ENDBRANCH  17  22
ENDBRANCH   3   7
BRANCH   6  53
ATOM     53  O   UNL     1       1.841  -3.117  28.650  0.00  0.00    -0.457 OA
BRANCH  53  54
ATOM     54  C   UNL     1       0.777  -3.875  28.046  0.00  0.00    +0.339 C 
ATOM     55  O   UNL     1       0.804  -5.243  28.553  0.00  0.00    -0.331 OA
ATOM     56  C   UNL     1       1.818  -6.149  28.035  0.00  0.00    +0.179 C 
ATOM     57  C   UNL     1       2.102  -6.045  26.525  0.00  0.00    +0.177 C 
ATOM     58  C   UNL     1       2.112  -4.591  26.076  0.00  0.00    +0.180 C 
ATOM     59  C   UNL     1       0.786  -3.961  26.501  0.00  0.00    +0.214 C 
BRANCH  57  60
ATOM     60  O   UNL     1       1.074  -6.732  25.787  0.00  0.00    -0.386 OA
ATOM     61  H   UNL     1       0.640  -7.328  26.429  0.00  0.00    +0.210 HD
ENDBRANCH  57  60
BRANCH  58  62
ATOM     62  O   UNL     1       2.273  -4.524  24.652  0.00  0.00    -0.386 OA
ATOM     63  H   UNL     1       3.229  -4.456  24.469  0.00  0.00    +0.210 HD
ENDBRANCH  58  62
BRANCH  59  64
ATOM     64  O   UNL     1       0.557  -2.756  25.769  0.00  0.00    -0.383 OA
ATOM     65  H   UNL     1       1.006  -2.033  26.244  0.00  0.00    +0.210 HD
ENDBRANCH  59  64
BRANCH  56  66
ATOM     66  C   UNL     1       3.116  -6.022  28.844  0.00  0.00    +0.190 C 
BRANCH  66  67
ATOM     67  O   UNL     1       2.910  -5.205  29.995  0.00  0.00    -0.392 OA
ATOM     68  H   UNL     1       3.776  -4.818  30.222  0.00  0.00    +0.210 HD
ENDBRANCH  66  67
ENDBRANCH  56  66
ENDBRANCH  53  54
ENDBRANCH   6  53
BRANCH   1  69
ATOM     69  O   UNL     1       1.650  -0.608  27.935  0.00  0.00    -0.457 OA
BRANCH  69  72
ATOM     70  C   UNL     1       1.455   2.969  26.870  0.00  0.00    +0.191 C 
ATOM     71  O   UNL     1       2.089   1.673  27.036  0.00  0.00    -0.330 OA
ATOM     72  C   UNL     1       1.245   0.774  27.784  0.00  0.00    +0.339 C 
ATOM     73  C   UNL     1       1.123   1.379  29.219  0.00  0.00    +0.214 C 
ATOM     74  C   UNL     1       0.489   2.779  29.169  0.00  0.00    +0.180 C 
ATOM     75  C   UNL     1       1.273   3.694  28.222  0.00  0.00    +0.178 C 
BRANCH  73  76
ATOM     76  O   UNL     1       2.436   1.520  29.821  0.00  0.00    -0.383 OA
ATOM     77  H   UNL     1       2.326   1.352  30.777  0.00  0.00    +0.210 HD
ENDBRANCH  73  76
BRANCH  74  78
ATOM     78  O   UNL     1       0.443   3.356  30.485  0.00  0.00    -0.386 OA
ATOM     79  H   UNL     1      -0.289   4.001  30.488  0.00  0.00    +0.210 HD
ENDBRANCH  74  78
BRANCH  75  80
ATOM     80  O   UNL     1       0.570   4.931  28.068  0.00  0.00    -0.386 OA
ATOM     81  H   UNL     1      -0.304   4.828  28.487  0.00  0.00    +0.210 HD
ENDBRANCH  75  80
BRANCH  70  82
ATOM     82  C   UNL     1       2.298   3.840  25.932  0.00  0.00    +0.266 C 
BRANCH  82  83
ATOM     83  O   UNL     1       1.512   4.613  25.022  0.00  0.00    -0.459 OA
BRANCH  83  84
ATOM     84  C   UNL     1       1.460   5.932  25.321  0.00  0.00    +0.332 C 
ATOM     85  O   UNL     1       0.568   6.697  25.034  0.00  0.00    -0.246 OA
BRANCH  84  87
ATOM     86  C   UNL     1       3.846   6.139  25.493  0.00  0.00    +0.015 C 
ATOM     87  C   UNL     1       2.665   6.262  26.090  0.00  0.00    +0.092 C 
BRANCH  86  92
ATOM     88  C   UNL     1       6.381   6.593  28.199  0.00  0.00    +0.166 A 
ATOM     89  C   UNL     1       7.576   6.791  27.473  0.00  0.00    +0.201 A 
ATOM     90  C   UNL     1       7.557   6.786  26.071  0.00  0.00    +0.166 A 
ATOM     91  C   UNL     1       6.327   6.572  25.423  0.00  0.00    +0.057 A 
ATOM     92  C   UNL     1       5.137   6.393  26.134  0.00  0.00    -0.018 A 
ATOM     93  C   UNL     1       5.174   6.407  27.526  0.00  0.00    +0.057 A 
BRANCH  88  95
ATOM     94  C   UNL     1       5.300   7.108  30.248  0.00  0.00    +0.277 C 
ATOM     95  O   UNL     1       6.464   6.645  29.571  0.00  0.00    -0.491 OA
ENDBRANCH  88  95
BRANCH  89  96
ATOM     96  O   UNL     1       8.697   6.940  28.243  0.00  0.00    -0.501 OA
ATOM     97  H   UNL     1       9.368   7.443  27.775  0.00  0.00    +0.292 HD
ENDBRANCH  89  96
BRANCH  90  98
ATOM     98  O   UNL     1       8.561   6.940  25.159  0.00  0.00    -0.491 OA
ATOM     99  C   UNL     1       9.641   6.038  25.053  0.00  0.00    +0.277 C 
ENDBRANCH  90  98
ENDBRANCH  86  92
ENDBRANCH  84  87
ENDBRANCH  83  84
ENDBRANCH  82  83
ENDBRANCH  70  82
ENDBRANCH  69  72
ENDBRANCH   1  69
TORSDOF 36
ENDMDL
MODEL 5
REMARK VINA RESULT:      -1.8      2.376      8.568
REMARK  Name = 
REMARK  40 active torsions:
REMARK  status: ('A' for Active; 'I' for Inactive)
REMARK    1  A    between atoms: C_1  and  O_2
REMARK    2  A    between atoms: O_2  and  C_3
REMARK    3  A    between atoms: C_5  and  C_12
REMARK    4  A    between atoms: C_7  and  O_10
REMARK    5  A    between atoms: C_8  and  O_9
REMARK    6  A    between atoms: O_10  and  C_11
REMARK    7  A    between atoms: C_13  and  C_14
REMARK    8  A    between atoms: C_14  and  O_16
REMARK    9  A    between atoms: O_16  and  C_17
REMARK   10  A    between atoms: C_17  and  C_18
REMARK   11  A    between atoms: C_20  and  O_94
REMARK   12  A    between atoms: C_22  and  O_93
REMARK   13  A    between atoms: C_23  and  O_92
REMARK   14  A    between atoms: C_24  and  O_27
REMARK   15  A    between atoms: O_27  and  C_28
REMARK   16  A    between atoms: C_29  and  O_77
REMARK   17  A    between atoms: C_32  and  C_34
REMARK   18  A    between atoms: C_35  and  O_47
REMARK   19  A    between atoms: C_39  and  O_46
REMARK   20  A    between atoms: C_41  and  O_45
REMARK   21  A    between atoms: O_47  and  C_48
REMARK   22  A    between atoms: C_50  and  O_61
REMARK   23  A    between atoms: C_51  and  O_60
REMARK   24  A    between atoms: C_53  and  O_59
REMARK   25  A    between atoms: C_55  and  C_57
REMARK   26  A    between atoms: C_57  and  O_58
REMARK   27  A    between atoms: O_61  and  C_62
REMARK   28  A    between atoms: C_62  and  C_64
REMARK   29  A    between atoms: C_65  and  C_66
REMARK   30  A    between atoms: C_68  and  O_75
REMARK   31  A    between atoms: C_69  and  O_74
REMARK   32  A    between atoms: C_70  and  O_72
REMARK   33  A    between atoms: O_72  and  C_73
REMARK   34  A    between atoms: O_75  and  C_76
REMARK   35  A    between atoms: O_77  and  C_78
REMARK   36  A    between atoms: C_80  and  O_91
REMARK   37  A    between atoms: C_81  and  O_90
REMARK   38  A    between atoms: C_82  and  O_89
REMARK   39  A    between atoms: C_84  and  C_87
REMARK   40  A    between atoms: C_87  and  O_88
REMARK                            x       y       z     vdW  Elec       q    Type
REMARK                         _______ _______ _______ _____ _____    ______ ____
ROOT
ATOM      1  C   UNL     1       5.316  -1.001  24.948  0.00  0.00    +0.166 A 
ATOM      2  C   UNL     1       4.805   0.251  25.311  0.00  0.00    +0.061 A 
ATOM      3  C   UNL     1       5.240   1.487  24.721  0.00  0.00    +0.025 A 
ATOM      4  C   UNL     1       5.958   1.365  23.527  0.00  0.00    +0.015 A 
ATOM      5  C   UNL     1       6.327   0.081  23.033  0.00  0.00    +0.050 A 
ATOM      6  C   UNL     1       6.135  -1.078  23.799  0.00  0.00    +0.166 A 
ENDROOT
BRANCH   3   7
ATOM      7  C   UNL     1       5.030   2.784  25.533  0.00  0.00    +0.181 A 
ATOM      8  O   UNL     1       4.740   3.827  24.643  0.00  0.00    -0.451 OA
ATOM      9  C   UNL     1       3.492   4.380  24.693  0.00  0.00    +0.147 A 
ATOM     10  C   UNL     1       2.652   4.237  25.770  0.00  0.00    +0.109 A 
ATOM     11  C   UNL     1       1.358   4.756  25.697  0.00  0.00    +0.135 A 
ATOM     12  C   UNL     1       0.907   5.422  24.552  0.00  0.00    +0.091 A 
ATOM     13  C   UNL     1       1.791   5.585  23.494  0.00  0.00    +0.124 A 
ATOM     14  C   UNL     1       3.201   3.537  26.945  0.00  0.00    +0.238 A 
ATOM     15  O   UNL     1       2.490   3.438  27.941  0.00  0.00    -0.283 OA
ATOM     16  C   UNL     1       3.079   5.080  23.571  0.00  0.00    +0.092 A 
ATOM     17  C   UNL     1       4.559   2.878  26.812  0.00  0.00    +0.214 A 
BRANCH  11  18
ATOM     18  O   UNL     1       0.447   4.645  26.712  0.00  0.00    -0.506 OA
ATOM     19  H   UNL     1       0.939   4.594  27.558  0.00  0.00    +0.292 HD
ENDBRANCH  11  18
BRANCH  13  20
ATOM     20  O   UNL     1       1.414   6.228  22.351  0.00  0.00    -0.507 OA
ATOM     21  H   UNL     1       1.495   7.189  22.485  0.00  0.00    +0.292 HD
ENDBRANCH  13  20
BRANCH  17  22
ATOM     22  O   UNL     1       5.372   2.682  27.942  0.00  0.00    -0.452 OA
BRANCH  22  23
ATOM     23  C   UNL     1       4.982   3.398  29.173  0.00  0.00    +0.352 C 
ATOM     24  O   UNL     1       4.356   4.672  28.971  0.00  0.00    -0.330 OA
ATOM     25  C   UNL     1       5.213   5.703  28.448  0.00  0.00    +0.179 C 
ATOM     26  C   UNL     1       6.520   5.940  29.265  0.00  0.00    +0.178 C 
ATOM     27  C   UNL     1       7.195   4.590  29.600  0.00  0.00    +0.192 C 
ATOM     28  C   UNL     1       6.172   3.578  30.151  0.00  0.00    +0.276 C 
BRANCH  26  29
ATOM     29  O   UNL     1       6.359   6.670  30.482  0.00  0.00    -0.386 OA
ATOM     30  H   UNL     1       6.557   6.056  31.214  0.00  0.00    +0.210 HD
ENDBRANCH  26  29
BRANCH  27  31
ATOM     31  O   UNL     1       7.855   4.110  28.424  0.00  0.00    -0.385 OA
ATOM     32  H   UNL     1       7.529   3.208  28.254  0.00  0.00    +0.210 HD
ENDBRANCH  27  31
BRANCH  25  33
ATOM     33  C   UNL     1       4.311   6.926  28.147  0.00  0.00    +0.190 C 
BRANCH  33  34
ATOM     34  O   UNL     1       3.021   6.897  28.743  0.00  0.00    -0.392 OA
ATOM     35  H   UNL     1       2.362   6.975  28.029  0.00  0.00    +0.210 HD
ENDBRANCH  33  34
ENDBRANCH  25  33
BRANCH  28  36
ATOM     36  O   UNL     1       6.807   2.301  30.443  0.00  0.00    -0.449 OA
BRANCH  36  37
ATOM     37  C   UNL     1       6.337   1.275  29.673  0.00  0.00    +0.332 C 
ATOM     38  O   UNL     1       5.306   0.656  29.880  0.00  0.00    -0.246 OA
BRANCH  37  39
ATOM     39  C   UNL     1       7.230   1.028  28.520  0.00  0.00    +0.092 C 
ATOM     40  C   UNL     1       7.314  -0.221  28.028  0.00  0.00    +0.015 C 
BRANCH  40  41
ATOM     41  C   UNL     1       8.122  -0.588  26.861  0.00  0.00    -0.018 A 
ATOM     42  C   UNL     1       8.403  -1.929  26.599  0.00  0.00    +0.057 A 
ATOM     43  C   UNL     1       9.204  -2.278  25.506  0.00  0.00    +0.166 A 
ATOM     44  C   UNL     1       9.733  -1.275  24.663  0.00  0.00    +0.201 A 
ATOM     45  C   UNL     1       9.470   0.074  24.918  0.00  0.00    +0.166 A 
ATOM     46  C   UNL     1       8.662   0.396  26.028  0.00  0.00    +0.057 A 
BRANCH  43  47
ATOM     47  O   UNL     1       9.534  -3.575  25.176  0.00  0.00    -0.491 OA
ATOM     48  C   UNL     1       9.199  -4.601  26.098  0.00  0.00    +0.277 C 
ENDBRANCH  43  47
BRANCH  44  49
ATOM     49  O   UNL     1      10.506  -1.758  23.632  0.00  0.00    -0.501 OA
ATOM     50  H   UNL     1      11.158  -1.113  23.348  0.00  0.00    +0.292 HD
ENDBRANCH  44  49
BRANCH  45  51
ATOM     51  O   UNL     1       9.872   1.210  24.273  0.00  0.00    -0.491 OA
ATOM     52  C   UNL     1       9.277   2.467  24.514  0.00  0.00    +0.277 C 
ENDBRANCH  45  51
ENDBRANCH  40  41
ENDBRANCH  37  39
ENDBRANCH  36  37
ENDBRANCH  28  36
ENDBRANCH  22  23
ENDBRANCH  17  22
ENDBRANCH   3   7
BRANCH   6  53
ATOM     53  O   UNL     1       6.720  -2.303  23.558  0.00  0.00    -0.457 OA
BRANCH  53  54
ATOM     54  C   UNL     1       6.839  -2.871  22.241  0.00  0.00    +0.339 C 
ATOM     55  O   UNL     1       5.528  -3.317  21.781  0.00  0.00    -0.331 OA
ATOM     56  C   UNL     1       4.992  -4.555  22.327  0.00  0.00    +0.179 C 
ATOM     57  C   UNL     1       6.004  -5.701  22.511  0.00  0.00    +0.177 C 
ATOM     58  C   UNL     1       7.329  -5.172  23.041  0.00  0.00    +0.180 C 
ATOM     59  C   UNL     1       7.806  -4.070  22.095  0.00  0.00    +0.214 C 
BRANCH  57  60
ATOM     60  O   UNL     1       6.255  -6.337  21.243  0.00  0.00    -0.386 OA
ATOM     61  H   UNL     1       5.811  -7.207  21.291  0.00  0.00    +0.210 HD
ENDBRANCH  57  60
BRANCH  58  62
ATOM     62  O   UNL     1       8.287  -6.238  23.103  0.00  0.00    -0.386 OA
ATOM     63  H   UNL     1       7.896  -6.952  23.642  0.00  0.00    +0.210 HD
ENDBRANCH  58  62
BRANCH  59  64
ATOM     64  O   UNL     1       9.199  -3.824  22.288  0.00  0.00    -0.383 OA
ATOM     65  H   UNL     1       9.381  -3.893  23.244  0.00  0.00    +0.210 HD
ENDBRANCH  59  64
BRANCH  56  66
ATOM     66  C   UNL     1       4.234  -4.283  23.634  0.00  0.00    +0.190 C 
BRANCH  66  67
ATOM     67  O   UNL     1       4.148  -5.472  24.418  0.00  0.00    -0.392 OA
ATOM     68  H   UNL     1       5.042  -5.862  24.434  0.00  0.00    +0.210 HD
ENDBRANCH  66  67
ENDBRANCH  56  66
ENDBRANCH  53  54
ENDBRANCH   6  53
BRANCH   1  69
ATOM     69  O   UNL     1       5.227  -2.141  25.700  0.00  0.00    -0.457 OA
BRANCH  69  72
ATOM     70  C   UNL     1       2.595  -2.189  28.353  0.00  0.00    +0.191 C 
ATOM     71  O   UNL     1       3.683  -1.613  27.582  0.00  0.00    -0.330 OA
ATOM     72  C   UNL     1       4.224  -2.572  26.651  0.00  0.00    +0.339 C 
ATOM     73  C   UNL     1       4.862  -3.708  27.512  0.00  0.00    +0.214 C 
ATOM     74  C   UNL     1       3.803  -4.379  28.404  0.00  0.00    +0.180 C 
ATOM     75  C   UNL     1       3.085  -3.334  29.266  0.00  0.00    +0.178 C 
BRANCH  73  76
ATOM     76  O   UNL     1       5.884  -3.165  28.389  0.00  0.00    -0.383 OA
ATOM     77  H   UNL     1       6.745  -3.367  27.974  0.00  0.00    +0.210 HD
ENDBRANCH  73  76
BRANCH  74  78
ATOM     78  O   UNL     1       4.410  -5.375  29.242  0.00  0.00    -0.386 OA
ATOM     79  H   UNL     1       4.557  -6.164  28.687  0.00  0.00    +0.210 HD
ENDBRANCH  74  78
BRANCH  75  80
ATOM     80  O   UNL     1       1.998  -3.958  29.959  0.00  0.00    -0.386 OA
ATOM     81  H   UNL     1       2.180  -3.891  30.915  0.00  0.00    +0.210 HD
ENDBRANCH  75  80
BRANCH  70  82
ATOM     82  C   UNL     1       1.935  -1.100  29.207  0.00  0.00    +0.266 C 
BRANCH  82  83
ATOM     83  O   UNL     1       0.666  -0.678  28.701  0.00  0.00    -0.459 OA
BRANCH  83  84
ATOM     84  C   UNL     1       0.508  -0.877  27.372  0.00  0.00    +0.332 C 
ATOM     85  O   UNL     1       0.447  -0.020  26.521  0.00  0.00    -0.246 OA
BRANCH  84  87
ATOM     86  C   UNL     1       0.751  -2.781  25.927  0.00  0.00    +0.015 C 
ATOM     87  C   UNL     1       0.461  -2.327  27.142  0.00  0.00    +0.092 C 
BRANCH  86  92
ATOM     88  C   UNL     1       0.554  -6.499  26.233  0.00  0.00    +0.166 A 
ATOM     89  C   UNL     1       0.557  -6.920  24.885  0.00  0.00    +0.201 A 
ATOM     90  C   UNL     1       0.633  -5.975  23.852  0.00  0.00    +0.166 A 
ATOM     91  C   UNL     1       0.698  -4.614  24.199  0.00  0.00    +0.057 A 
ATOM     92  C   UNL     1       0.714  -4.189  25.531  0.00  0.00    -0.018 A 
ATOM     93  C   UNL     1       0.644  -5.143  26.544  0.00  0.00    +0.057 A 
BRANCH  88  95
ATOM     94  C   UNL     1       1.493  -7.381  28.226  0.00  0.00    +0.277 C 
ATOM     95  O   UNL     1       0.514  -7.479  27.197  0.00  0.00    -0.491 OA
ENDBRANCH  88  95
BRANCH  89  96
ATOM     96  O   UNL     1       0.444  -8.272  24.707  0.00  0.00    -0.501 OA
ATOM     97  H   UNL     1       1.251  -8.719  24.974  0.00  0.00    +0.292 HD
ENDBRANCH  89  96
BRANCH  90  98
ATOM     98  O   UNL     1       0.640  -6.126  22.495  0.00  0.00    -0.491 OA
ATOM     99  C   UNL     1       1.461  -7.066  21.837  0.00  0.00    +0.277 C 
ENDBRANCH  90  98
ENDBRANCH  86  92
ENDBRANCH  84  87
ENDBRANCH  83  84
ENDBRANCH  82  83
ENDBRANCH  70  82
ENDBRANCH  69  72
ENDBRANCH   1  69
TORSDOF 36
ENDMDL
MODEL 6
REMARK VINA RESULT:      -1.7      0.838      2.022
REMARK  Name = 
REMARK  40 active torsions:
REMARK  status: ('A' for Active; 'I' for Inactive)
REMARK    1  A    between atoms: C_1  and  O_2
REMARK    2  A    between atoms: O_2  and  C_3
REMARK    3  A    between atoms: C_5  and  C_12
REMARK    4  A    between atoms: C_7  and  O_10
REMARK    5  A    between atoms: C_8  and  O_9
REMARK    6  A    between atoms: O_10  and  C_11
REMARK    7  A    between atoms: C_13  and  C_14
REMARK    8  A    between atoms: C_14  and  O_16
REMARK    9  A    between atoms: O_16  and  C_17
REMARK   10  A    between atoms: C_17  and  C_18
REMARK   11  A    between atoms: C_20  and  O_94
REMARK   12  A    between atoms: C_22  and  O_93
REMARK   13  A    between atoms: C_23  and  O_92
REMARK   14  A    between atoms: C_24  and  O_27
REMARK   15  A    between atoms: O_27  and  C_28
REMARK   16  A    between atoms: C_29  and  O_77
REMARK   17  A    between atoms: C_32  and  C_34
REMARK   18  A    between atoms: C_35  and  O_47
REMARK   19  A    between atoms: C_39  and  O_46
REMARK   20  A    between atoms: C_41  and  O_45
REMARK   21  A    between atoms: O_47  and  C_48
REMARK   22  A    between atoms: C_50  and  O_61
REMARK   23  A    between atoms: C_51  and  O_60
REMARK   24  A    between atoms: C_53  and  O_59
REMARK   25  A    between atoms: C_55  and  C_57
REMARK   26  A    between atoms: C_57  and  O_58
REMARK   27  A    between atoms: O_61  and  C_62
REMARK   28  A    between atoms: C_62  and  C_64
REMARK   29  A    between atoms: C_65  and  C_66
REMARK   30  A    between atoms: C_68  and  O_75
REMARK   31  A    between atoms: C_69  and  O_74
REMARK   32  A    between atoms: C_70  and  O_72
REMARK   33  A    between atoms: O_72  and  C_73
REMARK   34  A    between atoms: O_75  and  C_76
REMARK   35  A    between atoms: O_77  and  C_78
REMARK   36  A    between atoms: C_80  and  O_91
REMARK   37  A    between atoms: C_81  and  O_90
REMARK   38  A    between atoms: C_82  and  O_89
REMARK   39  A    between atoms: C_84  and  C_87
REMARK   40  A    between atoms: C_87  and  O_88
REMARK                            x       y       z     vdW  Elec       q    Type
REMARK                         _______ _______ _______ _____ _____    ______ ____
ROOT
ATOM      1  C   UNL     1       2.509   2.018  26.594  0.00  0.00    +0.166 A 
ATOM      2  C   UNL     1       2.988   0.715  26.411  0.00  0.00    +0.061 A 
ATOM      3  C   UNL     1       2.633  -0.388  27.261  0.00  0.00    +0.025 A 
ATOM      4  C   UNL     1       1.523  -0.181  28.085  0.00  0.00    +0.015 A 
ATOM      5  C   UNL     1       0.894   1.095  28.145  0.00  0.00    +0.050 A 
ATOM      6  C   UNL     1       1.460   2.217  27.520  0.00  0.00    +0.166 A 
ENDROOT
BRANCH   3   7
ATOM      7  C   UNL     1       3.595  -1.596  27.308  0.00  0.00    +0.181 A 
ATOM      8  O   UNL     1       3.141  -2.491  28.286  0.00  0.00    -0.451 OA
ATOM      9  C   UNL     1       2.687  -3.712  27.873  0.00  0.00    +0.147 A 
ATOM     10  C   UNL     1       2.982  -4.242  26.641  0.00  0.00    +0.109 A 
ATOM     11  C   UNL     1       2.397  -5.454  26.266  0.00  0.00    +0.135 A 
ATOM     12  C   UNL     1       1.527  -6.136  27.122  0.00  0.00    +0.091 A 
ATOM     13  C   UNL     1       1.279  -5.596  28.377  0.00  0.00    +0.124 A 
ATOM     14  C   UNL     1       3.916  -3.475  25.800  0.00  0.00    +0.238 A 
ATOM     15  O   UNL     1       4.236  -3.949  24.714  0.00  0.00    -0.283 OA
ATOM     16  C   UNL     1       1.866  -4.398  28.754  0.00  0.00    +0.092 A 
ATOM     17  C   UNL     1       4.329  -2.094  26.270  0.00  0.00    +0.214 A 
BRANCH  11  18
ATOM     18  O   UNL     1       2.617  -6.048  25.053  0.00  0.00    -0.506 OA
ATOM     19  H   UNL     1       1.789  -6.495  24.779  0.00  0.00    +0.292 HD
ENDBRANCH  11  18
BRANCH  13  20
ATOM     20  O   UNL     1       0.443  -6.213  29.260  0.00  0.00    -0.507 OA
ATOM     21  H   UNL     1      -0.406  -6.397  28.821  0.00  0.00    +0.292 HD
ENDBRANCH  13  20
BRANCH  17  22
ATOM     22  O   UNL     1       5.558  -1.542  25.868  0.00  0.00    -0.452 OA
BRANCH  22  23
ATOM     23  C   UNL     1       6.697  -1.709  26.793  0.00  0.00    +0.352 C 
ATOM     24  O   UNL     1       6.368  -1.654  28.188  0.00  0.00    -0.330 OA
ATOM     25  C   UNL     1       5.952  -0.365  28.673  0.00  0.00    +0.179 C 
ATOM     26  C   UNL     1       6.950   0.796  28.374  0.00  0.00    +0.178 C 
ATOM     27  C   UNL     1       7.419   0.734  26.902  0.00  0.00    +0.192 C 
ATOM     28  C   UNL     1       7.837  -0.697  26.511  0.00  0.00    +0.276 C 
BRANCH  26  29
ATOM     29  O   UNL     1       8.109   0.839  29.208  0.00  0.00    -0.386 OA
ATOM     30  H   UNL     1       8.270  -0.070  29.523  0.00  0.00    +0.210 HD
ENDBRANCH  26  29
BRANCH  27  31
ATOM     31  O   UNL     1       6.370   1.240  26.071  0.00  0.00    -0.385 OA
ATOM     32  H   UNL     1       5.946   1.975  26.551  0.00  0.00    +0.210 HD
ENDBRANCH  27  31
BRANCH  25  33
ATOM     33  C   UNL     1       5.486  -0.565  30.137  0.00  0.00    +0.190 C 
BRANCH  33  34
ATOM     34  O   UNL     1       4.087  -0.447  30.356  0.00  0.00    -0.392 OA
ATOM     35  H   UNL     1       3.632  -0.943  29.649  0.00  0.00    +0.210 HD
ENDBRANCH  33  34
ENDBRANCH  25  33
BRANCH  28  36
ATOM     36  O   UNL     1       8.256  -0.755  25.118  0.00  0.00    -0.449 OA
BRANCH  36  37
ATOM     37  C   UNL     1       9.608  -0.652  24.955  0.00  0.00    +0.332 C 
ATOM     38  O   UNL     1      10.358  -1.580  24.702  0.00  0.00    -0.246 OA
BRANCH  37  39
ATOM     39  C   UNL     1      10.050   0.754  25.090  0.00  0.00    +0.092 C 
ATOM     40  C   UNL     1      10.007   1.548  24.005  0.00  0.00    +0.015 C 
BRANCH  40  41
ATOM     41  C   UNL     1      10.369   2.968  24.018  0.00  0.00    -0.018 A 
ATOM     42  C   UNL     1       9.476   3.913  24.523  0.00  0.00    +0.057 A 
ATOM     43  C   UNL     1       9.806   5.273  24.503  0.00  0.00    +0.166 A 
ATOM     44  C   UNL     1      11.044   5.696  23.970  0.00  0.00    +0.201 A 
ATOM     45  C   UNL     1      11.946   4.763  23.449  0.00  0.00    +0.166 A 
ATOM     46  C   UNL     1      11.585   3.400  23.481  0.00  0.00    +0.057 A 
BRANCH  43  47
ATOM     47  O   UNL     1       8.984   6.272  24.977  0.00  0.00    -0.491 OA
ATOM     48  C   UNL     1       9.031   6.571  26.363  0.00  0.00    +0.277 C 
ENDBRANCH  43  47
BRANCH  44  49
ATOM     49  O   UNL     1      11.235   7.059  24.007  0.00  0.00    -0.501 OA
ATOM     50  H   UNL     1      10.473   7.532  23.663  0.00  0.00    +0.292 HD
ENDBRANCH  44  49
BRANCH  45  51
ATOM     51  O   UNL     1      13.176   4.920  22.873  0.00  0.00    -0.491 OA
ATOM     52  C   UNL     1      13.334   5.286  21.519  0.00  0.00    +0.277 C 
ENDBRANCH  45  51
ENDBRANCH  40  41
ENDBRANCH  37  39
ENDBRANCH  36  37
ENDBRANCH  28  36
ENDBRANCH  22  23
ENDBRANCH  17  22
ENDBRANCH   3   7
BRANCH   6  53
ATOM     53  O   UNL     1       1.113   3.529  27.763  0.00  0.00    -0.457 OA
BRANCH  53  54
ATOM     54  C   UNL     1       2.036   4.625  27.625  0.00  0.00    +0.339 C 
ATOM     55  O   UNL     1       3.251   4.337  28.382  0.00  0.00    -0.331 OA
ATOM     56  C   UNL     1       3.210   4.481  29.829  0.00  0.00    +0.179 C 
ATOM     57  C   UNL     1       2.425   5.693  30.361  0.00  0.00    +0.177 C 
ATOM     58  C   UNL     1       1.147   5.902  29.562  0.00  0.00    +0.180 C 
ATOM     59  C   UNL     1       1.530   6.012  28.086  0.00  0.00    +0.214 C 
BRANCH  57  60
ATOM     60  O   UNL     1       3.225   6.885  30.239  0.00  0.00    -0.386 OA
ATOM     61  H   UNL     1       3.225   7.296  31.126  0.00  0.00    +0.210 HD
ENDBRANCH  57  60
BRANCH  58  62
ATOM     62  O   UNL     1       0.486   7.096  30.006  0.00  0.00    -0.386 OA
ATOM     63  H   UNL     1      -0.397   7.113  29.589  0.00  0.00    +0.210 HD
ENDBRANCH  58  62
BRANCH  59  64
ATOM     64  O   UNL     1       0.464   6.607  27.345  0.00  0.00    -0.383 OA
ATOM     65  H   UNL     1      -0.171   5.902  27.122  0.00  0.00    +0.210 HD
ENDBRANCH  59  64
BRANCH  56  66
ATOM     66  C   UNL     1       2.719   3.183  30.485  0.00  0.00    +0.190 C 
BRANCH  66  67
ATOM     67  O   UNL     1       3.364   2.053  29.900  0.00  0.00    -0.392 OA
ATOM     68  H   UNL     1       3.874   1.622  30.612  0.00  0.00    +0.210 HD
ENDBRANCH  66  67
ENDBRANCH  56  66
ENDBRANCH  53  54
ENDBRANCH   6  53
BRANCH   1  69
ATOM     69  O   UNL     1       3.076   3.151  26.076  0.00  0.00    -0.457 OA
BRANCH  69  72
ATOM     70  C   UNL     1       5.564   2.876  23.301  0.00  0.00    +0.191 C 
ATOM     71  O   UNL     1       5.046   2.646  24.638  0.00  0.00    -0.330 OA
ATOM     72  C   UNL     1       3.813   3.363  24.848  0.00  0.00    +0.339 C 
ATOM     73  C   UNL     1       4.172   4.882  24.782  0.00  0.00    +0.214 C 
ATOM     74  C   UNL     1       4.766   5.244  23.410  0.00  0.00    +0.180 C 
ATOM     75  C   UNL     1       5.970   4.351  23.091  0.00  0.00    +0.178 C 
BRANCH  73  76
ATOM     76  O   UNL     1       5.169   5.209  25.784  0.00  0.00    -0.383 OA
ATOM     77  H   UNL     1       5.287   4.410  26.334  0.00  0.00    +0.210 HD
ENDBRANCH  73  76
BRANCH  74  78
ATOM     78  O   UNL     1       5.156   6.627  23.381  0.00  0.00    -0.386 OA
ATOM     79  H   UNL     1       5.708   6.784  24.169  0.00  0.00    +0.210 HD
ENDBRANCH  74  78
BRANCH  75  80
ATOM     80  O   UNL     1       6.398   4.595  21.746  0.00  0.00    -0.386 OA
ATOM     81  H   UNL     1       7.368   4.700  21.759  0.00  0.00    +0.210 HD
ENDBRANCH  75  80
BRANCH  70  82
ATOM     82  C   UNL     1       6.777   1.971  23.054  0.00  0.00    +0.266 C 
BRANCH  82  83
ATOM     83  O   UNL     1       6.916   1.575  21.688  0.00  0.00    -0.459 OA
BRANCH  83  84
ATOM     84  C   UNL     1       7.777   0.548  21.496  0.00  0.00    +0.332 C 
ATOM     85  O   UNL     1       8.861   0.612  20.964  0.00  0.00    -0.246 OA
BRANCH  84  87
ATOM     86  C   UNL     1       7.914  -1.753  22.172  0.00  0.00    +0.015 C 
ATOM     87  C   UNL     1       7.172  -0.653  22.084  0.00  0.00    +0.092 C 
BRANCH  86  92
ATOM     88  C   UNL     1       6.005  -4.954  22.400  0.00  0.00    +0.166 A 
ATOM     89  C   UNL     1       6.532  -5.546  23.569  0.00  0.00    +0.201 A 
ATOM     90  C   UNL     1       7.525  -4.886  24.306  0.00  0.00    +0.166 A 
ATOM     91  C   UNL     1       7.977  -3.637  23.843  0.00  0.00    +0.057 A 
ATOM     92  C   UNL     1       7.448  -3.036  22.698  0.00  0.00    -0.018 A 
ATOM     93  C   UNL     1       6.457  -3.704  21.982  0.00  0.00    +0.057 A 
BRANCH  88  95
ATOM     94  C   UNL     1       5.397  -6.321  20.557  0.00  0.00    +0.277 C 
ATOM     95  O   UNL     1       5.007  -5.639  21.745  0.00  0.00    -0.491 OA
ENDBRANCH  88  95
BRANCH  89  96
ATOM     96  O   UNL     1       6.024  -6.782  23.865  0.00  0.00    -0.501 OA
ATOM     97  H   UNL     1       5.712  -7.221  23.069  0.00  0.00    +0.292 HD
ENDBRANCH  89  96
BRANCH  90  98
ATOM     98  O   UNL     1       8.191  -5.248  25.442  0.00  0.00    -0.491 OA
ATOM     99  C   UNL     1       9.264  -4.498  25.968  0.00  0.00    +0.277 C 
ENDBRANCH  90  98
ENDBRANCH  86  92
ENDBRANCH  84  87
ENDBRANCH  83  84
ENDBRANCH  82  83
ENDBRANCH  70  82
ENDBRANCH  69  72
ENDBRANCH   1  69
TORSDOF 36
ENDMDL
MODEL 7
REMARK VINA RESULT:      -1.0      2.104      9.485
REMARK  Name = 
REMARK  40 active torsions:
REMARK  status: ('A' for Active; 'I' for Inactive)
REMARK    1  A    between atoms: C_1  and  O_2
REMARK    2  A    between atoms: O_2  and  C_3
REMARK    3  A    between atoms: C_5  and  C_12
REMARK    4  A    between atoms: C_7  and  O_10
REMARK    5  A    between atoms: C_8  and  O_9
REMARK    6  A    between atoms: O_10  and  C_11
REMARK    7  A    between atoms: C_13  and  C_14
REMARK    8  A    between atoms: C_14  and  O_16
REMARK    9  A    between atoms: O_16  and  C_17
REMARK   10  A    between atoms: C_17  and  C_18
REMARK   11  A    between atoms: C_20  and  O_94
REMARK   12  A    between atoms: C_22  and  O_93
REMARK   13  A    between atoms: C_23  and  O_92
REMARK   14  A    between atoms: C_24  and  O_27
REMARK   15  A    between atoms: O_27  and  C_28
REMARK   16  A    between atoms: C_29  and  O_77
REMARK   17  A    between atoms: C_32  and  C_34
REMARK   18  A    between atoms: C_35  and  O_47
REMARK   19  A    between atoms: C_39  and  O_46
REMARK   20  A    between atoms: C_41  and  O_45
REMARK   21  A    between atoms: O_47  and  C_48
REMARK   22  A    between atoms: C_50  and  O_61
REMARK   23  A    between atoms: C_51  and  O_60
REMARK   24  A    between atoms: C_53  and  O_59
REMARK   25  A    between atoms: C_55  and  C_57
REMARK   26  A    between atoms: C_57  and  O_58
REMARK   27  A    between atoms: O_61  and  C_62
REMARK   28  A    between atoms: C_62  and  C_64
REMARK   29  A    between atoms: C_65  and  C_66
REMARK   30  A    between atoms: C_68  and  O_75
REMARK   31  A    between atoms: C_69  and  O_74
REMARK   32  A    between atoms: C_70  and  O_72
REMARK   33  A    between atoms: O_72  and  C_73
REMARK   34  A    between atoms: O_75  and  C_76
REMARK   35  A    between atoms: O_77  and  C_78
REMARK   36  A    between atoms: C_80  and  O_91
REMARK   37  A    between atoms: C_81  and  O_90
REMARK   38  A    between atoms: C_82  and  O_89
REMARK   39  A    between atoms: C_84  and  C_87
REMARK   40  A    between atoms: C_87  and  O_88
REMARK                            x       y       z     vdW  Elec       q    Type
REMARK                         _______ _______ _______ _____ _____    ______ ____
ROOT
ATOM      1  C   UNL     1       4.261  -1.810  25.136  0.00  0.00    +0.166 A 
ATOM      2  C   UNL     1       4.622  -0.486  25.420  0.00  0.00    +0.061 A 
ATOM      3  C   UNL     1       3.722   0.475  25.995  0.00  0.00    +0.025 A 
ATOM      4  C   UNL     1       2.565  -0.054  26.574  0.00  0.00    +0.015 A 
ATOM      5  C   UNL     1       2.269  -1.442  26.463  0.00  0.00    +0.050 A 
ATOM      6  C   UNL     1       3.029  -2.286  25.637  0.00  0.00    +0.166 A 
ENDROOT
BRANCH   3   7
ATOM      7  C   UNL     1       4.030   1.972  25.768  0.00  0.00    +0.181 A 
ATOM      8  O   UNL     1       4.145   2.200  24.390  0.00  0.00    -0.451 OA
ATOM      9  C   UNL     1       3.200   2.985  23.791  0.00  0.00    +0.147 A 
ATOM     10  C   UNL     1       2.383   3.838  24.492  0.00  0.00    +0.109 A 
ATOM     11  C   UNL     1       1.381   4.531  23.810  0.00  0.00    +0.135 A 
ATOM     12  C   UNL     1       1.201   4.377  22.432  0.00  0.00    +0.091 A 
ATOM     13  C   UNL     1       2.067   3.538  21.744  0.00  0.00    +0.124 A 
ATOM     14  C   UNL     1       2.641   3.959  25.937  0.00  0.00    +0.238 A 
ATOM     15  O   UNL     1       1.958   4.751  26.580  0.00  0.00    -0.283 OA
ATOM     16  C   UNL     1       3.068   2.858  22.418  0.00  0.00    +0.092 A 
ATOM     17  C   UNL     1       3.646   3.013  26.564  0.00  0.00    +0.214 A 
BRANCH  11  18
ATOM     18  O   UNL     1       0.509   5.387  24.427  0.00  0.00    -0.506 OA
ATOM     19  H   UNL     1       1.030   6.114  24.829  0.00  0.00    +0.292 HD
ENDBRANCH  11  18
BRANCH  13  20
ATOM     20  O   UNL     1       1.947   3.348  20.398  0.00  0.00    -0.507 OA
ATOM     21  H   UNL     1       2.816   3.106  20.031  0.00  0.00    +0.292 HD
ENDBRANCH  13  20
BRANCH  17  22
ATOM     22  O   UNL     1       4.339   3.378  27.731  0.00  0.00    -0.452 OA
BRANCH  22  23
ATOM     23  C   UNL     1       4.504   4.824  27.981  0.00  0.00    +0.352 C 
ATOM     24  O   UNL     1       4.782   5.620  26.821  0.00  0.00    -0.330 OA
ATOM     25  C   UNL     1       6.074   5.409  26.224  0.00  0.00    +0.179 C 
ATOM     26  C   UNL     1       7.277   5.563  27.205  0.00  0.00    +0.178 C 
ATOM     27  C   UNL     1       6.996   4.802  28.521  0.00  0.00    +0.192 C 
ATOM     28  C   UNL     1       5.585   5.115  29.055  0.00  0.00    +0.276 C 
BRANCH  26  29
ATOM     29  O   UNL     1       7.632   6.906  27.535  0.00  0.00    -0.386 OA
ATOM     30  H   UNL     1       7.370   7.052  28.463  0.00  0.00    +0.210 HD
ENDBRANCH  26  29
BRANCH  27  31
ATOM     31  O   UNL     1       7.190   3.404  28.286  0.00  0.00    -0.385 OA
ATOM     32  H   UNL     1       7.806   3.317  27.536  0.00  0.00    +0.210 HD
ENDBRANCH  27  31
BRANCH  25  33
ATOM     33  C   UNL     1       6.098   6.227  24.908  0.00  0.00    +0.190 C 
BRANCH  33  34
ATOM     34  O   UNL     1       7.330   6.870  24.610  0.00  0.00    -0.392 OA
ATOM     35  H   UNL     1       7.486   6.782  23.651  0.00  0.00    +0.210 HD
ENDBRANCH  33  34
ENDBRANCH  25  33
BRANCH  28  36
ATOM     36  O   UNL     1       5.316   4.379  30.281  0.00  0.00    -0.449 OA
BRANCH  36  37
ATOM     37  C   UNL     1       4.031   3.923  30.367  0.00  0.00    +0.332 C 
ATOM     38  O   UNL     1       3.032   4.622  30.324  0.00  0.00    -0.246 OA
BRANCH  37  39
ATOM     39  C   UNL     1       4.001   2.448  30.484  0.00  0.00    +0.092 C 
ATOM     40  C   UNL     1       3.029   1.772  29.844  0.00  0.00    +0.015 C 
BRANCH  40  41
ATOM     41  C   UNL     1       2.917   0.311  29.840  0.00  0.00    -0.018 A 
ATOM     42  C   UNL     1       1.701  -0.297  30.152  0.00  0.00    +0.057 A 
ATOM     43  C   UNL     1       1.602  -1.693  30.183  0.00  0.00    +0.166 A 
ATOM     44  C   UNL     1       2.731  -2.493  29.900  0.00  0.00    +0.201 A 
ATOM     45  C   UNL     1       3.960  -1.898  29.597  0.00  0.00    +0.166 A 
ATOM     46  C   UNL     1       4.031  -0.490  29.575  0.00  0.00    +0.057 A 
BRANCH  43  47
ATOM     47  O   UNL     1       0.443  -2.375  30.484  0.00  0.00    -0.491 OA
ATOM     48  C   UNL     1       0.451  -3.789  30.359  0.00  0.00    +0.277 C 
ENDBRANCH  43  47
BRANCH  44  49
ATOM     49  O   UNL     1       2.493  -3.846  29.972  0.00  0.00    -0.501 OA
ATOM     50  H   UNL     1       2.047  -4.169  29.185  0.00  0.00    +0.292 HD
ENDBRANCH  44  49
BRANCH  45  51
ATOM     51  O   UNL     1       5.180  -2.445  29.309  0.00  0.00    -0.491 OA
ATOM     52  C   UNL     1       5.447  -3.092  28.083  0.00  0.00    +0.277 C 
ENDBRANCH  45  51
ENDBRANCH  40  41
ENDBRANCH  37  39
ENDBRANCH  36  37
ENDBRANCH  28  36
ENDBRANCH  22  23
ENDBRANCH  17  22
ENDBRANCH   3   7
BRANCH   6  53
ATOM     53  O   UNL     1       2.657  -3.546  25.223  0.00  0.00    -0.457 OA
BRANCH  53  54
ATOM     54  C   UNL     1       3.438  -4.725  25.493  0.00  0.00    +0.339 C 
ATOM     55  O   UNL     1       3.433  -5.594  24.320  0.00  0.00    -0.331 OA
ATOM     56  C   UNL     1       2.238  -6.379  24.051  0.00  0.00    +0.179 C 
ATOM     57  C   UNL     1       1.553  -7.001  25.282  0.00  0.00    +0.177 C 
ATOM     58  C   UNL     1       1.547  -6.023  26.448  0.00  0.00    +0.180 C 
ATOM     59  C   UNL     1       2.990  -5.585  26.699  0.00  0.00    +0.214 C 
BRANCH  57  60
ATOM     60  O   UNL     1       2.269  -8.181  25.694  0.00  0.00    -0.386 OA
ATOM     61  H   UNL     1       1.595  -8.781  26.071  0.00  0.00    +0.210 HD
ENDBRANCH  57  60
BRANCH  58  62
ATOM     62  O   UNL     1       1.001  -6.660  27.613  0.00  0.00    -0.386 OA
ATOM     63  H   UNL     1       1.235  -7.606  27.565  0.00  0.00    +0.210 HD
ENDBRANCH  58  62
BRANCH  59  64
ATOM     64  O   UNL     1       3.111  -5.012  28.002  0.00  0.00    -0.383 OA
ATOM     65  H   UNL     1       3.415  -5.714  28.606  0.00  0.00    +0.210 HD
ENDBRANCH  59  64
BRANCH  56  66
ATOM     66  C   UNL     1       1.235  -5.566  23.222  0.00  0.00    +0.190 C 
BRANCH  66  67
ATOM     67  O   UNL     1       1.210  -6.029  21.873  0.00  0.00    -0.392 OA
ATOM     68  H   UNL     1       1.955  -5.596  21.415  0.00  0.00    +0.210 HD
ENDBRANCH  66  67
ENDBRANCH  56  66
ENDBRANCH  53  54
ENDBRANCH   6  53
BRANCH   1  69
ATOM     69  O   UNL     1       4.921  -2.643  24.274  0.00  0.00    -0.457 OA
BRANCH  69  72
ATOM     70  C   UNL     1       8.328  -3.962  25.060  0.00  0.00    +0.191 C 
ATOM     71  O   UNL     1       7.352  -2.939  24.730  0.00  0.00    -0.330 OA
ATOM     72  C   UNL     1       6.055  -3.519  24.486  0.00  0.00    +0.339 C 
ATOM     73  C   UNL     1       6.202  -4.401  23.206  0.00  0.00    +0.214 C 
ATOM     74  C   UNL     1       7.244  -5.512  23.424  0.00  0.00    +0.180 C 
ATOM     75  C   UNL     1       8.583  -4.915  23.872  0.00  0.00    +0.178 C 
BRANCH  73  76
ATOM     76  O   UNL     1       6.658  -3.596  22.087  0.00  0.00    -0.383 OA
ATOM     77  H   UNL     1       6.286  -2.701  22.216  0.00  0.00    +0.210 HD
ENDBRANCH  73  76
BRANCH  74  78
ATOM     78  O   UNL     1       7.423  -6.276  22.220  0.00  0.00    -0.386 OA
ATOM     79  H   UNL     1       7.508  -7.210  22.485  0.00  0.00    +0.210 HD
ENDBRANCH  74  78
BRANCH  75  80
ATOM     80  O   UNL     1       9.478  -5.975  24.227  0.00  0.00    -0.386 OA
ATOM     81  H   UNL     1      10.044  -5.652  24.952  0.00  0.00    +0.210 HD
ENDBRANCH  75  80
BRANCH  70  82
ATOM     82  C   UNL     1       9.647  -3.302  25.478  0.00  0.00    +0.266 C 
BRANCH  82  83
ATOM     83  O   UNL     1       9.790  -1.967  24.987  0.00  0.00    -0.459 OA
BRANCH  83  84
ATOM     84  C   UNL     1      10.205  -1.893  23.701  0.00  0.00    +0.332 C 
ATOM     85  O   UNL     1      10.321  -2.819  22.932  0.00  0.00    -0.246 OA
BRANCH  84  87
ATOM     86  C   UNL     1       9.630   0.430  23.902  0.00  0.00    +0.015 C 
ATOM     87  C   UNL     1      10.456  -0.480  23.396  0.00  0.00    +0.092 C 
BRANCH  86  92
ATOM     88  C   UNL     1       8.556   3.932  23.172  0.00  0.00    +0.166 A 
ATOM     89  C   UNL     1       9.769   4.651  23.259  0.00  0.00    +0.201 A 
ATOM     90  C   UNL     1      10.965   3.982  23.553  0.00  0.00    +0.166 A 
ATOM     91  C   UNL     1      10.915   2.592  23.763  0.00  0.00    +0.057 A 
ATOM     92  C   UNL     1       9.723   1.870  23.661  0.00  0.00    -0.018 A 
ATOM     93  C   UNL     1       8.545   2.551  23.362  0.00  0.00    +0.057 A 
BRANCH  88  95
ATOM     94  C   UNL     1       6.394   3.911  22.194  0.00  0.00    +0.277 C 
ATOM     95  O   UNL     1       7.425   4.645  22.845  0.00  0.00    -0.491 OA
ENDBRANCH  88  95
BRANCH  89  96
ATOM     96  O   UNL     1       9.648   6.002  23.074  0.00  0.00    -0.501 OA
ATOM     97  H   UNL     1       8.732   6.277  23.157  0.00  0.00    +0.292 HD
ENDBRANCH  89  96
BRANCH  90  98
ATOM     98  O   UNL     1      12.240   4.445  23.700  0.00  0.00    -0.491 OA
ATOM     99  C   UNL     1      12.934   5.112  22.667  0.00  0.00    +0.277 C 
ENDBRANCH  90  98
ENDBRANCH  86  92
ENDBRANCH  84  87
ENDBRANCH  83  84
ENDBRANCH  82  83
ENDBRANCH  70  82
ENDBRANCH  69  72
ENDBRANCH   1  69
TORSDOF 36
ENDMDL
MODEL 8
REMARK VINA RESULT:      -1.0      2.452      8.710
REMARK  Name = 
REMARK  40 active torsions:
REMARK  status: ('A' for Active; 'I' for Inactive)
REMARK    1  A    between atoms: C_1  and  O_2
REMARK    2  A    between atoms: O_2  and  C_3
REMARK    3  A    between atoms: C_5  and  C_12
REMARK    4  A    between atoms: C_7  and  O_10
REMARK    5  A    between atoms: C_8  and  O_9
REMARK    6  A    between atoms: O_10  and  C_11
REMARK    7  A    between atoms: C_13  and  C_14
REMARK    8  A    between atoms: C_14  and  O_16
REMARK    9  A    between atoms: O_16  and  C_17
REMARK   10  A    between atoms: C_17  and  C_18
REMARK   11  A    between atoms: C_20  and  O_94
REMARK   12  A    between atoms: C_22  and  O_93
REMARK   13  A    between atoms: C_23  and  O_92
REMARK   14  A    between atoms: C_24  and  O_27
REMARK   15  A    between atoms: O_27  and  C_28
REMARK   16  A    between atoms: C_29  and  O_77
REMARK   17  A    between atoms: C_32  and  C_34
REMARK   18  A    between atoms: C_35  and  O_47
REMARK   19  A    between atoms: C_39  and  O_46
REMARK   20  A    between atoms: C_41  and  O_45
REMARK   21  A    between atoms: O_47  and  C_48
REMARK   22  A    between atoms: C_50  and  O_61
REMARK   23  A    between atoms: C_51  and  O_60
REMARK   24  A    between atoms: C_53  and  O_59
REMARK   25  A    between atoms: C_55  and  C_57
REMARK   26  A    between atoms: C_57  and  O_58
REMARK   27  A    between atoms: O_61  and  C_62
REMARK   28  A    between atoms: C_62  and  C_64
REMARK   29  A    between atoms: C_65  and  C_66
REMARK   30  A    between atoms: C_68  and  O_75
REMARK   31  A    between atoms: C_69  and  O_74
REMARK   32  A    between atoms: C_70  and  O_72
REMARK   33  A    between atoms: O_72  and  C_73
REMARK   34  A    between atoms: O_75  and  C_76
REMARK   35  A    between atoms: O_77  and  C_78
REMARK   36  A    between atoms: C_80  and  O_91
REMARK   37  A    between atoms: C_81  and  O_90
REMARK   38  A    between atoms: C_82  and  O_89
REMARK   39  A    between atoms: C_84  and  C_87
REMARK   40  A    between atoms: C_87  and  O_88
REMARK                            x       y       z     vdW  Elec       q    Type
REMARK                         _______ _______ _______ _____ _____    ______ ____
ROOT
ATOM      1  C   UNL     1       3.006  -2.355  27.695  0.00  0.00    +0.166 A 
ATOM      2  C   UNL     1       3.890  -2.020  26.662  0.00  0.00    +0.061 A 
ATOM      3  C   UNL     1       4.067  -2.817  25.480  0.00  0.00    +0.025 A 
ATOM      4  C   UNL     1       3.075  -3.773  25.243  0.00  0.00    +0.015 A 
ATOM      5  C   UNL     1       2.046  -4.001  26.201  0.00  0.00    +0.050 A 
ATOM      6  C   UNL     1       2.087  -3.405  27.471  0.00  0.00    +0.166 A 
ENDROOT
BRANCH   3   7
ATOM      7  C   UNL     1       5.394  -2.664  24.702  0.00  0.00    +0.181 A 
ATOM      8  O   UNL     1       6.049  -3.902  24.688  0.00  0.00    -0.451 OA
ATOM      9  C   UNL     1       6.188  -4.537  23.486  0.00  0.00    +0.147 A 
ATOM     10  C   UNL     1       6.059  -3.893  22.280  0.00  0.00    +0.109 A 
ATOM     11  C   UNL     1       6.122  -4.639  21.101  0.00  0.00    +0.135 A 
ATOM     12  C   UNL     1       6.319  -6.023  21.128  0.00  0.00    +0.091 A 
ATOM     13  C   UNL     1       6.485  -6.641  22.360  0.00  0.00    +0.124 A 
ATOM     14  C   UNL     1       5.868  -2.433  22.330  0.00  0.00    +0.238 A 
ATOM     15  O   UNL     1       5.799  -1.824  21.267  0.00  0.00    -0.283 OA
ATOM     16  C   UNL     1       6.433  -5.900  23.530  0.00  0.00    +0.092 A 
ATOM     17  C   UNL     1       5.645  -1.789  23.684  0.00  0.00    +0.214 A 
BRANCH  11  18
ATOM     18  O   UNL     1       5.987  -4.087  19.856  0.00  0.00    -0.506 OA
ATOM     19  H   UNL     1       6.373  -4.708  19.205  0.00  0.00    +0.292 HD
ENDBRANCH  11  18
BRANCH  13  20
ATOM     20  O   UNL     1       6.685  -7.987  22.455  0.00  0.00    -0.507 OA
ATOM     21  H   UNL     1       5.944  -8.386  22.946  0.00  0.00    +0.292 HD
ENDBRANCH  13  20
BRANCH  17  22
ATOM     22  O   UNL     1       5.988  -0.443  23.900  0.00  0.00    -0.452 OA
BRANCH  22  23
ATOM     23  C   UNL     1       7.253   0.025  23.300  0.00  0.00    +0.352 C 
ATOM     24  O   UNL     1       8.243  -0.990  23.085  0.00  0.00    -0.330 OA
ATOM     25  C   UNL     1       8.825  -1.546  24.278  0.00  0.00    +0.179 C 
ATOM     26  C   UNL     1       9.428  -0.495  25.259  0.00  0.00    +0.178 C 
ATOM     27  C   UNL     1       8.442   0.680  25.459  0.00  0.00    +0.192 C 
ATOM     28  C   UNL     1       7.895   1.182  24.109  0.00  0.00    +0.276 C 
BRANCH  26  29
ATOM     29  O   UNL     1      10.692   0.047  24.877  0.00  0.00    -0.386 OA
ATOM     30  H   UNL     1      10.834  -0.185  23.941  0.00  0.00    +0.210 HD
ENDBRANCH  26  29
BRANCH  27  31
ATOM     31  O   UNL     1       7.400   0.251  26.342  0.00  0.00    -0.385 OA
ATOM     32  H   UNL     1       7.735  -0.518  26.836  0.00  0.00    +0.210 HD
ENDBRANCH  27  31
BRANCH  25  33
ATOM     33  C   UNL     1       9.726  -2.724  23.830  0.00  0.00    +0.190 C 
BRANCH  33  34
ATOM     34  O   UNL     1       9.822  -3.805  24.748  0.00  0.00    -0.392 OA
ATOM     35  H   UNL     1       9.062  -4.397  24.591  0.00  0.00    +0.210 HD
ENDBRANCH  33  34
ENDBRANCH  25  33
BRANCH  28  36
ATOM     36  O   UNL     1       6.950   2.272  24.302  0.00  0.00    -0.449 OA
BRANCH  36  37
ATOM     37  C   UNL     1       5.677   1.846  24.553  0.00  0.00    +0.332 C 
ATOM     38  O   UNL     1       5.382   0.785  25.080  0.00  0.00    -0.246 OA
BRANCH  37  39
ATOM     39  C   UNL     1       4.686   2.861  24.134  0.00  0.00    +0.092 C 
ATOM     40  C   UNL     1       4.276   2.868  22.853  0.00  0.00    +0.015 C 
BRANCH  40  41
ATOM     41  C   UNL     1       3.266   3.788  22.323  0.00  0.00    -0.018 A 
ATOM     42  C   UNL     1       2.601   3.487  21.134  0.00  0.00    +0.057 A 
ATOM     43  C   UNL     1       1.661   4.381  20.609  0.00  0.00    +0.166 A 
ATOM     44  C   UNL     1       1.382   5.593  21.277  0.00  0.00    +0.201 A 
ATOM     45  C   UNL     1       2.048   5.916  22.464  0.00  0.00    +0.166 A 
ATOM     46  C   UNL     1       2.991   4.997  22.968  0.00  0.00    +0.057 A 
BRANCH  43  47
ATOM     47  O   UNL     1       0.963   4.165  19.441  0.00  0.00    -0.491 OA
ATOM     48  C   UNL     1       1.702   4.043  18.236  0.00  0.00    +0.277 C 
ENDBRANCH  43  47
BRANCH  44  49
ATOM     49  O   UNL     1       0.444   6.379  20.648  0.00  0.00    -0.501 OA
ATOM     50  H   UNL     1       0.533   7.303  20.896  0.00  0.00    +0.292 HD
ENDBRANCH  44  49
BRANCH  45  51
ATOM     51  O   UNL     1       1.967   7.014  23.274  0.00  0.00    -0.491 OA
ATOM     52  C   UNL     1       1.256   7.002  24.494  0.00  0.00    +0.277 C 
ENDBRANCH  45  51
ENDBRANCH  40  41
ENDBRANCH  37  39
ENDBRANCH  36  37
ENDBRANCH  28  36
ENDBRANCH  22  23
ENDBRANCH  17  22
ENDBRANCH   3   7
BRANCH   6  53
ATOM     53  O   UNL     1       1.331  -3.785  28.558  0.00  0.00    -0.457 OA
BRANCH  53  54
ATOM     54  C   UNL     1       1.093  -5.161  28.908  0.00  0.00    +0.339 C 
ATOM     55  O   UNL     1       1.740  -5.460  30.181  0.00  0.00    -0.331 OA
ATOM     56  C   UNL     1       3.183  -5.650  30.192  0.00  0.00    +0.179 C 
ATOM     57  C   UNL     1       3.765  -6.437  29.004  0.00  0.00    +0.177 C 
ATOM     58  C   UNL     1       3.082  -6.038  27.704  0.00  0.00    +0.180 C 
ATOM     59  C   UNL     1       1.576  -6.222  27.891  0.00  0.00    +0.214 C 
BRANCH  57  60
ATOM     60  O   UNL     1       3.552  -7.848  29.203  0.00  0.00    -0.386 OA
ATOM     61  H   UNL     1       2.915  -7.918  29.942  0.00  0.00    +0.210 HD
ENDBRANCH  57  60
BRANCH  58  62
ATOM     62  O   UNL     1       3.565  -6.858  26.630  0.00  0.00    -0.386 OA
ATOM     63  H   UNL     1       3.913  -6.261  25.940  0.00  0.00    +0.210 HD
ENDBRANCH  58  62
BRANCH  59  64
ATOM     64  O   UNL     1       0.925  -6.266  26.620  0.00  0.00    -0.383 OA
ATOM     65  H   UNL     1       1.295  -5.548  26.074  0.00  0.00    +0.210 HD
ENDBRANCH  59  64
BRANCH  56  66
ATOM     66  C   UNL     1       3.901  -4.303  30.357  0.00  0.00    +0.190 C 
BRANCH  66  67
ATOM     67  O   UNL     1       5.306  -4.459  30.167  0.00  0.00    -0.392 OA
ATOM     68  H   UNL     1       5.525  -4.016  29.326  0.00  0.00    +0.210 HD
ENDBRANCH  66  67
ENDBRANCH  56  66
ENDBRANCH  53  54
ENDBRANCH   6  53
BRANCH   1  69
ATOM     69  O   UNL     1       3.058  -1.865  28.972  0.00  0.00    -0.457 OA
BRANCH  69  72
ATOM     70  C   UNL     1       1.775   1.613  29.447  0.00  0.00    +0.191 C 
ATOM     71  O   UNL     1       2.017   0.383  28.713  0.00  0.00    -0.330 OA
ATOM     72  C   UNL     1       2.824  -0.530  29.484  0.00  0.00    +0.339 C 
ATOM     73  C   UNL     1       4.219   0.151  29.652  0.00  0.00    +0.214 C 
ATOM     74  C   UNL     1       4.086   1.492  30.395  0.00  0.00    +0.180 C 
ATOM     75  C   UNL     1       3.080   2.404  29.685  0.00  0.00    +0.178 C 
BRANCH  73  76
ATOM     76  O   UNL     1       4.804   0.432  28.354  0.00  0.00    -0.383 OA
ATOM     77  H   UNL     1       5.145  -0.417  28.010  0.00  0.00    +0.210 HD
ENDBRANCH  73  76
BRANCH  74  78
ATOM     78  O   UNL     1       5.363   2.144  30.485  0.00  0.00    -0.386 OA
ATOM     79  H   UNL     1       5.206   3.029  30.862  0.00  0.00    +0.210 HD
ENDBRANCH  74  78
BRANCH  75  80
ATOM     80  O   UNL     1       2.852   3.570  30.483  0.00  0.00    -0.386 OA
ATOM     81  H   UNL     1       2.202   4.126  30.016  0.00  0.00    +0.210 HD
ENDBRANCH  75  80
BRANCH  70  82
ATOM     82  C   UNL     1       0.780   2.487  28.676  0.00  0.00    +0.266 C 
BRANCH  82  83
ATOM     83  O   UNL     1       1.295   3.782  28.357  0.00  0.00    -0.459 OA
BRANCH  83  84
ATOM     84  C   UNL     1       1.621   3.940  27.054  0.00  0.00    +0.332 C 
ATOM     85  O   UNL     1       1.051   3.448  26.107  0.00  0.00    -0.246 OA
BRANCH  84  87
ATOM     86  C   UNL     1       3.976   4.326  26.778  0.00  0.00    +0.015 C 
ATOM     87  C   UNL     1       2.773   4.849  26.991  0.00  0.00    +0.092 C 
BRANCH  86  92
ATOM     88  C   UNL     1       7.212   5.823  27.890  0.00  0.00    +0.166 A 
ATOM     89  C   UNL     1       7.675   6.464  26.720  0.00  0.00    +0.201 A 
ATOM     90  C   UNL     1       6.913   6.417  25.544  0.00  0.00    +0.166 A 
ATOM     91  C   UNL     1       5.696   5.713  25.567  0.00  0.00    +0.057 A 
ATOM     92  C   UNL     1       5.223   5.091  26.726  0.00  0.00    -0.018 A 
ATOM     93  C   UNL     1       5.989   5.154  27.887  0.00  0.00    +0.057 A 
BRANCH  88  95
ATOM     94  C   UNL     1       7.287   6.064  30.250  0.00  0.00    +0.277 C 
ATOM     95  O   UNL     1       7.991   5.938  29.019  0.00  0.00    -0.491 OA
ENDBRANCH  88  95
BRANCH  89  96
ATOM     96  O   UNL     1       8.896   7.069  26.842  0.00  0.00    -0.501 OA
ATOM     97  H   UNL     1       9.595   6.491  26.526  0.00  0.00    +0.292 HD
ENDBRANCH  89  96
BRANCH  90  98
ATOM     98  O   UNL     1       7.144   6.938  24.303  0.00  0.00    -0.491 OA
ATOM     99  C   UNL     1       6.742   6.288  23.117  0.00  0.00    +0.277 C 
ENDBRANCH  90  98
ENDBRANCH  86  92
ENDBRANCH  84  87
ENDBRANCH  83  84
ENDBRANCH  82  83
ENDBRANCH  70  82
ENDBRANCH  69  72
ENDBRANCH   1  69
TORSDOF 36
ENDMDL
MODEL 9
REMARK VINA RESULT:      -1.0      2.094      7.474
REMARK  Name = 
REMARK  40 active torsions:
REMARK  status: ('A' for Active; 'I' for Inactive)
REMARK    1  A    between atoms: C_1  and  O_2
REMARK    2  A    between atoms: O_2  and  C_3
REMARK    3  A    between atoms: C_5  and  C_12
REMARK    4  A    between atoms: C_7  and  O_10
REMARK    5  A    between atoms: C_8  and  O_9
REMARK    6  A    between atoms: O_10  and  C_11
REMARK    7  A    between atoms: C_13  and  C_14
REMARK    8  A    between atoms: C_14  and  O_16
REMARK    9  A    between atoms: O_16  and  C_17
REMARK   10  A    between atoms: C_17  and  C_18
REMARK   11  A    between atoms: C_20  and  O_94
REMARK   12  A    between atoms: C_22  and  O_93
REMARK   13  A    between atoms: C_23  and  O_92
REMARK   14  A    between atoms: C_24  and  O_27
REMARK   15  A    between atoms: O_27  and  C_28
REMARK   16  A    between atoms: C_29  and  O_77
REMARK   17  A    between atoms: C_32  and  C_34
REMARK   18  A    between atoms: C_35  and  O_47
REMARK   19  A    between atoms: C_39  and  O_46
REMARK   20  A    between atoms: C_41  and  O_45
REMARK   21  A    between atoms: O_47  and  C_48
REMARK   22  A    between atoms: C_50  and  O_61
REMARK   23  A    between atoms: C_51  and  O_60
REMARK   24  A    between atoms: C_53  and  O_59
REMARK   25  A    between atoms: C_55  and  C_57
REMARK   26  A    between atoms: C_57  and  O_58
REMARK   27  A    between atoms: O_61  and  C_62
REMARK   28  A    between atoms: C_62  and  C_64
REMARK   29  A    between atoms: C_65  and  C_66
REMARK   30  A    between atoms: C_68  and  O_75
REMARK   31  A    between atoms: C_69  and  O_74
REMARK   32  A    between atoms: C_70  and  O_72
REMARK   33  A    between atoms: O_72  and  C_73
REMARK   34  A    between atoms: O_75  and  C_76
REMARK   35  A    between atoms: O_77  and  C_78
REMARK   36  A    between atoms: C_80  and  O_91
REMARK   37  A    between atoms: C_81  and  O_90
REMARK   38  A    between atoms: C_82  and  O_89
REMARK   39  A    between atoms: C_84  and  C_87
REMARK   40  A    between atoms: C_87  and  O_88
REMARK                            x       y       z     vdW  Elec       q    Type
REMARK                         _______ _______ _______ _____ _____    ______ ____
ROOT
ATOM      1  C   UNL     1       5.266   0.200  26.761  0.00  0.00    +0.166 A 
ATOM      2  C   UNL     1       5.563   1.566  26.677  0.00  0.00    +0.061 A 
ATOM      3  C   UNL     1       5.309   2.499  27.739  0.00  0.00    +0.025 A 
ATOM      4  C   UNL     1       5.062   1.933  28.993  0.00  0.00    +0.015 A 
ATOM      5  C   UNL     1       4.946   0.521  29.140  0.00  0.00    +0.050 A 
ATOM      6  C   UNL     1       4.907  -0.327  28.022  0.00  0.00    +0.166 A 
ENDROOT
BRANCH   3   7
ATOM      7  C   UNL     1       5.165   3.991  27.365  0.00  0.00    +0.181 A 
ATOM      8  O   UNL     1       5.613   4.768  28.442  0.00  0.00    -0.451 OA
ATOM      9  C   UNL     1       6.743   5.516  28.262  0.00  0.00    +0.147 A 
ATOM     10  C   UNL     1       7.241   5.834  27.022  0.00  0.00    +0.109 A 
ATOM     11  C   UNL     1       8.453   6.522  26.933  0.00  0.00    +0.135 A 
ATOM     12  C   UNL     1       9.160   6.897  28.080  0.00  0.00    +0.091 A 
ATOM     13  C   UNL     1       8.613   6.597  29.320  0.00  0.00    +0.124 A 
ATOM     14  C   UNL     1       6.434   5.418  25.862  0.00  0.00    +0.238 A 
ATOM     15  O   UNL     1       6.830   5.732  24.743  0.00  0.00    -0.283 OA
ATOM     16  C   UNL     1       7.405   5.923  29.409  0.00  0.00    +0.092 A 
ATOM     17  C   UNL     1       5.234   4.527  26.111  0.00  0.00    +0.214 A 
BRANCH  11  18
ATOM     18  O   UNL     1       9.035   6.865  25.742  0.00  0.00    -0.506 OA
ATOM     19  H   UNL     1       9.964   6.553  25.758  0.00  0.00    +0.292 HD
ENDBRANCH  11  18
BRANCH  13  20
ATOM     20  O   UNL     1       9.251   6.939  30.476  0.00  0.00    -0.507 OA
ATOM     21  H   UNL     1       9.501   7.879  30.436  0.00  0.00    +0.292 HD
ENDBRANCH  13  20
BRANCH  17  22
ATOM     22  O   UNL     1       4.146   4.530  25.220  0.00  0.00    -0.452 OA
BRANCH  22  23
ATOM     23  C   UNL     1       3.756   5.834  24.649  0.00  0.00    +0.352 C 
ATOM     24  O   UNL     1       2.696   6.513  25.337  0.00  0.00    -0.330 OA
ATOM     25  C   UNL     1       1.400   5.896  25.233  0.00  0.00    +0.179 C 
ATOM     26  C   UNL     1       0.923   5.626  23.773  0.00  0.00    +0.178 C 
ATOM     27  C   UNL     1       2.060   4.979  22.949  0.00  0.00    +0.192 C 
ATOM     28  C   UNL     1       3.389   5.733  23.146  0.00  0.00    +0.276 C 
BRANCH  26  29
ATOM     29  O   UNL     1       0.453   6.770  23.060  0.00  0.00    -0.386 OA
ATOM     30  H   UNL     1      -0.505   6.649  22.923  0.00  0.00    +0.210 HD
ENDBRANCH  26  29
BRANCH  27  31
ATOM     31  O   UNL     1       2.158   3.600  23.317  0.00  0.00    -0.385 OA
ATOM     32  H   UNL     1       1.408   3.401  23.906  0.00  0.00    +0.210 HD
ENDBRANCH  27  31
BRANCH  25  33
ATOM     33  C   UNL     1       0.453   6.681  26.175  0.00  0.00    +0.190 C 
BRANCH  33  34
ATOM     34  O   UNL     1       0.862   6.752  27.535  0.00  0.00    -0.392 OA
ATOM     35  H   UNL     1       0.872   5.843  27.890  0.00  0.00    +0.210 HD
ENDBRANCH  33  34
ENDBRANCH  25  33
BRANCH  28  36
ATOM     36  O   UNL     1       4.462   5.108  22.387  0.00  0.00    -0.449 OA
BRANCH  36  37
ATOM     37  C   UNL     1       5.329   6.007  21.836  0.00  0.00    +0.332 C 
ATOM     38  O   UNL     1       5.023   7.108  21.407  0.00  0.00    -0.246 OA
BRANCH  37  39
ATOM     39  C   UNL     1       6.714   5.486  21.856  0.00  0.00    +0.092 C 
ATOM     40  C   UNL     1       7.475   5.726  22.939  0.00  0.00    +0.015 C 
BRANCH  40  41
ATOM     41  C   UNL     1       8.842   5.225  23.104  0.00  0.00    -0.018 A 
ATOM     42  C   UNL     1       9.095   3.854  23.052  0.00  0.00    +0.057 A 
ATOM     43  C   UNL     1      10.395   3.372  23.245  0.00  0.00    +0.166 A 
ATOM     44  C   UNL     1      11.456   4.269  23.494  0.00  0.00    +0.201 A 
ATOM     45  C   UNL     1      11.218   5.645  23.561  0.00  0.00    +0.166 A 
ATOM     46  C   UNL     1       9.899   6.102  23.365  0.00  0.00    +0.057 A 
BRANCH  43  47
ATOM     47  O   UNL     1      10.732   2.036  23.214  0.00  0.00    -0.491 OA
ATOM     48  C   UNL     1      10.471   1.256  24.370  0.00  0.00    +0.277 C 
ENDBRANCH  43  47
BRANCH  44  49
ATOM     49  O   UNL     1      12.678   3.659  23.671  0.00  0.00    -0.501 OA
ATOM     50  H   UNL     1      12.990   3.749  24.574  0.00  0.00    +0.292 HD
ENDBRANCH  44  49
BRANCH  45  51
ATOM     51  O   UNL     1      12.059   6.696  23.801  0.00  0.00    -0.491 OA
ATOM     52  C   UNL     1      12.728   6.861  25.034  0.00  0.00    +0.277 C 
ENDBRANCH  45  51
ENDBRANCH  40  41
ENDBRANCH  37  39
ENDBRANCH  36  37
ENDBRANCH  28  36
ENDBRANCH  22  23
ENDBRANCH  17  22
ENDBRANCH   3   7
BRANCH   6  53
ATOM     53  O   UNL     1       4.497  -1.643  28.030  0.00  0.00    -0.457 OA
BRANCH  53  54
ATOM     54  C   UNL     1       3.293  -2.087  28.682  0.00  0.00    +0.339 C 
ATOM     55  O   UNL     1       3.620  -3.125  29.655  0.00  0.00    -0.331 OA
ATOM     56  C   UNL     1       3.913  -4.463  29.162  0.00  0.00    +0.179 C 
ATOM     57  C   UNL     1       3.029  -4.959  28.004  0.00  0.00    +0.177 C 
ATOM     58  C   UNL     1       2.773  -3.843  27.002  0.00  0.00    +0.180 C 
ATOM     59  C   UNL     1       2.184  -2.656  27.765  0.00  0.00    +0.214 C 
BRANCH  57  60
ATOM     60  O   UNL     1       1.756  -5.398  28.516  0.00  0.00    -0.386 OA
ATOM     61  H   UNL     1       1.446  -6.090  27.898  0.00  0.00    +0.210 HD
ENDBRANCH  57  60
BRANCH  58  62
ATOM     62  O   UNL     1       1.862  -4.298  25.990  0.00  0.00    -0.386 OA
ATOM     63  H   UNL     1       1.102  -4.707  26.445  0.00  0.00    +0.210 HD
ENDBRANCH  58  62
BRANCH  59  64
ATOM     64  O   UNL     1       1.550  -1.754  26.857  0.00  0.00    -0.383 OA
ATOM     65  H   UNL     1       2.152  -0.999  26.722  0.00  0.00    +0.210 HD
ENDBRANCH  59  64
BRANCH  56  66
ATOM     66  C   UNL     1       5.401  -4.590  28.805  0.00  0.00    +0.190 C 
BRANCH  66  67
ATOM     67  O   UNL     1       6.024  -5.587  29.614  0.00  0.00    -0.392 OA
ATOM     68  H   UNL     1       6.955  -5.638  29.327  0.00  0.00    +0.210 HD
ENDBRANCH  66  67
ENDBRANCH  56  66
ENDBRANCH  53  54
ENDBRANCH   6  53
BRANCH   1  69
ATOM     69  O   UNL     1       5.134  -0.649  25.696  0.00  0.00    -0.457 OA
BRANCH  69  72
ATOM     70  C   UNL     1       7.984  -1.828  23.585  0.00  0.00    +0.191 C 
ATOM     71  O   UNL     1       7.305  -1.512  24.829  0.00  0.00    -0.330 OA
ATOM     72  C   UNL     1       6.018  -0.911  24.578  0.00  0.00    +0.339 C 
ATOM     73  C   UNL     1       6.301   0.459  23.883  0.00  0.00    +0.214 C 
ATOM     74  C   UNL     1       7.053   0.253  22.557  0.00  0.00    +0.180 C 
ATOM     75  C   UNL     1       8.336  -0.555  22.785  0.00  0.00    +0.178 C 
BRANCH  73  76
ATOM     76  O   UNL     1       7.135   1.292  24.729  0.00  0.00    -0.383 OA
ATOM     77  H   UNL     1       7.800   0.702  25.136  0.00  0.00    +0.210 HD
ENDBRANCH  73  76
BRANCH  74  78
ATOM     78  O   UNL     1       7.370   1.521  21.958  0.00  0.00    -0.386 OA
ATOM     79  H   UNL     1       7.097   1.470  21.023  0.00  0.00    +0.210 HD
ENDBRANCH  74  78
BRANCH  75  80
ATOM     80  O   UNL     1       8.926  -0.872  21.520  0.00  0.00    -0.386 OA
ATOM     81  H   UNL     1       8.831  -1.833  21.382  0.00  0.00    +0.210 HD
ENDBRANCH  75  80
BRANCH  70  82
ATOM     82  C   UNL     1       9.265  -2.615  23.883  0.00  0.00    +0.266 C 
BRANCH  82  83
ATOM     83  O   UNL     1       9.680  -2.523  25.248  0.00  0.00    -0.459 OA
BRANCH  83  84
ATOM     84  C   UNL     1       8.976  -3.312  26.093  0.00  0.00    +0.332 C 
ATOM     85  O   UNL     1       9.040  -3.304  27.300  0.00  0.00    -0.246 OA
BRANCH  84  87
ATOM     86  C   UNL     1       6.867  -4.405  25.735  0.00  0.00    +0.015 C 
ATOM     87  C   UNL     1       8.091  -4.155  25.280  0.00  0.00    +0.092 C 
BRANCH  86  92
ATOM     88  C   UNL     1       4.863  -5.927  22.975  0.00  0.00    +0.166 A 
ATOM     89  C   UNL     1       4.080  -6.886  23.655  0.00  0.00    +0.201 A 
ATOM     90  C   UNL     1       4.198  -7.036  25.044  0.00  0.00    +0.166 A 
ATOM     91  C   UNL     1       5.116  -6.216  25.725  0.00  0.00    +0.057 A 
ATOM     92  C   UNL     1       5.882  -5.253  25.063  0.00  0.00    -0.018 A 
ATOM     93  C   UNL     1       5.746  -5.114  23.683  0.00  0.00    +0.057 A 
BRANCH  88  95
ATOM     94  C   UNL     1       5.809  -6.069  20.803  0.00  0.00    +0.277 C 
ATOM     95  O   UNL     1       4.671  -5.808  21.618  0.00  0.00    -0.491 OA
ENDBRANCH  88  95
BRANCH  89  96
ATOM     96  O   UNL     1       3.267  -7.637  22.850  0.00  0.00    -0.501 OA
ATOM     97  H   UNL     1       2.752  -8.259  23.371  0.00  0.00    +0.292 HD
ENDBRANCH  89  96
BRANCH  90  98
ATOM     98  O   UNL     1       3.572  -7.882  25.913  0.00  0.00    -0.491 OA
ATOM     99  C   UNL     1       2.220  -8.258  25.770  0.00  0.00    +0.277 C 
ENDBRANCH  90  98
ENDBRANCH  86  92
ENDBRANCH  84  87
ENDBRANCH  83  84
ENDBRANCH  82  83
ENDBRANCH  70  82
ENDBRANCH  69  72
ENDBRANCH   1  69
TORSDOF 36
ENDMDL
