MODEL 1
REMARK VINA RESULT:      -7.0      0.000      0.000
REMARK  Name = 
REMARK  24 active torsions:
REMARK  status: ('A' for Active; 'I' for Inactive)
REMARK    1  A    between atoms: C_3  and  O_70
REMARK    2  A    between atoms: C_4  and  O_69
REMARK    3  A    between atoms: C_6  and  C_7
REMARK    4  A    between atoms: C_8  and  O_36
REMARK    5  A    between atoms: C_12  and  O_35
REMARK    6  A    between atoms: C_14  and  O_18
REMARK    7  A    between atoms: O_18  and  C_19
REMARK    8  A    between atoms: C_21  and  O_34
REMARK    9  A    between atoms: C_23  and  O_33
REMARK   10  A    between atoms: C_25  and  O_32
REMARK   11  A    between atoms: C_27  and  C_30
REMARK   12  A    between atoms: C_30  and  O_31
REMARK   13  A    between atoms: O_36  and  C_37
REMARK   14  A    between atoms: C_39  and  O_52
REMARK   15  A    between atoms: C_41  and  O_51
REMARK   16  A    between atoms: C_43  and  O_50
REMARK   17  A    between atoms: C_45  and  C_48
REMARK   18  A    between atoms: C_48  and  O_49
REMARK   19  A    between atoms: O_52  and  C_53
REMARK   20  A    between atoms: C_55  and  O_68
REMARK   21  A    between atoms: C_57  and  O_67
REMARK   22  A    between atoms: C_59  and  O_66
REMARK   23  A    between atoms: C_61  and  C_64
REMARK   24  A    between atoms: C_64  and  O_65
REMARK                            x       y       z     vdW  Elec       q    Type
REMARK                         _______ _______ _______ _____ _____    ______ ____
ROOT
ATOM      1  C   UNL     1       3.513  -2.144  26.381  0.00  0.00    +0.181 A 
ATOM      2  O   UNL     1       3.809  -0.900  25.771  0.00  0.00    -0.451 OA
ATOM      3  C   UNL     1       4.633  -0.010  26.437  0.00  0.00    +0.147 A 
ATOM      4  C   UNL     1       4.836  -0.097  27.804  0.00  0.00    +0.109 A 
ATOM      5  C   UNL     1       5.663   0.817  28.468  0.00  0.00    +0.135 A 
ATOM      6  C   UNL     1       6.341   1.800  27.756  0.00  0.00    +0.092 A 
ATOM      7  C   UNL     1       6.265   1.824  26.361  0.00  0.00    +0.131 A 
ATOM      8  C   UNL     1       4.238  -1.216  28.519  0.00  0.00    +0.238 A 
ATOM      9  O   UNL     1       4.245  -1.189  29.744  0.00  0.00    -0.283 OA
ATOM     10  C   UNL     1       5.334   0.975  25.716  0.00  0.00    +0.093 A 
ATOM     11  C   UNL     1       3.759  -2.365  27.702  0.00  0.00    +0.214 A 
ENDROOT
BRANCH   1  13
ATOM     12  C   UNL     1       1.610  -3.610  25.383  0.00  0.00    +0.015 A 
ATOM     13  C   UNL     1       2.959  -3.180  25.406  0.00  0.00    +0.025 A 
ATOM     14  C   UNL     1       3.772  -3.790  24.440  0.00  0.00    +0.060 A 
ATOM     15  C   UNL     1       3.277  -4.782  23.566  0.00  0.00    +0.159 A 
ATOM     16  C   UNL     1       1.961  -5.216  23.646  0.00  0.00    +0.158 A 
ATOM     17  C   UNL     1       1.109  -4.618  24.542  0.00  0.00    +0.050 A 
BRANCH  16  18
ATOM     18  O   UNL     1       1.585  -6.269  22.849  0.00  0.00    -0.503 OA
ATOM     19  H   UNL     1       0.913  -5.939  22.230  0.00  0.00    +0.292 HD
ENDBRANCH  16  18
BRANCH  15  20
ATOM     20  O   UNL     1       4.106  -5.345  22.627  0.00  0.00    -0.503 OA
ATOM     21  H   UNL     1       4.959  -5.468  23.096  0.00  0.00    +0.292 HD
ENDBRANCH  15  20
ENDBRANCH   1  13
BRANCH   5  22
ATOM     22  O   UNL     1       5.935   0.748  29.808  0.00  0.00    -0.506 OA
ATOM     23  H   UNL     1       5.275   1.296  30.291  0.00  0.00    +0.292 HD
ENDBRANCH   5  22
BRANCH  11  24
ATOM     24  O   UNL     1       3.721  -3.622  28.259  0.00  0.00    -0.453 OA
BRANCH  24  25
ATOM     25  C   UNL     1       4.198  -4.800  27.573  0.00  0.00    +0.340 C 
ATOM     26  O   UNL     1       3.415  -5.945  27.903  0.00  0.00    -0.331 OA
ATOM     27  C   UNL     1       3.667  -6.666  29.108  0.00  0.00    +0.179 C 
ATOM     28  C   UNL     1       5.163  -6.976  29.271  0.00  0.00    +0.177 C 
ATOM     29  C   UNL     1       6.062  -5.749  29.122  0.00  0.00    +0.180 C 
ATOM     30  C   UNL     1       5.720  -4.874  27.908  0.00  0.00    +0.221 C 
BRANCH  29  31
ATOM     31  O   UNL     1       6.007  -4.984  30.334  0.00  0.00    -0.386 OA
ATOM     32  H   UNL     1       5.486  -5.466  31.016  0.00  0.00    +0.210 HD
ENDBRANCH  29  31
BRANCH  28  33
ATOM     33  O   UNL     1       5.524  -7.914  28.245  0.00  0.00    -0.386 OA
ATOM     34  H   UNL     1       6.130  -7.460  27.633  0.00  0.00    +0.210 HD
ENDBRANCH  28  33
BRANCH  27  35
ATOM     35  C   UNL     1       2.949  -6.069  30.335  0.00  0.00    +0.190 C 
BRANCH  35  36
ATOM     36  O   UNL     1       1.836  -5.256  29.984  0.00  0.00    -0.392 OA
ATOM     37  H   UNL     1       2.035  -4.361  30.326  0.00  0.00    +0.210 HD
ENDBRANCH  35  36
ENDBRANCH  27  35
BRANCH  30  38
ATOM     38  O   UNL     1       6.687  -4.707  26.851  0.00  0.00    -0.337 OA
BRANCH  38  39
ATOM     39  C   UNL     1       8.079  -4.954  26.901  0.00  0.00    +0.282 C 
ATOM     40  O   UNL     1       8.774  -3.671  26.928  0.00  0.00    -0.341 OA
ATOM     41  C   UNL     1       8.606  -2.806  25.771  0.00  0.00    +0.178 C 
ATOM     42  C   UNL     1       8.800  -3.508  24.403  0.00  0.00    +0.177 C 
ATOM     43  C   UNL     1       8.251  -4.944  24.391  0.00  0.00    +0.179 C 
ATOM     44  C   UNL     1       8.660  -5.689  25.677  0.00  0.00    +0.201 C 
BRANCH  44  45
ATOM     45  O   UNL     1      10.103  -5.732  25.749  0.00  0.00    -0.384 OA
ATOM     46  H   UNL     1      10.413  -6.251  24.973  0.00  0.00    +0.210 HD
ENDBRANCH  44  45
BRANCH  43  47
ATOM     47  O   UNL     1       6.836  -4.918  24.202  0.00  0.00    -0.386 OA
ATOM     48  H   UNL     1       6.435  -4.586  25.028  0.00  0.00    +0.210 HD
ENDBRANCH  43  47
BRANCH  42  49
ATOM     49  O   UNL     1      10.206  -3.493  24.092  0.00  0.00    -0.386 OA
ATOM     50  H   UNL     1      10.323  -3.254  23.151  0.00  0.00    +0.210 HD
ENDBRANCH  42  49
BRANCH  41  51
ATOM     51  C   UNL     1       7.301  -1.988  25.838  0.00  0.00    +0.190 C 
BRANCH  51  52
ATOM     52  O   UNL     1       6.683  -1.880  24.554  0.00  0.00    -0.392 OA
ATOM     53  H   UNL     1       5.771  -2.210  24.631  0.00  0.00    +0.210 HD
ENDBRANCH  51  52
ENDBRANCH  41  51
ENDBRANCH  38  39
ENDBRANCH  30  38
ENDBRANCH  24  25
ENDBRANCH  11  24
BRANCH   7  54
ATOM     54  O   UNL     1       7.121   2.534  25.543  0.00  0.00    -0.461 OA
BRANCH  54  55
ATOM     55  C   UNL     1       7.064   2.315  24.115  0.00  0.00    +0.339 C 
ATOM     56  O   UNL     1       7.549   1.005  23.763  0.00  0.00    -0.331 OA
ATOM     57  C   UNL     1       8.955   0.828  23.525  0.00  0.00    +0.179 C 
ATOM     58  C   UNL     1       9.516   1.852  22.524  0.00  0.00    +0.177 C 
ATOM     59  C   UNL     1       9.212   3.274  22.986  0.00  0.00    +0.180 C 
ATOM     60  C   UNL     1       7.711   3.445  23.253  0.00  0.00    +0.214 C 
BRANCH  60  61
ATOM     61  O   UNL     1       7.032   3.512  21.981  0.00  0.00    -0.383 OA
ATOM     62  H   UNL     1       6.945   2.587  21.661  0.00  0.00    +0.210 HD
ENDBRANCH  60  61
BRANCH  59  63
ATOM     63  O   UNL     1      10.043   3.622  24.090  0.00  0.00    -0.386 OA
ATOM     64  H   UNL     1       9.894   4.551  24.338  0.00  0.00    +0.210 HD
ENDBRANCH  59  63
BRANCH  58  65
ATOM     65  O   UNL     1       8.908   1.636  21.239  0.00  0.00    -0.386 OA
ATOM     66  H   UNL     1       9.575   1.855  20.561  0.00  0.00    +0.210 HD
ENDBRANCH  58  65
BRANCH  57  67
ATOM     67  C   UNL     1       9.777   0.751  24.826  0.00  0.00    +0.190 C 
BRANCH  67  68
ATOM     68  O   UNL     1      11.180   0.804  24.584  0.00  0.00    -0.392 OA
ATOM     69  H   UNL     1      11.323   0.930  23.631  0.00  0.00    +0.210 HD
ENDBRANCH  67  68
ENDBRANCH  57  67
ENDBRANCH  54  55
ENDBRANCH   7  54
TORSDOF 24
ENDMDL
MODEL 2
REMARK VINA RESULT:      -6.9      2.860      4.989
REMARK  Name = 
REMARK  24 active torsions:
REMARK  status: ('A' for Active; 'I' for Inactive)
REMARK    1  A    between atoms: C_3  and  O_70
REMARK    2  A    between atoms: C_4  and  O_69
REMARK    3  A    between atoms: C_6  and  C_7
REMARK    4  A    between atoms: C_8  and  O_36
REMARK    5  A    between atoms: C_12  and  O_35
REMARK    6  A    between atoms: C_14  and  O_18
REMARK    7  A    between atoms: O_18  and  C_19
REMARK    8  A    between atoms: C_21  and  O_34
REMARK    9  A    between atoms: C_23  and  O_33
REMARK   10  A    between atoms: C_25  and  O_32
REMARK   11  A    between atoms: C_27  and  C_30
REMARK   12  A    between atoms: C_30  and  O_31
REMARK   13  A    between atoms: O_36  and  C_37
REMARK   14  A    between atoms: C_39  and  O_52
REMARK   15  A    between atoms: C_41  and  O_51
REMARK   16  A    between atoms: C_43  and  O_50
REMARK   17  A    between atoms: C_45  and  C_48
REMARK   18  A    between atoms: C_48  and  O_49
REMARK   19  A    between atoms: O_52  and  C_53
REMARK   20  A    between atoms: C_55  and  O_68
REMARK   21  A    between atoms: C_57  and  O_67
REMARK   22  A    between atoms: C_59  and  O_66
REMARK   23  A    between atoms: C_61  and  C_64
REMARK   24  A    between atoms: C_64  and  O_65
REMARK                            x       y       z     vdW  Elec       q    Type
REMARK                         _______ _______ _______ _____ _____    ______ ____
ROOT
ATOM      1  C   UNL     1       4.442  -1.383  27.048  0.00  0.00    +0.181 A 
ATOM      2  O   UNL     1       3.641  -0.216  27.077  0.00  0.00    -0.451 OA
ATOM      3  C   UNL     1       4.239   1.009  26.841  0.00  0.00    +0.147 A 
ATOM      4  C   UNL     1       5.604   1.188  26.990  0.00  0.00    +0.109 A 
ATOM      5  C   UNL     1       6.195   2.436  26.760  0.00  0.00    +0.135 A 
ATOM      6  C   UNL     1       5.428   3.510  26.325  0.00  0.00    +0.092 A 
ATOM      7  C   UNL     1       4.075   3.323  26.033  0.00  0.00    +0.131 A 
ATOM      8  C   UNL     1       6.420   0.024  27.304  0.00  0.00    +0.238 A 
ATOM      9  O   UNL     1       7.587   0.207  27.631  0.00  0.00    -0.283 OA
ATOM     10  C   UNL     1       3.467   2.094  26.384  0.00  0.00    +0.093 A 
ATOM     11  C   UNL     1       5.801  -1.315  27.097  0.00  0.00    +0.214 A 
ENDROOT
BRANCH   1  13
ATOM     12  C   UNL     1       3.377  -3.570  27.971  0.00  0.00    +0.015 A 
ATOM     13  C   UNL     1       3.633  -2.670  26.908  0.00  0.00    +0.025 A 
ATOM     14  C   UNL     1       3.071  -3.056  25.682  0.00  0.00    +0.060 A 
ATOM     15  C   UNL     1       2.361  -4.267  25.535  0.00  0.00    +0.159 A 
ATOM     16  C   UNL     1       2.211  -5.145  26.599  0.00  0.00    +0.158 A 
ATOM     17  C   UNL     1       2.700  -4.793  27.835  0.00  0.00    +0.050 A 
BRANCH  16  18
ATOM     18  O   UNL     1       1.618  -6.357  26.351  0.00  0.00    -0.503 OA
ATOM     19  H   UNL     1       0.725  -6.179  26.010  0.00  0.00    +0.292 HD
ENDBRANCH  16  18
BRANCH  15  20
ATOM     20  O   UNL     1       1.818  -4.600  24.319  0.00  0.00    -0.503 OA
ATOM     21  H   UNL     1       1.025  -5.134  24.543  0.00  0.00    +0.292 HD
ENDBRANCH  15  20
ENDBRANCH   1  13
BRANCH   5  22
ATOM     22  O   UNL     1       7.545   2.655  26.845  0.00  0.00    -0.506 OA
ATOM     23  H   UNL     1       7.931   2.588  25.942  0.00  0.00    +0.292 HD
ENDBRANCH   5  22
BRANCH  11  24
ATOM     24  O   UNL     1       6.604  -2.396  26.820  0.00  0.00    -0.453 OA
BRANCH  24  25
ATOM     25  C   UNL     1       6.988  -2.767  25.478  0.00  0.00    +0.340 C 
ATOM     26  O   UNL     1       6.359  -3.981  25.075  0.00  0.00    -0.331 OA
ATOM     27  C   UNL     1       6.903  -5.239  25.472  0.00  0.00    +0.179 C 
ATOM     28  C   UNL     1       8.414  -5.304  25.200  0.00  0.00    +0.177 C 
ATOM     29  C   UNL     1       9.191  -4.120  25.777  0.00  0.00    +0.180 C 
ATOM     30  C   UNL     1       8.548  -2.757  25.485  0.00  0.00    +0.221 C 
BRANCH  29  31
ATOM     31  O   UNL     1       9.355  -4.316  27.188  0.00  0.00    -0.386 OA
ATOM     32  H   UNL     1      10.086  -4.953  27.359  0.00  0.00    +0.210 HD
ENDBRANCH  29  31
BRANCH  28  33
ATOM     33  O   UNL     1       8.599  -5.300  23.776  0.00  0.00    -0.386 OA
ATOM     34  H   UNL     1       8.143  -6.082  23.419  0.00  0.00    +0.210 HD
ENDBRANCH  28  33
BRANCH  27  35
ATOM     35  C   UNL     1       6.434  -5.692  26.868  0.00  0.00    +0.190 C 
BRANCH  35  36
ATOM     36  O   UNL     1       7.492  -6.201  27.671  0.00  0.00    -0.392 OA
ATOM     37  H   UNL     1       7.087  -6.865  28.264  0.00  0.00    +0.210 HD
ENDBRANCH  35  36
ENDBRANCH  27  35
BRANCH  30  38
ATOM     38  O   UNL     1       9.254  -1.789  24.683  0.00  0.00    -0.337 OA
BRANCH  38  39
ATOM     39  C   UNL     1       9.614  -1.890  23.318  0.00  0.00    +0.282 C 
ATOM     40  O   UNL     1      10.739  -0.995  23.070  0.00  0.00    -0.341 OA
ATOM     41  C   UNL     1      10.509   0.426  23.274  0.00  0.00    +0.178 C 
ATOM     42  C   UNL     1       9.216   0.973  22.618  0.00  0.00    +0.177 C 
ATOM     43  C   UNL     1       8.049  -0.024  22.685  0.00  0.00    +0.179 C 
ATOM     44  C   UNL     1       8.529  -1.442  22.318  0.00  0.00    +0.201 C 
BRANCH  44  45
ATOM     45  O   UNL     1       9.058  -1.419  20.973  0.00  0.00    -0.384 OA
ATOM     46  H   UNL     1       9.782  -0.754  20.962  0.00  0.00    +0.210 HD
ENDBRANCH  44  45
BRANCH  43  47
ATOM     47  O   UNL     1       7.442   0.029  23.977  0.00  0.00    -0.386 OA
ATOM     48  H   UNL     1       8.033   0.546  24.559  0.00  0.00    +0.210 HD
ENDBRANCH  43  47
BRANCH  42  49
ATOM     49  O   UNL     1       9.521   1.315  21.253  0.00  0.00    -0.386 OA
ATOM     50  H   UNL     1       9.056   0.695  20.656  0.00  0.00    +0.210 HD
ENDBRANCH  42  49
BRANCH  41  51
ATOM     51  C   UNL     1      10.640   0.833  24.755  0.00  0.00    +0.190 C 
BRANCH  51  52
ATOM     52  O   UNL     1       9.403   1.321  25.278  0.00  0.00    -0.392 OA
ATOM     53  H   UNL     1       8.763   0.589  25.269  0.00  0.00    +0.210 HD
ENDBRANCH  51  52
ENDBRANCH  41  51
ENDBRANCH  38  39
ENDBRANCH  30  38
ENDBRANCH  24  25
ENDBRANCH  11  24
BRANCH   7  54
ATOM     54  O   UNL     1       3.300   4.210  25.312  0.00  0.00    -0.461 OA
BRANCH  54  55
ATOM     55  C   UNL     1       3.743   4.615  23.997  0.00  0.00    +0.339 C 
ATOM     56  O   UNL     1       3.039   5.788  23.542  0.00  0.00    -0.331 OA
ATOM     57  C   UNL     1       1.794   5.622  22.845  0.00  0.00    +0.179 C 
ATOM     58  C   UNL     1       1.901   4.622  21.681  0.00  0.00    +0.177 C 
ATOM     59  C   UNL     1       2.438   3.281  22.173  0.00  0.00    +0.180 C 
ATOM     60  C   UNL     1       3.758   3.475  22.931  0.00  0.00    +0.214 C 
BRANCH  60  61
ATOM     61  O   UNL     1       4.795   3.748  21.965  0.00  0.00    -0.383 OA
ATOM     62  H   UNL     1       4.796   4.720  21.823  0.00  0.00    +0.210 HD
ENDBRANCH  60  61
BRANCH  59  63
ATOM     63  O   UNL     1       1.435   2.593  22.916  0.00  0.00    -0.386 OA
ATOM     64  H   UNL     1       0.568   2.712  22.491  0.00  0.00    +0.210 HD
ENDBRANCH  59  63
BRANCH  58  65
ATOM     65  O   UNL     1       2.797   5.150  20.687  0.00  0.00    -0.386 OA
ATOM     66  H   UNL     1       2.650   4.644  19.865  0.00  0.00    +0.210 HD
ENDBRANCH  58  65
BRANCH  57  67
ATOM     67  C   UNL     1       0.616   5.316  23.788  0.00  0.00    +0.190 C 
BRANCH  67  68
ATOM     68  O   UNL     1       0.783   5.909  25.074  0.00  0.00    -0.392 OA
ATOM     69  H   UNL     1       0.489   5.272  25.746  0.00  0.00    +0.210 HD
ENDBRANCH  67  68
ENDBRANCH  57  67
ENDBRANCH  54  55
ENDBRANCH   7  54
TORSDOF 24
ENDMDL
MODEL 3
REMARK VINA RESULT:      -6.6      2.158      9.280
REMARK  Name = 
REMARK  24 active torsions:
REMARK  status: ('A' for Active; 'I' for Inactive)
REMARK    1  A    between atoms: C_3  and  O_70
REMARK    2  A    between atoms: C_4  and  O_69
REMARK    3  A    between atoms: C_6  and  C_7
REMARK    4  A    between atoms: C_8  and  O_36
REMARK    5  A    between atoms: C_12  and  O_35
REMARK    6  A    between atoms: C_14  and  O_18
REMARK    7  A    between atoms: O_18  and  C_19
REMARK    8  A    between atoms: C_21  and  O_34
REMARK    9  A    between atoms: C_23  and  O_33
REMARK   10  A    between atoms: C_25  and  O_32
REMARK   11  A    between atoms: C_27  and  C_30
REMARK   12  A    between atoms: C_30  and  O_31
REMARK   13  A    between atoms: O_36  and  C_37
REMARK   14  A    between atoms: C_39  and  O_52
REMARK   15  A    between atoms: C_41  and  O_51
REMARK   16  A    between atoms: C_43  and  O_50
REMARK   17  A    between atoms: C_45  and  C_48
REMARK   18  A    between atoms: C_48  and  O_49
REMARK   19  A    between atoms: O_52  and  C_53
REMARK   20  A    between atoms: C_55  and  O_68
REMARK   21  A    between atoms: C_57  and  O_67
REMARK   22  A    between atoms: C_59  and  O_66
REMARK   23  A    between atoms: C_61  and  C_64
REMARK   24  A    between atoms: C_64  and  O_65
REMARK                            x       y       z     vdW  Elec       q    Type
REMARK                         _______ _______ _______ _____ _____    ______ ____
ROOT
ATOM      1  C   UNL     1       5.219  -0.967  25.500  0.00  0.00    +0.181 A 
ATOM      2  O   UNL     1       4.014  -1.645  25.810  0.00  0.00    -0.451 OA
ATOM      3  C   UNL     1       3.794  -2.897  25.263  0.00  0.00    +0.147 A 
ATOM      4  C   UNL     1       4.475  -3.323  24.135  0.00  0.00    +0.109 A 
ATOM      5  C   UNL     1       4.234  -4.587  23.585  0.00  0.00    +0.135 A 
ATOM      6  C   UNL     1       3.341  -5.462  24.192  0.00  0.00    +0.092 A 
ATOM      7  C   UNL     1       2.744  -5.113  25.406  0.00  0.00    +0.131 A 
ATOM      8  C   UNL     1       5.513  -2.460  23.591  0.00  0.00    +0.238 A 
ATOM      9  O   UNL     1       5.977  -2.736  22.490  0.00  0.00    -0.283 OA
ATOM     10  C   UNL     1       2.903  -3.791  25.886  0.00  0.00    +0.093 A 
ATOM     11  C   UNL     1       6.012  -1.363  24.466  0.00  0.00    +0.214 A 
ENDROOT
BRANCH   1  13
ATOM     12  C   UNL     1       4.810   1.394  26.512  0.00  0.00    +0.015 A 
ATOM     13  C   UNL     1       5.534   0.178  26.460  0.00  0.00    +0.025 A 
ATOM     14  C   UNL     1       6.589   0.098  27.380  0.00  0.00    +0.060 A 
ATOM     15  C   UNL     1       6.914   1.171  28.237  0.00  0.00    +0.159 A 
ATOM     16  C   UNL     1       6.213   2.368  28.186  0.00  0.00    +0.158 A 
ATOM     17  C   UNL     1       5.139   2.483  27.336  0.00  0.00    +0.050 A 
BRANCH  16  18
ATOM     18  O   UNL     1       6.664   3.407  28.961  0.00  0.00    -0.503 OA
ATOM     19  H   UNL     1       5.885   3.892  29.278  0.00  0.00    +0.292 HD
ENDBRANCH  16  18
BRANCH  15  20
ATOM     20  O   UNL     1       7.948   1.046  29.131  0.00  0.00    -0.503 OA
ATOM     21  H   UNL     1       7.511   1.022  30.009  0.00  0.00    +0.292 HD
ENDBRANCH  15  20
ENDBRANCH   1  13
BRANCH   5  22
ATOM     22  O   UNL     1       4.914  -5.077  22.501  0.00  0.00    -0.506 OA
ATOM     23  H   UNL     1       5.411  -4.337  22.082  0.00  0.00    +0.292 HD
ENDBRANCH   5  22
BRANCH  11  24
ATOM     24  O   UNL     1       7.294  -0.893  24.299  0.00  0.00    -0.453 OA
BRANCH  24  25
ATOM     25  C   UNL     1       7.623   0.189  23.401  0.00  0.00    +0.340 C 
ATOM     26  O   UNL     1       8.402  -0.270  22.298  0.00  0.00    -0.331 OA
ATOM     27  C   UNL     1       9.811  -0.451  22.439  0.00  0.00    +0.179 C 
ATOM     28  C   UNL     1      10.469   0.779  23.084  0.00  0.00    +0.177 C 
ATOM     29  C   UNL     1       9.801   1.218  24.387  0.00  0.00    +0.180 C 
ATOM     30  C   UNL     1       8.269   1.283  24.305  0.00  0.00    +0.221 C 
BRANCH  29  31
ATOM     31  O   UNL     1      10.219   0.341  25.442  0.00  0.00    -0.386 OA
ATOM     32  H   UNL     1       9.496  -0.287  25.667  0.00  0.00    +0.210 HD
ENDBRANCH  29  31
BRANCH  28  33
ATOM     33  O   UNL     1      10.367   1.864  22.149  0.00  0.00    -0.386 OA
ATOM     34  H   UNL     1      10.968   2.569  22.450  0.00  0.00    +0.210 HD
ENDBRANCH  28  33
BRANCH  27  35
ATOM     35  C   UNL     1      10.193  -1.824  23.024  0.00  0.00    +0.190 C 
BRANCH  35  36
ATOM     36  O   UNL     1       9.133  -2.770  22.955  0.00  0.00    -0.392 OA
ATOM     37  H   UNL     1       9.393  -3.420  22.272  0.00  0.00    +0.210 HD
ENDBRANCH  35  36
ENDBRANCH  27  35
BRANCH  30  38
ATOM     38  O   UNL     1       7.596   2.547  24.480  0.00  0.00    -0.337 OA
BRANCH  38  39
ATOM     39  C   UNL     1       8.035   3.669  25.221  0.00  0.00    +0.282 C 
ATOM     40  O   UNL     1       6.889   4.539  25.463  0.00  0.00    -0.341 OA
ATOM     41  C   UNL     1       6.239   5.114  24.297  0.00  0.00    +0.178 C 
ATOM     42  C   UNL     1       7.205   5.751  23.265  0.00  0.00    +0.177 C 
ATOM     43  C   UNL     1       8.518   4.967  23.120  0.00  0.00    +0.179 C 
ATOM     44  C   UNL     1       9.065   4.566  24.505  0.00  0.00    +0.201 C 
BRANCH  44  45
ATOM     45  O   UNL     1       9.310   5.767  25.271  0.00  0.00    -0.384 OA
ATOM     46  H   UNL     1       9.536   5.482  26.184  0.00  0.00    +0.210 HD
ENDBRANCH  44  45
BRANCH  43  47
ATOM     47  O   UNL     1       8.315   3.839  22.267  0.00  0.00    -0.386 OA
ATOM     48  H   UNL     1       8.274   4.169  21.348  0.00  0.00    +0.210 HD
ENDBRANCH  43  47
BRANCH  42  49
ATOM     49  O   UNL     1       7.460   7.108  23.675  0.00  0.00    -0.386 OA
ATOM     50  H   UNL     1       6.749   7.684  23.331  0.00  0.00    +0.210 HD
ENDBRANCH  42  49
BRANCH  41  51
ATOM     51  C   UNL     1       5.236   4.140  23.648  0.00  0.00    +0.190 C 
BRANCH  51  52
ATOM     52  O   UNL     1       5.575   3.866  22.287  0.00  0.00    -0.392 OA
ATOM     53  H   UNL     1       6.533   3.705  22.242  0.00  0.00    +0.210 HD
ENDBRANCH  51  52
ENDBRANCH  41  51
ENDBRANCH  38  39
ENDBRANCH  30  38
ENDBRANCH  24  25
ENDBRANCH  11  24
BRANCH   7  54
ATOM     54  O   UNL     1       2.102  -6.000  26.247  0.00  0.00    -0.461 OA
BRANCH  54  55
ATOM     55  C   UNL     1       2.897  -6.880  27.073  0.00  0.00    +0.339 C 
ATOM     56  O   UNL     1       2.101  -7.497  28.104  0.00  0.00    -0.331 OA
ATOM     57  C   UNL     1       1.935  -6.811  29.355  0.00  0.00    +0.179 C 
ATOM     58  C   UNL     1       3.275  -6.362  29.962  0.00  0.00    +0.177 C 
ATOM     59  C   UNL     1       4.056  -5.509  28.967  0.00  0.00    +0.180 C 
ATOM     60  C   UNL     1       4.210  -6.245  27.630  0.00  0.00    +0.214 C 
BRANCH  60  61
ATOM     61  O   UNL     1       5.198  -7.284  27.800  0.00  0.00    -0.383 OA
ATOM     62  H   UNL     1       5.058  -7.925  27.069  0.00  0.00    +0.210 HD
ENDBRANCH  60  61
BRANCH  59  63
ATOM     63  O   UNL     1       3.462  -4.218  28.854  0.00  0.00    -0.386 OA
ATOM     64  H   UNL     1       3.000  -3.993  29.681  0.00  0.00    +0.210 HD
ENDBRANCH  59  63
BRANCH  58  65
ATOM     65  O   UNL     1       4.054  -7.524  30.295  0.00  0.00    -0.386 OA
ATOM     66  H   UNL     1       3.491  -8.105  30.842  0.00  0.00    +0.210 HD
ENDBRANCH  58  65
BRANCH  57  67
ATOM     67  C   UNL     1       0.902  -5.671  29.280  0.00  0.00    +0.190 C 
BRANCH  67  68
ATOM     68  O   UNL     1       0.967  -4.805  30.410  0.00  0.00    -0.392 OA
ATOM     69  H   UNL     1       1.351  -5.298  31.153  0.00  0.00    +0.210 HD
ENDBRANCH  67  68
ENDBRANCH  57  67
ENDBRANCH  54  55
ENDBRANCH   7  54
TORSDOF 24
ENDMDL
MODEL 4
REMARK VINA RESULT:      -6.2      2.133      6.094
REMARK  Name = 
REMARK  24 active torsions:
REMARK  status: ('A' for Active; 'I' for Inactive)
REMARK    1  A    between atoms: C_3  and  O_70
REMARK    2  A    between atoms: C_4  and  O_69
REMARK    3  A    between atoms: C_6  and  C_7
REMARK    4  A    between atoms: C_8  and  O_36
REMARK    5  A    between atoms: C_12  and  O_35
REMARK    6  A    between atoms: C_14  and  O_18
REMARK    7  A    between atoms: O_18  and  C_19
REMARK    8  A    between atoms: C_21  and  O_34
REMARK    9  A    between atoms: C_23  and  O_33
REMARK   10  A    between atoms: C_25  and  O_32
REMARK   11  A    between atoms: C_27  and  C_30
REMARK   12  A    between atoms: C_30  and  O_31
REMARK   13  A    between atoms: O_36  and  C_37
REMARK   14  A    between atoms: C_39  and  O_52
REMARK   15  A    between atoms: C_41  and  O_51
REMARK   16  A    between atoms: C_43  and  O_50
REMARK   17  A    between atoms: C_45  and  C_48
REMARK   18  A    between atoms: C_48  and  O_49
REMARK   19  A    between atoms: O_52  and  C_53
REMARK   20  A    between atoms: C_55  and  O_68
REMARK   21  A    between atoms: C_57  and  O_67
REMARK   22  A    between atoms: C_59  and  O_66
REMARK   23  A    between atoms: C_61  and  C_64
REMARK   24  A    between atoms: C_64  and  O_65
REMARK                            x       y       z     vdW  Elec       q    Type
REMARK                         _______ _______ _______ _____ _____    ______ ____
ROOT
ATOM      1  C   UNL     1       6.545  -1.086  25.510  0.00  0.00    +0.181 A 
ATOM      2  O   UNL     1       7.397   0.042  25.607  0.00  0.00    -0.451 OA
ATOM      3  C   UNL     1       8.215   0.354  24.536  0.00  0.00    +0.147 A 
ATOM      4  C   UNL     1       8.540  -0.590  23.575  0.00  0.00    +0.109 A 
ATOM      5  C   UNL     1       9.380  -0.264  22.504  0.00  0.00    +0.135 A 
ATOM      6  C   UNL     1       9.861   1.031  22.353  0.00  0.00    +0.092 A 
ATOM      7  C   UNL     1       9.439   2.035  23.227  0.00  0.00    +0.131 A 
ATOM      8  C   UNL     1       7.915  -1.901  23.660  0.00  0.00    +0.238 A 
ATOM      9  O   UNL     1       8.345  -2.795  22.940  0.00  0.00    -0.283 OA
ATOM     10  C   UNL     1       8.691   1.669  24.372  0.00  0.00    +0.093 A 
ATOM     11  C   UNL     1       6.722  -2.028  24.543  0.00  0.00    +0.214 A 
ENDROOT
BRANCH   1  13
ATOM     12  C   UNL     1       4.292  -0.237  26.492  0.00  0.00    +0.015 A 
ATOM     13  C   UNL     1       5.422  -1.088  26.543  0.00  0.00    +0.025 A 
ATOM     14  C   UNL     1       5.434  -1.960  27.642  0.00  0.00    +0.060 A 
ATOM     15  C   UNL     1       4.422  -1.935  28.626  0.00  0.00    +0.159 A 
ATOM     16  C   UNL     1       3.379  -1.023  28.559  0.00  0.00    +0.158 A 
ATOM     17  C   UNL     1       3.292  -0.178  27.478  0.00  0.00    +0.050 A 
BRANCH  16  18
ATOM     18  O   UNL     1       2.502  -0.975  29.613  0.00  0.00    -0.503 OA
ATOM     19  H   UNL     1       1.791  -0.359  29.372  0.00  0.00    +0.292 HD
ENDBRANCH  16  18
BRANCH  15  20
ATOM     20  O   UNL     1       4.468  -2.815  29.679  0.00  0.00    -0.503 OA
ATOM     21  H   UNL     1       5.410  -2.821  29.952  0.00  0.00    +0.292 HD
ENDBRANCH  15  20
ENDBRANCH   1  13
BRANCH   5  22
ATOM     22  O   UNL     1       9.693  -1.144  21.501  0.00  0.00    -0.506 OA
ATOM     23  H   UNL     1       9.611  -0.677  20.638  0.00  0.00    +0.292 HD
ENDBRANCH   5  22
BRANCH  11  24
ATOM     24  O   UNL     1       5.775  -2.988  24.268  0.00  0.00    -0.453 OA
BRANCH  24  25
ATOM     25  C   UNL     1       5.871  -4.347  24.748  0.00  0.00    +0.340 C 
ATOM     26  O   UNL     1       6.630  -5.160  23.856  0.00  0.00    -0.331 OA
ATOM     27  C   UNL     1       6.017  -5.719  22.695  0.00  0.00    +0.179 C 
ATOM     28  C   UNL     1       4.686  -6.403  23.041  0.00  0.00    +0.177 C 
ATOM     29  C   UNL     1       3.731  -5.514  23.838  0.00  0.00    +0.180 C 
ATOM     30  C   UNL     1       4.398  -4.787  25.013  0.00  0.00    +0.221 C 
BRANCH  29  31
ATOM     31  O   UNL     1       3.110  -4.580  22.945  0.00  0.00    -0.386 OA
ATOM     32  H   UNL     1       3.432  -4.726  22.026  0.00  0.00    +0.210 HD
ENDBRANCH  29  31
BRANCH  28  33
ATOM     33  O   UNL     1       4.987  -7.556  23.842  0.00  0.00    -0.386 OA
ATOM     34  H   UNL     1       5.345  -7.240  24.690  0.00  0.00    +0.210 HD
ENDBRANCH  28  33
BRANCH  27  35
ATOM     35  C   UNL     1       6.007  -4.757  21.491  0.00  0.00    +0.190 C 
BRANCH  35  36
ATOM     36  O   UNL     1       5.311  -3.545  21.756  0.00  0.00    -0.392 OA
ATOM     37  H   UNL     1       4.471  -3.600  21.258  0.00  0.00    +0.210 HD
ENDBRANCH  35  36
ENDBRANCH  27  35
BRANCH  30  38
ATOM     38  O   UNL     1       3.975  -5.067  26.363  0.00  0.00    -0.337 OA
BRANCH  38  39
ATOM     39  C   UNL     1       2.720  -4.788  26.955  0.00  0.00    +0.282 C 
ATOM     40  O   UNL     1       2.884  -4.786  28.405  0.00  0.00    -0.341 OA
ATOM     41  C   UNL     1       3.301  -6.034  29.024  0.00  0.00    +0.178 C 
ATOM     42  C   UNL     1       2.508  -7.283  28.562  0.00  0.00    +0.177 C 
ATOM     43  C   UNL     1       2.142  -7.235  27.070  0.00  0.00    +0.179 C 
ATOM     44  C   UNL     1       1.621  -5.836  26.686  0.00  0.00    +0.201 C 
BRANCH  44  45
ATOM     45  O   UNL     1       0.443  -5.548  27.473  0.00  0.00    -0.384 OA
ATOM     46  H   UNL     1      -0.329  -5.881  26.964  0.00  0.00    +0.210 HD
ENDBRANCH  44  45
BRANCH  43  47
ATOM     47  O   UNL     1       3.268  -7.632  26.284  0.00  0.00    -0.386 OA
ATOM     48  H   UNL     1       3.449  -6.914  25.647  0.00  0.00    +0.210 HD
ENDBRANCH  43  47
BRANCH  42  49
ATOM     49  O   UNL     1       1.324  -7.384  29.377  0.00  0.00    -0.386 OA
ATOM     50  H   UNL     1       0.937  -8.275  29.268  0.00  0.00    +0.210 HD
ENDBRANCH  42  49
BRANCH  41  51
ATOM     51  C   UNL     1       4.827  -6.241  28.951  0.00  0.00    +0.190 C 
BRANCH  51  52
ATOM     52  O   UNL     1       5.158  -7.570  28.546  0.00  0.00    -0.392 OA
ATOM     53  H   UNL     1       4.479  -7.872  27.920  0.00  0.00    +0.210 HD
ENDBRANCH  51  52
ENDBRANCH  41  51
ENDBRANCH  38  39
ENDBRANCH  30  38
ENDBRANCH  24  25
ENDBRANCH  11  24
BRANCH   7  54
ATOM     54  O   UNL     1       9.593   3.388  22.999  0.00  0.00    -0.461 OA
BRANCH  54  55
ATOM     55  C   UNL     1       9.420   4.306  24.102  0.00  0.00    +0.339 C 
ATOM     56  O   UNL     1       8.133   4.138  24.730  0.00  0.00    -0.331 OA
ATOM     57  C   UNL     1       7.010   4.870  24.214  0.00  0.00    +0.179 C 
ATOM     58  C   UNL     1       7.302   6.373  24.072  0.00  0.00    +0.177 C 
ATOM     59  C   UNL     1       8.545   6.599  23.216  0.00  0.00    +0.180 C 
ATOM     60  C   UNL     1       9.732   5.799  23.767  0.00  0.00    +0.214 C 
BRANCH  60  61
ATOM     61  O   UNL     1      10.205   6.459  24.960  0.00  0.00    -0.383 OA
ATOM     62  H   UNL     1       9.608   7.224  25.112  0.00  0.00    +0.210 HD
ENDBRANCH  60  61
BRANCH  59  63
ATOM     63  O   UNL     1       8.253   6.338  21.846  0.00  0.00    -0.386 OA
ATOM     64  H   UNL     1       9.060   6.434  21.311  0.00  0.00    +0.210 HD
ENDBRANCH  59  63
BRANCH  58  65
ATOM     65  O   UNL     1       7.524   6.936  25.377  0.00  0.00    -0.386 OA
ATOM     66  H   UNL     1       8.488   7.054  25.484  0.00  0.00    +0.210 HD
ENDBRANCH  58  65
BRANCH  57  67
ATOM     67  C   UNL     1       6.431   4.250  22.929  0.00  0.00    +0.190 C 
BRANCH  67  68
ATOM     68  O   UNL     1       5.551   5.140  22.247  0.00  0.00    -0.392 OA
ATOM     69  H   UNL     1       5.460   5.949  22.777  0.00  0.00    +0.210 HD
ENDBRANCH  67  68
ENDBRANCH  57  67
ENDBRANCH  54  55
ENDBRANCH   7  54
TORSDOF 24
ENDMDL
MODEL 5
REMARK VINA RESULT:      -6.0      2.617      5.052
REMARK  Name = 
REMARK  24 active torsions:
REMARK  status: ('A' for Active; 'I' for Inactive)
REMARK    1  A    between atoms: C_3  and  O_70
REMARK    2  A    between atoms: C_4  and  O_69
REMARK    3  A    between atoms: C_6  and  C_7
REMARK    4  A    between atoms: C_8  and  O_36
REMARK    5  A    between atoms: C_12  and  O_35
REMARK    6  A    between atoms: C_14  and  O_18
REMARK    7  A    between atoms: O_18  and  C_19
REMARK    8  A    between atoms: C_21  and  O_34
REMARK    9  A    between atoms: C_23  and  O_33
REMARK   10  A    between atoms: C_25  and  O_32
REMARK   11  A    between atoms: C_27  and  C_30
REMARK   12  A    between atoms: C_30  and  O_31
REMARK   13  A    between atoms: O_36  and  C_37
REMARK   14  A    between atoms: C_39  and  O_52
REMARK   15  A    between atoms: C_41  and  O_51
REMARK   16  A    between atoms: C_43  and  O_50
REMARK   17  A    between atoms: C_45  and  C_48
REMARK   18  A    between atoms: C_48  and  O_49
REMARK   19  A    between atoms: O_52  and  C_53
REMARK   20  A    between atoms: C_55  and  O_68
REMARK   21  A    between atoms: C_57  and  O_67
REMARK   22  A    between atoms: C_59  and  O_66
REMARK   23  A    between atoms: C_61  and  C_64
REMARK   24  A    between atoms: C_64  and  O_65
REMARK                            x       y       z     vdW  Elec       q    Type
REMARK                         _______ _______ _______ _____ _____    ______ ____
ROOT
ATOM      1  C   UNL     1       4.128  -1.359  27.236  0.00  0.00    +0.181 A 
ATOM      2  O   UNL     1       3.403  -0.168  27.486  0.00  0.00    -0.451 OA
ATOM      3  C   UNL     1       4.052   1.047  27.357  0.00  0.00    +0.147 A 
ATOM      4  C   UNL     1       5.434   1.137  27.405  0.00  0.00    +0.109 A 
ATOM      5  C   UNL     1       6.077   2.375  27.285  0.00  0.00    +0.135 A 
ATOM      6  C   UNL     1       5.343   3.533  27.062  0.00  0.00    +0.092 A 
ATOM      7  C   UNL     1       3.961   3.453  26.870  0.00  0.00    +0.131 A 
ATOM      8  C   UNL     1       6.201  -0.096  27.492  0.00  0.00    +0.238 A 
ATOM      9  O   UNL     1       7.400  -0.015  27.734  0.00  0.00    -0.283 OA
ATOM     10  C   UNL     1       3.312   2.219  27.114  0.00  0.00    +0.093 A 
ATOM     11  C   UNL     1       5.488  -1.364  27.171  0.00  0.00    +0.214 A 
ENDROOT
BRANCH   1  13
ATOM     12  C   UNL     1       2.654  -2.910  25.756  0.00  0.00    +0.015 A 
ATOM     13  C   UNL     1       3.234  -2.575  27.004  0.00  0.00    +0.025 A 
ATOM     14  C   UNL     1       2.922  -3.467  28.040  0.00  0.00    +0.060 A 
ATOM     15  C   UNL     1       2.059  -4.567  27.843  0.00  0.00    +0.159 A 
ATOM     16  C   UNL     1       1.460  -4.798  26.613  0.00  0.00    +0.158 A 
ATOM     17  C   UNL     1       1.769  -3.982  25.550  0.00  0.00    +0.050 A 
BRANCH  16  18
ATOM     18  O   UNL     1       0.538  -5.811  26.530  0.00  0.00    -0.503 OA
ATOM     19  H   UNL     1       0.792  -6.488  27.179  0.00  0.00    +0.292 HD
ENDBRANCH  16  18
BRANCH  15  20
ATOM     20  O   UNL     1       1.790  -5.423  28.883  0.00  0.00    -0.503 OA
ATOM     21  H   UNL     1       1.186  -6.093  28.498  0.00  0.00    +0.292 HD
ENDBRANCH  15  20
ENDBRANCH   1  13
BRANCH   5  22
ATOM     22  O   UNL     1       7.440   2.515  27.276  0.00  0.00    -0.506 OA
ATOM     23  H   UNL     1       7.656   3.472  27.200  0.00  0.00    +0.292 HD
ENDBRANCH   5  22
BRANCH  11  24
ATOM     24  O   UNL     1       6.200  -2.437  26.686  0.00  0.00    -0.453 OA
BRANCH  24  25
ATOM     25  C   UNL     1       6.554  -2.580  25.294  0.00  0.00    +0.340 C 
ATOM     26  O   UNL     1       6.021  -3.783  24.744  0.00  0.00    -0.331 OA
ATOM     27  C   UNL     1       6.696  -5.024  24.941  0.00  0.00    +0.179 C 
ATOM     28  C   UNL     1       8.193  -4.904  24.615  0.00  0.00    +0.177 C 
ATOM     29  C   UNL     1       8.883  -3.741  25.328  0.00  0.00    +0.180 C 
ATOM     30  C   UNL     1       8.105  -2.420  25.253  0.00  0.00    +0.221 C 
BRANCH  29  31
ATOM     31  O   UNL     1       9.129  -4.113  26.691  0.00  0.00    -0.386 OA
ATOM     32  H   UNL     1      10.040  -4.474  26.785  0.00  0.00    +0.210 HD
ENDBRANCH  29  31
BRANCH  28  33
ATOM     33  O   UNL     1       8.311  -4.686  23.200  0.00  0.00    -0.386 OA
ATOM     34  H   UNL     1       8.112  -5.529  22.755  0.00  0.00    +0.210 HD
ENDBRANCH  28  33
BRANCH  27  35
ATOM     35  C   UNL     1       6.334  -5.709  26.273  0.00  0.00    +0.190 C 
BRANCH  35  36
ATOM     36  O   UNL     1       4.945  -5.993  26.391  0.00  0.00    -0.392 OA
ATOM     37  H   UNL     1       4.680  -6.403  25.543  0.00  0.00    +0.210 HD
ENDBRANCH  35  36
ENDBRANCH  27  35
BRANCH  30  38
ATOM     38  O   UNL     1       8.683  -1.287  24.573  0.00  0.00    -0.337 OA
BRANCH  38  39
ATOM     39  C   UNL     1       8.101  -0.015  24.357  0.00  0.00    +0.282 C 
ATOM     40  O   UNL     1       7.699   0.076  22.957  0.00  0.00    -0.341 OA
ATOM     41  C   UNL     1       8.754  -0.007  21.961  0.00  0.00    +0.178 C 
ATOM     42  C   UNL     1       9.982   0.897  22.241  0.00  0.00    +0.177 C 
ATOM     43  C   UNL     1      10.325   0.985  23.736  0.00  0.00    +0.179 C 
ATOM     44  C   UNL     1       9.046   1.184  24.573  0.00  0.00    +0.201 C 
BRANCH  44  45
ATOM     45  O   UNL     1       8.408   2.413  24.158  0.00  0.00    -0.384 OA
ATOM     46  H   UNL     1       9.125   3.041  23.918  0.00  0.00    +0.210 HD
ENDBRANCH  44  45
BRANCH  43  47
ATOM     47  O   UNL     1      11.060  -0.174  24.131  0.00  0.00    -0.386 OA
ATOM     48  H   UNL     1      11.874  -0.204  23.592  0.00  0.00    +0.210 HD
ENDBRANCH  43  47
BRANCH  42  49
ATOM     49  O   UNL     1       9.705   2.203  21.700  0.00  0.00    -0.386 OA
ATOM     50  H   UNL     1       9.901   2.200  20.742  0.00  0.00    +0.210 HD
ENDBRANCH  42  49
BRANCH  41  51
ATOM     51  C   UNL     1       9.150  -1.464  21.649  0.00  0.00    +0.190 C 
BRANCH  51  52
ATOM     52  O   UNL     1      10.569  -1.627  21.614  0.00  0.00    -0.392 OA
ATOM     53  H   UNL     1      10.975  -0.752  21.731  0.00  0.00    +0.210 HD
ENDBRANCH  51  52
ENDBRANCH  41  51
ENDBRANCH  38  39
ENDBRANCH  30  38
ENDBRANCH  24  25
ENDBRANCH  11  24
BRANCH   7  54
ATOM     54  O   UNL     1       3.184   4.464  26.342  0.00  0.00    -0.461 OA
BRANCH  54  55
ATOM     55  C   UNL     1       3.707   5.245  25.244  0.00  0.00    +0.339 C 
ATOM     56  O   UNL     1       2.649   5.765  24.415  0.00  0.00    -0.331 OA
ATOM     57  C   UNL     1       2.155   4.958  23.334  0.00  0.00    +0.179 C 
ATOM     58  C   UNL     1       3.283   4.433  22.430  0.00  0.00    +0.177 C 
ATOM     59  C   UNL     1       4.321   3.675  23.253  0.00  0.00    +0.180 C 
ATOM     60  C   UNL     1       4.826   4.541  24.414  0.00  0.00    +0.214 C 
BRANCH  60  61
ATOM     61  O   UNL     1       5.712   5.544  23.874  0.00  0.00    -0.383 OA
ATOM     62  H   UNL     1       6.457   5.629  24.509  0.00  0.00    +0.210 HD
ENDBRANCH  60  61
BRANCH  59  63
ATOM     63  O   UNL     1       3.802   2.409  23.654  0.00  0.00    -0.386 OA
ATOM     64  H   UNL     1       3.704   1.830  22.878  0.00  0.00    +0.210 HD
ENDBRANCH  59  63
BRANCH  58  65
ATOM     65  O   UNL     1       3.922   5.545  21.780  0.00  0.00    -0.386 OA
ATOM     66  H   UNL     1       3.709   5.488  20.829  0.00  0.00    +0.210 HD
ENDBRANCH  58  65
BRANCH  57  67
ATOM     67  C   UNL     1       1.201   3.845  23.806  0.00  0.00    +0.190 C 
BRANCH  67  68
ATOM     68  O   UNL     1       0.444   4.229  24.950  0.00  0.00    -0.392 OA
ATOM     69  H   UNL     1       1.059   4.399  25.683  0.00  0.00    +0.210 HD
ENDBRANCH  67  68
ENDBRANCH  57  67
ENDBRANCH  54  55
ENDBRANCH   7  54
TORSDOF 24
ENDMDL
MODEL 6
REMARK VINA RESULT:      -5.8      2.494      9.665
REMARK  Name = 
REMARK  24 active torsions:
REMARK  status: ('A' for Active; 'I' for Inactive)
REMARK    1  A    between atoms: C_3  and  O_70
REMARK    2  A    between atoms: C_4  and  O_69
REMARK    3  A    between atoms: C_6  and  C_7
REMARK    4  A    between atoms: C_8  and  O_36
REMARK    5  A    between atoms: C_12  and  O_35
REMARK    6  A    between atoms: C_14  and  O_18
REMARK    7  A    between atoms: O_18  and  C_19
REMARK    8  A    between atoms: C_21  and  O_34
REMARK    9  A    between atoms: C_23  and  O_33
REMARK   10  A    between atoms: C_25  and  O_32
REMARK   11  A    between atoms: C_27  and  C_30
REMARK   12  A    between atoms: C_30  and  O_31
REMARK   13  A    between atoms: O_36  and  C_37
REMARK   14  A    between atoms: C_39  and  O_52
REMARK   15  A    between atoms: C_41  and  O_51
REMARK   16  A    between atoms: C_43  and  O_50
REMARK   17  A    between atoms: C_45  and  C_48
REMARK   18  A    between atoms: C_48  and  O_49
REMARK   19  A    between atoms: O_52  and  C_53
REMARK   20  A    between atoms: C_55  and  O_68
REMARK   21  A    between atoms: C_57  and  O_67
REMARK   22  A    between atoms: C_59  and  O_66
REMARK   23  A    between atoms: C_61  and  C_64
REMARK   24  A    between atoms: C_64  and  O_65
REMARK                            x       y       z     vdW  Elec       q    Type
REMARK                         _______ _______ _______ _____ _____    ______ ____
ROOT
ATOM      1  C   UNL     1       5.523   0.004  25.500  0.00  0.00    +0.181 A 
ATOM      2  O   UNL     1       4.675  -1.105  25.744  0.00  0.00    -0.451 OA
ATOM      3  C   UNL     1       4.929  -2.295  25.086  0.00  0.00    +0.147 A 
ATOM      4  C   UNL     1       5.685  -2.333  23.926  0.00  0.00    +0.109 A 
ATOM      5  C   UNL     1       5.924  -3.543  23.263  0.00  0.00    +0.135 A 
ATOM      6  C   UNL     1       5.450  -4.740  23.787  0.00  0.00    +0.092 A 
ATOM      7  C   UNL     1       4.804  -4.748  25.026  0.00  0.00    +0.131 A 
ATOM      8  C   UNL     1       6.301  -1.097  23.465  0.00  0.00    +0.238 A 
ATOM      9  O   UNL     1       6.799  -1.082  22.345  0.00  0.00    -0.283 OA
ATOM     10  C   UNL     1       4.464  -3.510  25.623  0.00  0.00    +0.093 A 
ATOM     11  C   UNL     1       6.373   0.029  24.437  0.00  0.00    +0.214 A 
ENDROOT
BRANCH   1  13
ATOM     12  C   UNL     1       4.214   1.794  26.860  0.00  0.00    +0.015 A 
ATOM     13  C   UNL     1       5.409   1.097  26.559  0.00  0.00    +0.025 A 
ATOM     14  C   UNL     1       6.513   1.494  27.328  0.00  0.00    +0.060 A 
ATOM     15  C   UNL     1       6.426   2.536  28.276  0.00  0.00    +0.159 A 
ATOM     16  C   UNL     1       5.242   3.233  28.470  0.00  0.00    +0.158 A 
ATOM     17  C   UNL     1       4.117   2.853  27.777  0.00  0.00    +0.050 A 
BRANCH  16  18
ATOM     18  O   UNL     1       5.266   4.312  29.317  0.00  0.00    -0.503 OA
ATOM     19  H   UNL     1       4.501   4.233  29.911  0.00  0.00    +0.292 HD
ENDBRANCH  16  18
BRANCH  15  20
ATOM     20  O   UNL     1       7.529   2.884  29.016  0.00  0.00    -0.503 OA
ATOM     21  H   UNL     1       8.289   2.702  28.423  0.00  0.00    +0.292 HD
ENDBRANCH  15  20
ENDBRANCH   1  13
BRANCH   5  22
ATOM     22  O   UNL     1       6.705  -3.644  22.142  0.00  0.00    -0.506 OA
ATOM     23  H   UNL     1       6.174  -4.063  21.427  0.00  0.00    +0.292 HD
ENDBRANCH   5  22
BRANCH  11  24
ATOM     24  O   UNL     1       7.375   0.963  24.316  0.00  0.00    -0.453 OA
BRANCH  24  25
ATOM     25  C   UNL     1       7.314   2.065  23.385  0.00  0.00    +0.340 C 
ATOM     26  O   UNL     1       8.533   2.200  22.659  0.00  0.00    -0.331 OA
ATOM     27  C   UNL     1       9.644   2.883  23.240  0.00  0.00    +0.179 C 
ATOM     28  C   UNL     1       9.220   4.236  23.831  0.00  0.00    +0.177 C 
ATOM     29  C   UNL     1       8.027   4.142  24.781  0.00  0.00    +0.180 C 
ATOM     30  C   UNL     1       6.869   3.293  24.239  0.00  0.00    +0.221 C 
BRANCH  29  31
ATOM     31  O   UNL     1       8.479   3.642  26.047  0.00  0.00    -0.386 OA
ATOM     32  H   UNL     1       7.816   3.018  26.421  0.00  0.00    +0.210 HD
ENDBRANCH  29  31
BRANCH  28  33
ATOM     33  O   UNL     1       8.846   5.088  22.737  0.00  0.00    -0.386 OA
ATOM     34  H   UNL     1       9.653   5.288  22.231  0.00  0.00    +0.210 HD
ENDBRANCH  28  33
BRANCH  27  35
ATOM     35  C   UNL     1      10.511   1.979  24.138  0.00  0.00    +0.190 C 
BRANCH  35  36
ATOM     36  O   UNL     1      10.384   0.598  23.822  0.00  0.00    -0.392 OA
ATOM     37  H   UNL     1       9.497   0.329  24.133  0.00  0.00    +0.210 HD
ENDBRANCH  35  36
ENDBRANCH  27  35
BRANCH  30  38
ATOM     38  O   UNL     1       5.588   3.905  23.987  0.00  0.00    -0.337 OA
BRANCH  38  39
ATOM     39  C   UNL     1       4.474   3.343  23.319  0.00  0.00    +0.282 C 
ATOM     40  O   UNL     1       4.196   4.144  22.132  0.00  0.00    -0.341 OA
ATOM     41  C   UNL     1       3.821   5.533  22.345  0.00  0.00    +0.178 C 
ATOM     42  C   UNL     1       2.730   5.750  23.423  0.00  0.00    +0.177 C 
ATOM     43  C   UNL     1       2.871   4.788  24.613  0.00  0.00    +0.179 C 
ATOM     44  C   UNL     1       3.155   3.356  24.119  0.00  0.00    +0.201 C 
BRANCH  44  45
ATOM     45  O   UNL     1       2.054   2.926  23.287  0.00  0.00    -0.384 OA
ATOM     46  H   UNL     1       2.337   2.092  22.849  0.00  0.00    +0.210 HD
ENDBRANCH  44  45
BRANCH  43  47
ATOM     47  O   UNL     1       3.878   5.268  25.505  0.00  0.00    -0.386 OA
ATOM     48  H   UNL     1       4.299   6.043  25.084  0.00  0.00    +0.210 HD
ENDBRANCH  43  47
BRANCH  42  49
ATOM     49  O   UNL     1       1.445   5.600  22.790  0.00  0.00    -0.386 OA
ATOM     50  H   UNL     1       1.554   5.674  21.822  0.00  0.00    +0.210 HD
ENDBRANCH  42  49
BRANCH  41  51
ATOM     51  C   UNL     1       5.048   6.444  22.550  0.00  0.00    +0.190 C 
BRANCH  51  52
ATOM     52  O   UNL     1       6.198   5.937  21.871  0.00  0.00    -0.392 OA
ATOM     53  H   UNL     1       6.892   6.618  21.905  0.00  0.00    +0.210 HD
ENDBRANCH  51  52
ENDBRANCH  41  51
ENDBRANCH  38  39
ENDBRANCH  30  38
ENDBRANCH  24  25
ENDBRANCH  11  24
BRANCH   7  54
ATOM     54  O   UNL     1       4.572  -5.880  25.781  0.00  0.00    -0.461 OA
BRANCH  54  55
ATOM     55  C   UNL     1       5.626  -6.376  26.637  0.00  0.00    +0.339 C 
ATOM     56  O   UNL     1       5.158  -7.442  27.486  0.00  0.00    -0.331 OA
ATOM     57  C   UNL     1       4.567  -7.110  28.753  0.00  0.00    +0.179 C 
ATOM     58  C   UNL     1       5.450  -6.164  29.584  0.00  0.00    +0.177 C 
ATOM     59  C   UNL     1       5.785  -4.906  28.788  0.00  0.00    +0.180 C 
ATOM     60  C   UNL     1       6.398  -5.274  27.431  0.00  0.00    +0.214 C 
BRANCH  60  61
ATOM     61  O   UNL     1       7.753  -5.719  27.654  0.00  0.00    -0.383 OA
ATOM     62  H   UNL     1       8.336  -5.085  27.183  0.00  0.00    +0.210 HD
ENDBRANCH  60  61
BRANCH  59  63
ATOM     63  O   UNL     1       4.640  -4.061  28.699  0.00  0.00    -0.386 OA
ATOM     64  H   UNL     1       4.525  -3.571  29.532  0.00  0.00    +0.210 HD
ENDBRANCH  59  63
BRANCH  58  65
ATOM     65  O   UNL     1       6.673  -6.839  29.928  0.00  0.00    -0.386 OA
ATOM     66  H   UNL     1       7.283  -6.170  30.291  0.00  0.00    +0.210 HD
ENDBRANCH  58  65
BRANCH  57  67
ATOM     67  C   UNL     1       3.115  -6.614  28.625  0.00  0.00    +0.190 C 
BRANCH  67  68
ATOM     68  O   UNL     1       2.302  -7.506  27.866  0.00  0.00    -0.392 OA
ATOM     69  H   UNL     1       2.704  -8.390  27.898  0.00  0.00    +0.210 HD
ENDBRANCH  67  68
ENDBRANCH  57  67
ENDBRANCH  54  55
ENDBRANCH   7  54
TORSDOF 24
ENDMDL
MODEL 7
REMARK VINA RESULT:      -5.8      2.216      4.542
REMARK  Name = 
REMARK  24 active torsions:
REMARK  status: ('A' for Active; 'I' for Inactive)
REMARK    1  A    between atoms: C_3  and  O_70
REMARK    2  A    between atoms: C_4  and  O_69
REMARK    3  A    between atoms: C_6  and  C_7
REMARK    4  A    between atoms: C_8  and  O_36
REMARK    5  A    between atoms: C_12  and  O_35
REMARK    6  A    between atoms: C_14  and  O_18
REMARK    7  A    between atoms: O_18  and  C_19
REMARK    8  A    between atoms: C_21  and  O_34
REMARK    9  A    between atoms: C_23  and  O_33
REMARK   10  A    between atoms: C_25  and  O_32
REMARK   11  A    between atoms: C_27  and  C_30
REMARK   12  A    between atoms: C_30  and  O_31
REMARK   13  A    between atoms: O_36  and  C_37
REMARK   14  A    between atoms: C_39  and  O_52
REMARK   15  A    between atoms: C_41  and  O_51
REMARK   16  A    between atoms: C_43  and  O_50
REMARK   17  A    between atoms: C_45  and  C_48
REMARK   18  A    between atoms: C_48  and  O_49
REMARK   19  A    between atoms: O_52  and  C_53
REMARK   20  A    between atoms: C_55  and  O_68
REMARK   21  A    between atoms: C_57  and  O_67
REMARK   22  A    between atoms: C_59  and  O_66
REMARK   23  A    between atoms: C_61  and  C_64
REMARK   24  A    between atoms: C_64  and  O_65
REMARK                            x       y       z     vdW  Elec       q    Type
REMARK                         _______ _______ _______ _____ _____    ______ ____
ROOT
ATOM      1  C   UNL     1       5.987  -0.197  27.627  0.00  0.00    +0.181 A 
ATOM      2  O   UNL     1       6.403   1.097  27.225  0.00  0.00    -0.451 OA
ATOM      3  C   UNL     1       7.417   1.210  26.291  0.00  0.00    +0.147 A 
ATOM      4  C   UNL     1       8.301   0.171  26.053  0.00  0.00    +0.109 A 
ATOM      5  C   UNL     1       9.331   0.304  25.114  0.00  0.00    +0.135 A 
ATOM      6  C   UNL     1       9.453   1.466  24.362  0.00  0.00    +0.092 A 
ATOM      7  C   UNL     1       8.494   2.475  24.481  0.00  0.00    +0.131 A 
ATOM      8  C   UNL     1       8.077  -1.093  26.738  0.00  0.00    +0.238 A 
ATOM      9  O   UNL     1       8.959  -1.943  26.688  0.00  0.00    -0.283 OA
ATOM     10  C   UNL     1       7.533   2.380  25.516  0.00  0.00    +0.093 A 
ATOM     11  C   UNL     1       6.740  -1.300  27.361  0.00  0.00    +0.214 A 
ENDROOT
BRANCH   1  13
ATOM     12  C   UNL     1       4.434   0.008  29.704  0.00  0.00    +0.015 A 
ATOM     13  C   UNL     1       4.626  -0.208  28.317  0.00  0.00    +0.025 A 
ATOM     14  C   UNL     1       3.441  -0.439  27.604  0.00  0.00    +0.060 A 
ATOM     15  C   UNL     1       2.184  -0.497  28.243  0.00  0.00    +0.159 A 
ATOM     16  C   UNL     1       2.071  -0.353  29.619  0.00  0.00    +0.158 A 
ATOM     17  C   UNL     1       3.196  -0.076  30.360  0.00  0.00    +0.050 A 
BRANCH  16  18
ATOM     18  O   UNL     1       0.835  -0.544  30.184  0.00  0.00    -0.503 OA
ATOM     19  H   UNL     1       0.787  -1.471  30.469  0.00  0.00    +0.292 HD
ENDBRANCH  16  18
BRANCH  15  20
ATOM     20  O   UNL     1       1.047  -0.714  27.504  0.00  0.00    -0.503 OA
ATOM     21  H   UNL     1       1.196  -1.585  27.077  0.00  0.00    +0.292 HD
ENDBRANCH  15  20
ENDBRANCH   1  13
BRANCH   5  22
ATOM     22  O   UNL     1      10.201  -0.708  24.805  0.00  0.00    -0.506 OA
ATOM     23  H   UNL     1      10.419  -0.652  23.847  0.00  0.00    +0.292 HD
ENDBRANCH   5  22
BRANCH  11  24
ATOM     24  O   UNL     1       6.253  -2.578  27.511  0.00  0.00    -0.453 OA
BRANCH  24  25
ATOM     25  C   UNL     1       5.557  -3.282  26.459  0.00  0.00    +0.340 C 
ATOM     26  O   UNL     1       4.273  -3.724  26.893  0.00  0.00    -0.331 OA
ATOM     27  C   UNL     1       4.144  -4.927  27.649  0.00  0.00    +0.179 C 
ATOM     28  C   UNL     1       4.914  -6.083  26.992  0.00  0.00    +0.177 C 
ATOM     29  C   UNL     1       6.370  -5.745  26.672  0.00  0.00    +0.180 C 
ATOM     30  C   UNL     1       6.552  -4.385  25.984  0.00  0.00    +0.221 C 
BRANCH  29  31
ATOM     31  O   UNL     1       7.139  -5.813  27.880  0.00  0.00    -0.386 OA
ATOM     32  H   UNL     1       7.124  -6.729  28.240  0.00  0.00    +0.210 HD
ENDBRANCH  29  31
BRANCH  28  33
ATOM     33  O   UNL     1       4.252  -6.398  25.757  0.00  0.00    -0.386 OA
ATOM     34  H   UNL     1       3.518  -5.768  25.648  0.00  0.00    +0.210 HD
ENDBRANCH  28  33
BRANCH  27  35
ATOM     35  C   UNL     1       4.363  -4.723  29.161  0.00  0.00    +0.190 C 
BRANCH  35  36
ATOM     36  O   UNL     1       4.087  -3.394  29.586  0.00  0.00    -0.392 OA
ATOM     37  H   UNL     1       4.584  -3.267  30.419  0.00  0.00    +0.210 HD
ENDBRANCH  35  36
ENDBRANCH  27  35
BRANCH  30  38
ATOM     38  O   UNL     1       7.089  -4.325  24.647  0.00  0.00    -0.337 OA
BRANCH  38  39
ATOM     39  C   UNL     1       6.995  -5.304  23.628  0.00  0.00    +0.282 C 
ATOM     40  O   UNL     1       7.821  -4.880  22.503  0.00  0.00    -0.341 OA
ATOM     41  C   UNL     1       7.449  -3.639  21.842  0.00  0.00    +0.178 C 
ATOM     42  C   UNL     1       5.943  -3.516  21.496  0.00  0.00    +0.177 C 
ATOM     43  C   UNL     1       5.035  -4.130  22.574  0.00  0.00    +0.179 C 
ATOM     44  C   UNL     1       5.586  -5.495  23.031  0.00  0.00    +0.201 C 
BRANCH  44  45
ATOM     45  O   UNL     1       5.636  -6.381  21.890  0.00  0.00    -0.384 OA
ATOM     46  H   UNL     1       5.644  -5.813  21.088  0.00  0.00    +0.210 HD
ENDBRANCH  44  45
BRANCH  43  47
ATOM     47  O   UNL     1       4.884  -3.212  23.657  0.00  0.00    -0.386 OA
ATOM     48  H   UNL     1       5.779  -2.963  23.960  0.00  0.00    +0.210 HD
ENDBRANCH  43  47
BRANCH  42  49
ATOM     49  O   UNL     1       5.727  -4.150  20.221  0.00  0.00    -0.386 OA
ATOM     50  H   UNL     1       6.009  -5.085  20.277  0.00  0.00    +0.210 HD
ENDBRANCH  42  49
BRANCH  41  51
ATOM     51  C   UNL     1       7.991  -2.399  22.579  0.00  0.00    +0.190 C 
BRANCH  51  52
ATOM     52  O   UNL     1       9.210  -2.687  23.266  0.00  0.00    -0.392 OA
ATOM     53  H   UNL     1       9.843  -3.044  22.619  0.00  0.00    +0.210 HD
ENDBRANCH  51  52
ENDBRANCH  41  51
ENDBRANCH  38  39
ENDBRANCH  30  38
ENDBRANCH  24  25
ENDBRANCH  11  24
BRANCH   7  54
ATOM     54  O   UNL     1       8.333   3.512  23.584  0.00  0.00    -0.461 OA
BRANCH  54  55
ATOM     55  C   UNL     1       7.133   3.561  22.780  0.00  0.00    +0.339 C 
ATOM     56  O   UNL     1       7.185   4.633  21.819  0.00  0.00    -0.331 OA
ATOM     57  C   UNL     1       6.726   5.937  22.212  0.00  0.00    +0.179 C 
ATOM     58  C   UNL     1       5.325   5.902  22.844  0.00  0.00    +0.177 C 
ATOM     59  C   UNL     1       5.291   4.931  24.021  0.00  0.00    +0.180 C 
ATOM     60  C   UNL     1       5.800   3.549  23.593  0.00  0.00    +0.214 C 
BRANCH  60  61
ATOM     61  O   UNL     1       4.772   2.916  22.800  0.00  0.00    -0.383 OA
ATOM     62  H   UNL     1       4.441   2.156  23.327  0.00  0.00    +0.210 HD
ENDBRANCH  60  61
BRANCH  59  63
ATOM     63  O   UNL     1       5.983   5.487  25.136  0.00  0.00    -0.386 OA
ATOM     64  H   UNL     1       5.504   5.282  25.958  0.00  0.00    +0.210 HD
ENDBRANCH  59  63
BRANCH  58  65
ATOM     65  O   UNL     1       4.372   5.473  21.855  0.00  0.00    -0.386 OA
ATOM     66  H   UNL     1       4.156   4.540  22.045  0.00  0.00    +0.210 HD
ENDBRANCH  58  65
BRANCH  57  67
ATOM     67  C   UNL     1       7.751   6.698  23.073  0.00  0.00    +0.190 C 
BRANCH  67  68
ATOM     68  O   UNL     1       9.093   6.316  22.783  0.00  0.00    -0.392 OA
ATOM     69  H   UNL     1       9.620   6.402  23.595  0.00  0.00    +0.210 HD
ENDBRANCH  67  68
ENDBRANCH  57  67
ENDBRANCH  54  55
ENDBRANCH   7  54
TORSDOF 24
ENDMDL
MODEL 8
REMARK VINA RESULT:      -5.8      2.831      8.183
REMARK  Name = 
REMARK  24 active torsions:
REMARK  status: ('A' for Active; 'I' for Inactive)
REMARK    1  A    between atoms: C_3  and  O_70
REMARK    2  A    between atoms: C_4  and  O_69
REMARK    3  A    between atoms: C_6  and  C_7
REMARK    4  A    between atoms: C_8  and  O_36
REMARK    5  A    between atoms: C_12  and  O_35
REMARK    6  A    between atoms: C_14  and  O_18
REMARK    7  A    between atoms: O_18  and  C_19
REMARK    8  A    between atoms: C_21  and  O_34
REMARK    9  A    between atoms: C_23  and  O_33
REMARK   10  A    between atoms: C_25  and  O_32
REMARK   11  A    between atoms: C_27  and  C_30
REMARK   12  A    between atoms: C_30  and  O_31
REMARK   13  A    between atoms: O_36  and  C_37
REMARK   14  A    between atoms: C_39  and  O_52
REMARK   15  A    between atoms: C_41  and  O_51
REMARK   16  A    between atoms: C_43  and  O_50
REMARK   17  A    between atoms: C_45  and  C_48
REMARK   18  A    between atoms: C_48  and  O_49
REMARK   19  A    between atoms: O_52  and  C_53
REMARK   20  A    between atoms: C_55  and  O_68
REMARK   21  A    between atoms: C_57  and  O_67
REMARK   22  A    between atoms: C_59  and  O_66
REMARK   23  A    between atoms: C_61  and  C_64
REMARK   24  A    between atoms: C_64  and  O_65
REMARK                            x       y       z     vdW  Elec       q    Type
REMARK                         _______ _______ _______ _____ _____    ______ ____
ROOT
ATOM      1  C   UNL     1       6.190   3.083  23.192  0.00  0.00    +0.181 A 
ATOM      2  O   UNL     1       6.519   1.977  22.371  0.00  0.00    -0.451 OA
ATOM      3  C   UNL     1       7.531   1.124  22.775  0.00  0.00    +0.147 A 
ATOM      4  C   UNL     1       8.486   1.521  23.697  0.00  0.00    +0.109 A 
ATOM      5  C   UNL     1       9.512   0.652  24.088  0.00  0.00    +0.135 A 
ATOM      6  C   UNL     1       9.560  -0.647  23.598  0.00  0.00    +0.092 A 
ATOM      7  C   UNL     1       8.533  -1.119  22.777  0.00  0.00    +0.131 A 
ATOM      8  C   UNL     1       8.343   2.831  24.314  0.00  0.00    +0.238 A 
ATOM      9  O   UNL     1       9.282   3.266  24.972  0.00  0.00    -0.283 OA
ATOM     10  C   UNL     1       7.573  -0.198  22.294  0.00  0.00    +0.093 A 
ATOM     11  C   UNL     1       7.019   3.500  24.189  0.00  0.00    +0.214 A 
ENDROOT
BRANCH   1  13
ATOM     12  C   UNL     1       4.631   5.033  22.461  0.00  0.00    +0.015 A 
ATOM     13  C   UNL     1       4.827   3.692  22.871  0.00  0.00    +0.025 A 
ATOM     14  C   UNL     1       3.646   2.941  22.962  0.00  0.00    +0.060 A 
ATOM     15  C   UNL     1       2.379   3.510  22.711  0.00  0.00    +0.159 A 
ATOM     16  C   UNL     1       2.247   4.853  22.388  0.00  0.00    +0.158 A 
ATOM     17  C   UNL     1       3.376   5.623  22.238  0.00  0.00    +0.050 A 
BRANCH  16  18
ATOM     18  O   UNL     1       0.978   5.364  22.280  0.00  0.00    -0.503 OA
ATOM     19  H   UNL     1       0.909   5.791  21.411  0.00  0.00    +0.292 HD
ENDBRANCH  16  18
BRANCH  15  20
ATOM     20  O   UNL     1       1.249   2.735  22.800  0.00  0.00    -0.503 OA
ATOM     21  H   UNL     1       1.334   2.278  23.664  0.00  0.00    +0.292 HD
ENDBRANCH  15  20
ENDBRANCH   1  13
BRANCH   5  22
ATOM     22  O   UNL     1      10.451   0.976  25.031  0.00  0.00    -0.506 OA
ATOM     23  H   UNL     1      11.305   1.154  24.574  0.00  0.00    +0.292 HD
ENDBRANCH   5  22
BRANCH  11  24
ATOM     24  O   UNL     1       6.620   4.398  25.152  0.00  0.00    -0.453 OA
BRANCH  24  25
ATOM     25  C   UNL     1       5.385   4.262  25.889  0.00  0.00    +0.340 C 
ATOM     26  O   UNL     1       4.834   5.536  26.216  0.00  0.00    -0.331 OA
ATOM     27  C   UNL     1       5.315   6.258  27.349  0.00  0.00    +0.179 C 
ATOM     28  C   UNL     1       5.374   5.364  28.597  0.00  0.00    +0.177 C 
ATOM     29  C   UNL     1       6.127   4.052  28.375  0.00  0.00    +0.180 C 
ATOM     30  C   UNL     1       5.729   3.321  27.085  0.00  0.00    +0.221 C 
BRANCH  29  31
ATOM     31  O   UNL     1       7.536   4.316  28.399  0.00  0.00    -0.386 OA
ATOM     32  H   UNL     1       7.701   5.284  28.337  0.00  0.00    +0.210 HD
ENDBRANCH  29  31
BRANCH  28  33
ATOM     33  O   UNL     1       4.023   5.040  28.962  0.00  0.00    -0.386 OA
ATOM     34  H   UNL     1       3.507   5.866  28.940  0.00  0.00    +0.210 HD
ENDBRANCH  28  33
BRANCH  27  35
ATOM     35  C   UNL     1       6.568   7.102  27.044  0.00  0.00    +0.190 C 
BRANCH  35  36
ATOM     36  O   UNL     1       7.669   6.318  26.600  0.00  0.00    -0.392 OA
ATOM     37  H   UNL     1       8.295   6.281  27.350  0.00  0.00    +0.210 HD
ENDBRANCH  35  36
ENDBRANCH  27  35
BRANCH  30  38
ATOM     38  O   UNL     1       5.116   2.018  27.160  0.00  0.00    -0.337 OA
BRANCH  38  39
ATOM     39  C   UNL     1       4.676   1.202  26.090  0.00  0.00    +0.282 C 
ATOM     40  O   UNL     1       3.469   0.500  26.512  0.00  0.00    -0.341 OA
ATOM     41  C   UNL     1       3.599  -0.420  27.631  0.00  0.00    +0.178 C 
ATOM     42  C   UNL     1       4.798  -1.396  27.533  0.00  0.00    +0.177 C 
ATOM     43  C   UNL     1       6.043  -0.745  26.910  0.00  0.00    +0.179 C 
ATOM     44  C   UNL     1       5.655   0.087  25.671  0.00  0.00    +0.201 C 
BRANCH  44  45
ATOM     45  O   UNL     1       5.038  -0.788  24.700  0.00  0.00    -0.384 OA
ATOM     46  H   UNL     1       5.561  -1.621  24.693  0.00  0.00    +0.210 HD
ENDBRANCH  44  45
BRANCH  43  47
ATOM     47  O   UNL     1       6.727   0.031  27.895  0.00  0.00    -0.386 OA
ATOM     48  H   UNL     1       6.066   0.314  28.557  0.00  0.00    +0.210 HD
ENDBRANCH  43  47
BRANCH  42  49
ATOM     49  O   UNL     1       4.378  -2.540  26.765  0.00  0.00    -0.386 OA
ATOM     50  H   UNL     1       3.605  -2.950  27.200  0.00  0.00    +0.210 HD
ENDBRANCH  42  49
BRANCH  41  51
ATOM     51  C   UNL     1       3.533   0.303  28.991  0.00  0.00    +0.190 C 
BRANCH  51  52
ATOM     52  O   UNL     1       4.745   0.144  29.730  0.00  0.00    -0.392 OA
ATOM     53  H   UNL     1       4.512  -0.108  30.640  0.00  0.00    +0.210 HD
ENDBRANCH  51  52
ENDBRANCH  41  51
ENDBRANCH  38  39
ENDBRANCH  30  38
ENDBRANCH  24  25
ENDBRANCH  11  24
BRANCH   7  54
ATOM     54  O   UNL     1       8.309  -2.451  22.490  0.00  0.00    -0.461 OA
BRANCH  54  55
ATOM     55  C   UNL     1       7.005  -3.013  22.760  0.00  0.00    +0.339 C 
ATOM     56  O   UNL     1       6.648  -2.873  24.149  0.00  0.00    -0.331 OA
ATOM     57  C   UNL     1       7.052  -3.895  25.075  0.00  0.00    +0.179 C 
ATOM     58  C   UNL     1       6.663  -5.305  24.601  0.00  0.00    +0.177 C 
ATOM     59  C   UNL     1       7.221  -5.575  23.206  0.00  0.00    +0.180 C 
ATOM     60  C   UNL     1       6.797  -4.468  22.233  0.00  0.00    +0.214 C 
BRANCH  60  61
ATOM     61  O   UNL     1       5.402  -4.657  21.915  0.00  0.00    -0.383 OA
ATOM     62  H   UNL     1       5.080  -3.804  21.551  0.00  0.00    +0.210 HD
ENDBRANCH  60  61
BRANCH  59  63
ATOM     63  O   UNL     1       8.629  -5.784  23.272  0.00  0.00    -0.386 OA
ATOM     64  H   UNL     1       9.084  -4.935  23.410  0.00  0.00    +0.210 HD
ENDBRANCH  59  63
BRANCH  58  65
ATOM     65  O   UNL     1       5.229  -5.409  24.560  0.00  0.00    -0.386 OA
ATOM     66  H   UNL     1       4.886  -4.568  24.202  0.00  0.00    +0.210 HD
ENDBRANCH  58  65
BRANCH  57  67
ATOM     67  C   UNL     1       8.536  -3.787  25.475  0.00  0.00    +0.190 C 
BRANCH  67  68
ATOM     68  O   UNL     1       8.976  -4.911  26.233  0.00  0.00    -0.392 OA
ATOM     69  H   UNL     1       9.042  -4.645  27.165  0.00  0.00    +0.210 HD
ENDBRANCH  67  68
ENDBRANCH  57  67
ENDBRANCH  54  55
ENDBRANCH   7  54
TORSDOF 24
ENDMDL
MODEL 9
REMARK VINA RESULT:      -5.6      2.323      9.343
REMARK  Name = 
REMARK  24 active torsions:
REMARK  status: ('A' for Active; 'I' for Inactive)
REMARK    1  A    between atoms: C_3  and  O_70
REMARK    2  A    between atoms: C_4  and  O_69
REMARK    3  A    between atoms: C_6  and  C_7
REMARK    4  A    between atoms: C_8  and  O_36
REMARK    5  A    between atoms: C_12  and  O_35
REMARK    6  A    between atoms: C_14  and  O_18
REMARK    7  A    between atoms: O_18  and  C_19
REMARK    8  A    between atoms: C_21  and  O_34
REMARK    9  A    between atoms: C_23  and  O_33
REMARK   10  A    between atoms: C_25  and  O_32
REMARK   11  A    between atoms: C_27  and  C_30
REMARK   12  A    between atoms: C_30  and  O_31
REMARK   13  A    between atoms: O_36  and  C_37
REMARK   14  A    between atoms: C_39  and  O_52
REMARK   15  A    between atoms: C_41  and  O_51
REMARK   16  A    between atoms: C_43  and  O_50
REMARK   17  A    between atoms: C_45  and  C_48
REMARK   18  A    between atoms: C_48  and  O_49
REMARK   19  A    between atoms: O_52  and  C_53
REMARK   20  A    between atoms: C_55  and  O_68
REMARK   21  A    between atoms: C_57  and  O_67
REMARK   22  A    between atoms: C_59  and  O_66
REMARK   23  A    between atoms: C_61  and  C_64
REMARK   24  A    between atoms: C_64  and  O_65
REMARK                            x       y       z     vdW  Elec       q    Type
REMARK                         _______ _______ _______ _____ _____    ______ ____
ROOT
ATOM      1  C   UNL     1       7.279  -0.432  25.492  0.00  0.00    +0.181 A 
ATOM      2  O   UNL     1       7.327  -1.839  25.336  0.00  0.00    -0.451 OA
ATOM      3  C   UNL     1       6.312  -2.605  25.881  0.00  0.00    +0.147 A 
ATOM      4  C   UNL     1       5.503  -2.119  26.895  0.00  0.00    +0.109 A 
ATOM      5  C   UNL     1       4.487  -2.909  27.445  0.00  0.00    +0.135 A 
ATOM      6  C   UNL     1       4.235  -4.182  26.947  0.00  0.00    +0.092 A 
ATOM      7  C   UNL     1       4.943  -4.644  25.835  0.00  0.00    +0.131 A 
ATOM      8  C   UNL     1       5.677  -0.734  27.310  0.00  0.00    +0.238 A 
ATOM      9  O   UNL     1       5.110  -0.361  28.330  0.00  0.00    -0.283 OA
ATOM     10  C   UNL     1       6.044  -3.888  25.367  0.00  0.00    +0.093 A 
ATOM     11  C   UNL     1       6.449   0.156  26.398  0.00  0.00    +0.214 A 
ENDROOT
BRANCH   1  13
ATOM     12  C   UNL     1       9.469   0.823  24.865  0.00  0.00    +0.015 A 
ATOM     13  C   UNL     1       8.191   0.317  24.524  0.00  0.00    +0.025 A 
ATOM     14  C   UNL     1       7.815   0.557  23.194  0.00  0.00    +0.060 A 
ATOM     15  C   UNL     1       8.634   1.288  22.307  0.00  0.00    +0.159 A 
ATOM     16  C   UNL     1       9.844   1.826  22.725  0.00  0.00    +0.158 A 
ATOM     17  C   UNL     1      10.283   1.579  24.005  0.00  0.00    +0.050 A 
BRANCH  16  18
ATOM     18  O   UNL     1      10.526   2.628  21.846  0.00  0.00    -0.503 OA
ATOM     19  H   UNL     1      11.461   2.616  22.107  0.00  0.00    +0.292 HD
ENDBRANCH  16  18
BRANCH  15  20
ATOM     20  O   UNL     1       8.232   1.490  21.010  0.00  0.00    -0.503 OA
ATOM     21  H   UNL     1       8.627   0.742  20.512  0.00  0.00    +0.292 HD
ENDBRANCH  15  20
ENDBRANCH   1  13
BRANCH   5  22
ATOM     22  O   UNL     1       3.628  -2.460  28.414  0.00  0.00    -0.506 OA
ATOM     23  H   UNL     1       3.057  -3.211  28.698  0.00  0.00    +0.292 HD
ENDBRANCH   5  22
BRANCH  11  24
ATOM     24  O   UNL     1       6.196   1.508  26.398  0.00  0.00    -0.453 OA
BRANCH  24  25
ATOM     25  C   UNL     1       7.186   2.493  26.764  0.00  0.00    +0.340 C 
ATOM     26  O   UNL     1       7.500   2.421  28.153  0.00  0.00    -0.331 OA
ATOM     27  C   UNL     1       6.658   3.056  29.114  0.00  0.00    +0.179 C 
ATOM     28  C   UNL     1       6.344   4.505  28.710  0.00  0.00    +0.177 C 
ATOM     29  C   UNL     1       5.812   4.641  27.283  0.00  0.00    +0.180 C 
ATOM     30  C   UNL     1       6.619   3.850  26.245  0.00  0.00    +0.221 C 
BRANCH  29  31
ATOM     31  O   UNL     1       4.432   4.252  27.263  0.00  0.00    -0.386 OA
ATOM     32  H   UNL     1       4.355   3.286  27.088  0.00  0.00    +0.210 HD
ENDBRANCH  29  31
BRANCH  28  33
ATOM     33  O   UNL     1       7.566   5.254  28.798  0.00  0.00    -0.386 OA
ATOM     34  H   UNL     1       7.549   5.927  28.095  0.00  0.00    +0.210 HD
ENDBRANCH  28  33
BRANCH  27  35
ATOM     35  C   UNL     1       5.462   2.185  29.544  0.00  0.00    +0.190 C 
BRANCH  35  36
ATOM     36  O   UNL     1       4.332   2.952  29.943  0.00  0.00    -0.392 OA
ATOM     37  H   UNL     1       3.574   2.604  29.432  0.00  0.00    +0.210 HD
ENDBRANCH  35  36
ENDBRANCH  27  35
BRANCH  30  38
ATOM     38  O   UNL     1       7.311   4.550  25.190  0.00  0.00    -0.337 OA
BRANCH  38  39
ATOM     39  C   UNL     1       7.517   4.125  23.856  0.00  0.00    +0.282 C 
ATOM     40  O   UNL     1       8.586   4.931  23.276  0.00  0.00    -0.341 OA
ATOM     41  C   UNL     1       8.347   6.361  23.162  0.00  0.00    +0.178 C 
ATOM     42  C   UNL     1       6.976   6.741  22.548  0.00  0.00    +0.177 C 
ATOM     43  C   UNL     1       5.848   5.793  22.983  0.00  0.00    +0.179 C 
ATOM     44  C   UNL     1       6.316   4.326  22.910  0.00  0.00    +0.201 C 
BRANCH  44  45
ATOM     45  O   UNL     1       6.690   4.027  21.546  0.00  0.00    -0.384 OA
ATOM     46  H   UNL     1       6.845   4.887  21.097  0.00  0.00    +0.210 HD
ENDBRANCH  44  45
BRANCH  43  47
ATOM     47  O   UNL     1       5.389   6.155  24.287  0.00  0.00    -0.386 OA
ATOM     48  H   UNL     1       6.012   5.771  24.935  0.00  0.00    +0.210 HD
ENDBRANCH  43  47
BRANCH  42  49
ATOM     49  O   UNL     1       7.117   6.747  21.115  0.00  0.00    -0.386 OA
ATOM     50  H   UNL     1       6.421   6.184  20.723  0.00  0.00    +0.210 HD
ENDBRANCH  42  49
BRANCH  41  51
ATOM     51  C   UNL     1       8.635   7.107  24.479  0.00  0.00    +0.190 C 
BRANCH  51  52
ATOM     52  O   UNL     1       9.617   6.430  25.264  0.00  0.00    -0.392 OA
ATOM     53  H   UNL     1       9.942   7.048  25.941  0.00  0.00    +0.210 HD
ENDBRANCH  51  52
ENDBRANCH  41  51
ENDBRANCH  38  39
ENDBRANCH  30  38
ENDBRANCH  24  25
ENDBRANCH  11  24
BRANCH   7  54
ATOM     54  O   UNL     1       4.576  -5.735  25.072  0.00  0.00    -0.461 OA
BRANCH  54  55
ATOM     55  C   UNL     1       4.012  -6.891  25.732  0.00  0.00    +0.339 C 
ATOM     56  O   UNL     1       3.664  -7.920  24.786  0.00  0.00    -0.331 OA
ATOM     57  C   UNL     1       2.362  -7.891  24.178  0.00  0.00    +0.179 C 
ATOM     58  C   UNL     1       1.232  -7.763  25.213  0.00  0.00    +0.177 C 
ATOM     59  C   UNL     1       1.453  -6.540  26.100  0.00  0.00    +0.180 C 
ATOM     60  C   UNL     1       2.852  -6.575  26.727  0.00  0.00    +0.214 C 
BRANCH  60  61
ATOM     61  O   UNL     1       2.850  -7.567  27.776  0.00  0.00    -0.383 OA
ATOM     62  H   UNL     1       2.887  -7.076  28.626  0.00  0.00    +0.210 HD
ENDBRANCH  60  61
BRANCH  59  63
ATOM     63  O   UNL     1       1.171  -5.348  25.371  0.00  0.00    -0.386 OA
ATOM     64  H   UNL     1       1.224  -5.524  24.415  0.00  0.00    +0.210 HD
ENDBRANCH  59  63
BRANCH  58  65
ATOM     65  O   UNL     1       1.213  -8.941  26.038  0.00  0.00    -0.386 OA
ATOM     66  H   UNL     1       2.037  -9.434  25.860  0.00  0.00    +0.210 HD
ENDBRANCH  58  65
BRANCH  57  67
ATOM     67  C   UNL     1       2.254  -6.853  23.045  0.00  0.00    +0.190 C 
BRANCH  67  68
ATOM     68  O   UNL     1       3.530  -6.458  22.548  0.00  0.00    -0.392 OA
ATOM     69  H   UNL     1       3.948  -5.875  23.204  0.00  0.00    +0.210 HD
ENDBRANCH  67  68
ENDBRANCH  57  67
ENDBRANCH  54  55
ENDBRANCH   7  54
TORSDOF 24
ENDMDL
