MODEL 1
REMARK VINA RESULT:      -7.3      0.000      0.000
REMARK  Name = 
REMARK  10 active torsions:
REMARK  status: ('A' for Active; 'I' for Inactive)
REMARK    1  A    between atoms: C_1  and  C_2
REMARK    2  A    between atoms: C_2  and  C_4
REMARK    3  A    between atoms: C_2  and  N_28
REMARK    4  A    between atoms: C_4  and  O_6
REMARK    5  A    between atoms: O_6  and  C_7
REMARK    6  A    between atoms: C_8  and  O_27
REMARK    7  A    between atoms: C_11  and  C_13
REMARK    8  A    between atoms: C_14  and  O_26
REMARK    9  A    between atoms: C_18  and  O_25
REMARK   10  A    between atoms: C_20  and  O_24
REMARK                            x       y       z     vdW  Elec       q    Type
REMARK                         _______ _______ _______ _____ _____    ______ ____
ROOT
ATOM      1  C   UNL     1       7.750  -3.807  25.093  0.00  0.00    +0.181 A 
ATOM      2  O   UNL     1       6.705  -4.201  24.267  0.00  0.00    -0.451 OA
ATOM      3  C   UNL     1       5.864  -5.198  24.691  0.00  0.00    +0.147 A 
ATOM      4  C   UNL     1       5.969  -5.792  25.943  0.00  0.00    +0.109 A 
ATOM      5  C   UNL     1       5.052  -6.777  26.332  0.00  0.00    +0.135 A 
ATOM      6  C   UNL     1       4.044  -7.180  25.462  0.00  0.00    +0.091 A 
ATOM      7  C   UNL     1       3.961  -6.592  24.203  0.00  0.00    +0.124 A 
ATOM      8  C   UNL     1       7.060  -5.376  26.825  0.00  0.00    +0.238 A 
ATOM      9  O   UNL     1       7.155  -5.862  27.949  0.00  0.00    -0.283 OA
ATOM     10  C   UNL     1       4.859  -5.601  23.812  0.00  0.00    +0.092 A 
ATOM     11  C   UNL     1       8.015  -4.364  26.297  0.00  0.00    +0.208 A 
ENDROOT
BRANCH   1  14
ATOM     12  C   UNL     1       8.824  -0.266  24.284  0.00  0.00    +0.173 A 
ATOM     13  C   UNL     1       8.088  -1.356  24.753  0.00  0.00    +0.061 A 
ATOM     14  C   UNL     1       8.520  -2.671  24.532  0.00  0.00    +0.025 A 
ATOM     15  C   UNL     1       9.643  -2.865  23.713  0.00  0.00    +0.015 A 
ATOM     16  C   UNL     1      10.342  -1.770  23.180  0.00  0.00    +0.050 A 
ATOM     17  C   UNL     1       9.935  -0.474  23.475  0.00  0.00    +0.159 A 
BRANCH  17  18
ATOM     18  O   UNL     1      10.641   0.558  22.935  0.00  0.00    -0.503 OA
ATOM     19  H   UNL     1      11.080   0.226  22.132  0.00  0.00    +0.292 HD
ENDBRANCH  17  18
BRANCH  12  20
ATOM     20  O   UNL     1       8.389   1.043  24.535  0.00  0.00    -0.421 OA
BRANCH  20  21
ATOM     21  C   UNL     1       7.522   1.564  23.572  0.00  0.00    +0.329 C 
ATOM     22  O   UNL     1       6.451   1.069  23.229  0.00  0.00    -0.249 OA
BRANCH  21  24
ATOM     23  C   UNL     1       9.056   3.528  23.974  0.00  0.00    +0.036 C 
ATOM     24  C   UNL     1       8.106   2.860  22.985  0.00  0.00    +0.158 C 
BRANCH  24  25
ATOM     25  N   UNL     1       8.862   2.571  21.740  0.00  0.00    -0.319 NA
ATOM     26  H   UNL     1       9.435   3.385  21.505  0.00  0.00    +0.119 HD
ATOM     27  H   UNL     1       9.546   1.838  21.946  0.00  0.00    +0.119 HD
ENDBRANCH  24  25
ENDBRANCH  21  24
ENDBRANCH  20  21
ENDBRANCH  12  20
ENDBRANCH   1  14
BRANCH   5  28
ATOM     28  O   UNL     1       5.085  -7.384  27.559  0.00  0.00    -0.506 OA
ATOM     29  H   UNL     1       4.837  -8.330  27.439  0.00  0.00    +0.292 HD
ENDBRANCH   5  28
BRANCH   7  30
ATOM     30  O   UNL     1       2.998  -6.963  23.312  0.00  0.00    -0.507 OA
ATOM     31  H   UNL     1       2.840  -6.225  22.698  0.00  0.00    +0.292 HD
ENDBRANCH   7  30
BRANCH  11  32
ATOM     32  O   UNL     1       9.092  -4.055  27.109  0.00  0.00    -0.501 OA
ATOM     33  H   UNL     1       9.828  -3.712  26.572  0.00  0.00    +0.292 HD
ENDBRANCH  11  32
TORSDOF 9
ENDMDL
MODEL 2
REMARK VINA RESULT:      -7.2      2.545      2.991
REMARK  Name = 
REMARK  10 active torsions:
REMARK  status: ('A' for Active; 'I' for Inactive)
REMARK    1  A    between atoms: C_1  and  C_2
REMARK    2  A    between atoms: C_2  and  C_4
REMARK    3  A    between atoms: C_2  and  N_28
REMARK    4  A    between atoms: C_4  and  O_6
REMARK    5  A    between atoms: O_6  and  C_7
REMARK    6  A    between atoms: C_8  and  O_27
REMARK    7  A    between atoms: C_11  and  C_13
REMARK    8  A    between atoms: C_14  and  O_26
REMARK    9  A    between atoms: C_18  and  O_25
REMARK   10  A    between atoms: C_20  and  O_24
REMARK                            x       y       z     vdW  Elec       q    Type
REMARK                         _______ _______ _______ _____ _____    ______ ____
ROOT
ATOM      1  C   UNL     1       8.459  -2.077  24.611  0.00  0.00    +0.181 A 
ATOM      2  O   UNL     1       7.262  -1.849  25.277  0.00  0.00    -0.451 OA
ATOM      3  C   UNL     1       6.791  -2.803  26.140  0.00  0.00    +0.147 A 
ATOM      4  C   UNL     1       7.490  -3.969  26.432  0.00  0.00    +0.109 A 
ATOM      5  C   UNL     1       6.972  -4.886  27.355  0.00  0.00    +0.135 A 
ATOM      6  C   UNL     1       5.748  -4.647  27.971  0.00  0.00    +0.091 A 
ATOM      7  C   UNL     1       5.047  -3.487  27.657  0.00  0.00    +0.124 A 
ATOM      8  C   UNL     1       8.758  -4.213  25.743  0.00  0.00    +0.238 A 
ATOM      9  O   UNL     1       9.410  -5.220  26.007  0.00  0.00    -0.283 OA
ATOM     10  C   UNL     1       5.560  -2.560  26.750  0.00  0.00    +0.092 A 
ATOM     11  C   UNL     1       9.193  -3.206  24.738  0.00  0.00    +0.208 A 
ENDROOT
BRANCH   1  14
ATOM     12  C   UNL     1       9.643   1.384  23.625  0.00  0.00    +0.173 A 
ATOM     13  C   UNL     1       9.195   0.298  24.382  0.00  0.00    +0.061 A 
ATOM     14  C   UNL     1       8.874  -0.924  23.776  0.00  0.00    +0.025 A 
ATOM     15  C   UNL     1       8.887  -0.986  22.374  0.00  0.00    +0.015 A 
ATOM     16  C   UNL     1       9.266   0.128  21.608  0.00  0.00    +0.050 A 
ATOM     17  C   UNL     1       9.651   1.306  22.237  0.00  0.00    +0.159 A 
BRANCH  17  18
ATOM     18  O   UNL     1      10.010   2.363  21.455  0.00  0.00    -0.503 OA
ATOM     19  H   UNL     1      10.933   2.225  21.181  0.00  0.00    +0.292 HD
ENDBRANCH  17  18
BRANCH  12  20
ATOM     20  O   UNL     1       9.983   2.591  24.251  0.00  0.00    -0.421 OA
BRANCH  20  21
ATOM     21  C   UNL     1       8.893   3.376  24.636  0.00  0.00    +0.329 C 
ATOM     22  O   UNL     1       8.006   3.037  25.416  0.00  0.00    -0.249 OA
BRANCH  21  24
ATOM     23  C   UNL     1      10.396   5.199  23.750  0.00  0.00    +0.036 C 
ATOM     24  C   UNL     1       8.953   4.742  23.931  0.00  0.00    +0.158 C 
BRANCH  24  25
ATOM     25  N   UNL     1       8.322   4.660  22.589  0.00  0.00    -0.319 NA
ATOM     26  H   UNL     1       8.987   5.000  21.890  0.00  0.00    +0.119 HD
ATOM     27  H   UNL     1       8.200   3.671  22.354  0.00  0.00    +0.119 HD
ENDBRANCH  24  25
ENDBRANCH  21  24
ENDBRANCH  20  21
ENDBRANCH  12  20
ENDBRANCH   1  14
BRANCH   5  28
ATOM     28  O   UNL     1       7.622  -6.040  27.704  0.00  0.00    -0.506 OA
ATOM     29  H   UNL     1       8.380  -5.801  28.286  0.00  0.00    +0.292 HD
ENDBRANCH   5  28
BRANCH   7  30
ATOM     30  O   UNL     1       3.838  -3.215  28.225  0.00  0.00    -0.507 OA
ATOM     31  H   UNL     1       3.935  -2.445  28.812  0.00  0.00    +0.292 HD
ENDBRANCH   7  30
BRANCH  11  32
ATOM     32  O   UNL     1      10.344  -3.503  24.031  0.00  0.00    -0.501 OA
ATOM     33  H   UNL     1      10.914  -2.715  23.973  0.00  0.00    +0.292 HD
ENDBRANCH  11  32
TORSDOF 9
ENDMDL
MODEL 3
REMARK VINA RESULT:      -7.2      1.780      3.240
REMARK  Name = 
REMARK  10 active torsions:
REMARK  status: ('A' for Active; 'I' for Inactive)
REMARK    1  A    between atoms: C_1  and  C_2
REMARK    2  A    between atoms: C_2  and  C_4
REMARK    3  A    between atoms: C_2  and  N_28
REMARK    4  A    between atoms: C_4  and  O_6
REMARK    5  A    between atoms: O_6  and  C_7
REMARK    6  A    between atoms: C_8  and  O_27
REMARK    7  A    between atoms: C_11  and  C_13
REMARK    8  A    between atoms: C_14  and  O_26
REMARK    9  A    between atoms: C_18  and  O_25
REMARK   10  A    between atoms: C_20  and  O_24
REMARK                            x       y       z     vdW  Elec       q    Type
REMARK                         _______ _______ _______ _____ _____    ______ ____
ROOT
ATOM      1  C   UNL     1       6.858  -2.629  23.282  0.00  0.00    +0.181 A 
ATOM      2  O   UNL     1       7.163  -2.913  24.606  0.00  0.00    -0.451 OA
ATOM      3  C   UNL     1       6.613  -4.024  25.190  0.00  0.00    +0.147 A 
ATOM      4  C   UNL     1       5.808  -4.922  24.497  0.00  0.00    +0.109 A 
ATOM      5  C   UNL     1       5.310  -6.061  25.142  0.00  0.00    +0.135 A 
ATOM      6  C   UNL     1       5.599  -6.291  26.483  0.00  0.00    +0.091 A 
ATOM      7  C   UNL     1       6.389  -5.376  27.172  0.00  0.00    +0.124 A 
ATOM      8  C   UNL     1       5.490  -4.636  23.098  0.00  0.00    +0.238 A 
ATOM      9  O   UNL     1       4.809  -5.430  22.454  0.00  0.00    -0.283 OA
ATOM     10  C   UNL     1       6.903  -4.246  26.537  0.00  0.00    +0.092 A 
ATOM     11  C   UNL     1       6.021  -3.371  22.522  0.00  0.00    +0.208 A 
ENDROOT
BRANCH   1  14
ATOM     12  C   UNL     1       7.801   0.978  22.611  0.00  0.00    +0.173 A 
ATOM     13  C   UNL     1       7.103  -0.156  23.033  0.00  0.00    +0.061 A 
ATOM     14  C   UNL     1       7.588  -1.444  22.771  0.00  0.00    +0.025 A 
ATOM     15  C   UNL     1       8.726  -1.565  21.958  0.00  0.00    +0.015 A 
ATOM     16  C   UNL     1       9.387  -0.425  21.473  0.00  0.00    +0.050 A 
ATOM     17  C   UNL     1       8.927   0.843  21.808  0.00  0.00    +0.159 A 
BRANCH  17  18
ATOM     18  O   UNL     1       9.598   1.921  21.314  0.00  0.00    -0.503 OA
ATOM     19  H   UNL     1      10.550   1.743  21.410  0.00  0.00    +0.292 HD
ENDBRANCH  17  18
BRANCH  12  20
ATOM     20  O   UNL     1       7.312   2.260  22.904  0.00  0.00    -0.421 OA
BRANCH  20  21
ATOM     21  C   UNL     1       7.930   2.886  23.989  0.00  0.00    +0.329 C 
ATOM     22  O   UNL     1       8.153   2.371  25.082  0.00  0.00    -0.249 OA
BRANCH  21  24
ATOM     23  C   UNL     1       9.766   4.616  23.896  0.00  0.00    +0.036 C 
ATOM     24  C   UNL     1       8.292   4.336  23.623  0.00  0.00    +0.158 C 
BRANCH  24  25
ATOM     25  N   UNL     1       8.032   4.587  22.183  0.00  0.00    -0.319 NA
ATOM     26  H   UNL     1       7.207   4.053  21.898  0.00  0.00    +0.119 HD
ATOM     27  H   UNL     1       7.744   5.564  22.077  0.00  0.00    +0.119 HD
ENDBRANCH  24  25
ENDBRANCH  21  24
ENDBRANCH  20  21
ENDBRANCH  12  20
ENDBRANCH   1  14
BRANCH   5  28
ATOM     28  O   UNL     1       4.533  -6.995  24.510  0.00  0.00    -0.506 OA
ATOM     29  H   UNL     1       3.599  -6.684  24.537  0.00  0.00    +0.292 HD
ENDBRANCH   5  28
BRANCH   7  30
ATOM     30  O   UNL     1       6.689  -5.553  28.490  0.00  0.00    -0.507 OA
ATOM     31  H   UNL     1       5.904  -5.336  29.022  0.00  0.00    +0.292 HD
ENDBRANCH   7  30
BRANCH  11  32
ATOM     32  O   UNL     1       5.629  -3.075  21.228  0.00  0.00    -0.501 OA
ATOM     33  H   UNL     1       4.866  -2.471  21.239  0.00  0.00    +0.292 HD
ENDBRANCH  11  32
TORSDOF 9
ENDMDL
MODEL 4
REMARK VINA RESULT:      -7.2      2.753      4.515
REMARK  Name = 
REMARK  10 active torsions:
REMARK  status: ('A' for Active; 'I' for Inactive)
REMARK    1  A    between atoms: C_1  and  C_2
REMARK    2  A    between atoms: C_2  and  C_4
REMARK    3  A    between atoms: C_2  and  N_28
REMARK    4  A    between atoms: C_4  and  O_6
REMARK    5  A    between atoms: O_6  and  C_7
REMARK    6  A    between atoms: C_8  and  O_27
REMARK    7  A    between atoms: C_11  and  C_13
REMARK    8  A    between atoms: C_14  and  O_26
REMARK    9  A    between atoms: C_18  and  O_25
REMARK   10  A    between atoms: C_20  and  O_24
REMARK                            x       y       z     vdW  Elec       q    Type
REMARK                         _______ _______ _______ _____ _____    ______ ____
ROOT
ATOM      1  C   UNL     1       8.145  -0.355  22.970  0.00  0.00    +0.181 A 
ATOM      2  O   UNL     1       6.919  -0.981  22.789  0.00  0.00    -0.451 OA
ATOM      3  C   UNL     1       6.835  -2.338  22.960  0.00  0.00    +0.147 A 
ATOM      4  C   UNL     1       7.912  -3.116  23.372  0.00  0.00    +0.109 A 
ATOM      5  C   UNL     1       7.749  -4.493  23.569  0.00  0.00    +0.135 A 
ATOM      6  C   UNL     1       6.518  -5.095  23.334  0.00  0.00    +0.091 A 
ATOM      7  C   UNL     1       5.451  -4.310  22.903  0.00  0.00    +0.124 A 
ATOM      8  C   UNL     1       9.206  -2.463  23.576  0.00  0.00    +0.238 A 
ATOM      9  O   UNL     1      10.164  -3.122  23.971  0.00  0.00    -0.283 OA
ATOM     10  C   UNL     1       5.598  -2.936  22.719  0.00  0.00    +0.092 A 
ATOM     11  C   UNL     1       9.288  -1.007  23.285  0.00  0.00    +0.208 A 
ENDROOT
BRANCH   1  14
ATOM     12  C   UNL     1       8.824   3.335  23.487  0.00  0.00    +0.173 A 
ATOM     13  C   UNL     1       8.845   1.947  23.639  0.00  0.00    +0.061 A 
ATOM     14  C   UNL     1       8.059   1.118  22.827  0.00  0.00    +0.025 A 
ATOM     15  C   UNL     1       7.151   1.728  21.947  0.00  0.00    +0.015 A 
ATOM     16  C   UNL     1       7.077   3.127  21.847  0.00  0.00    +0.050 A 
ATOM     17  C   UNL     1       7.920   3.925  22.611  0.00  0.00    +0.159 A 
BRANCH  17  18
ATOM     18  O   UNL     1       7.814   5.277  22.483  0.00  0.00    -0.503 OA
ATOM     19  H   UNL     1       6.902   5.523  22.717  0.00  0.00    +0.292 HD
ENDBRANCH  17  18
BRANCH  12  20
ATOM     20  O   UNL     1       9.636   4.147  24.292  0.00  0.00    -0.421 OA
BRANCH  20  21
ATOM     21  C   UNL     1      10.902   4.411  23.765  0.00  0.00    +0.329 C 
ATOM     22  O   UNL     1      11.665   3.578  23.282  0.00  0.00    -0.249 OA
BRANCH  21  24
ATOM     23  C   UNL     1      10.327   6.578  24.925  0.00  0.00    +0.036 C 
ATOM     24  C   UNL     1      11.218   5.912  23.882  0.00  0.00    +0.158 C 
BRANCH  24  25
ATOM     25  N   UNL     1      12.633   6.114  24.284  0.00  0.00    -0.319 NA
ATOM     26  H   UNL     1      12.854   7.111  24.226  0.00  0.00    +0.119 HD
ATOM     27  H   UNL     1      12.713   5.901  25.282  0.00  0.00    +0.119 HD
ENDBRANCH  24  25
ENDBRANCH  21  24
ENDBRANCH  20  21
ENDBRANCH  12  20
ENDBRANCH   1  14
BRANCH   5  28
ATOM     28  O   UNL     1       8.762  -5.309  23.995  0.00  0.00    -0.506 OA
ATOM     29  H   UNL     1       8.625  -6.200  23.598  0.00  0.00    +0.292 HD
ENDBRANCH   5  28
BRANCH   7  30
ATOM     30  O   UNL     1       4.229  -4.857  22.650  0.00  0.00    -0.507 OA
ATOM     31  H   UNL     1       3.739  -4.265  22.053  0.00  0.00    +0.292 HD
ENDBRANCH   7  30
BRANCH  11  32
ATOM     32  O   UNL     1      10.542  -0.430  23.393  0.00  0.00    -0.501 OA
ATOM     33  H   UNL     1      11.232  -1.105  23.264  0.00  0.00    +0.292 HD
ENDBRANCH  11  32
TORSDOF 9
ENDMDL
MODEL 5
REMARK VINA RESULT:      -7.0      1.356      1.594
REMARK  Name = 
REMARK  10 active torsions:
REMARK  status: ('A' for Active; 'I' for Inactive)
REMARK    1  A    between atoms: C_1  and  C_2
REMARK    2  A    between atoms: C_2  and  C_4
REMARK    3  A    between atoms: C_2  and  N_28
REMARK    4  A    between atoms: C_4  and  O_6
REMARK    5  A    between atoms: O_6  and  C_7
REMARK    6  A    between atoms: C_8  and  O_27
REMARK    7  A    between atoms: C_11  and  C_13
REMARK    8  A    between atoms: C_14  and  O_26
REMARK    9  A    between atoms: C_18  and  O_25
REMARK   10  A    between atoms: C_20  and  O_24
REMARK                            x       y       z     vdW  Elec       q    Type
REMARK                         _______ _______ _______ _____ _____    ______ ____
ROOT
ATOM      1  C   UNL     1       7.405  -2.972  23.891  0.00  0.00    +0.181 A 
ATOM      2  O   UNL     1       6.352  -3.559  23.201  0.00  0.00    -0.451 OA
ATOM      3  C   UNL     1       5.716  -4.639  23.755  0.00  0.00    +0.147 A 
ATOM      4  C   UNL     1       6.034  -5.140  25.012  0.00  0.00    +0.109 A 
ATOM      5  C   UNL     1       5.318  -6.222  25.539  0.00  0.00    +0.135 A 
ATOM      6  C   UNL     1       4.298  -6.815  24.801  0.00  0.00    +0.091 A 
ATOM      7  C   UNL     1       4.001  -6.317  23.535  0.00  0.00    +0.124 A 
ATOM      8  C   UNL     1       7.135  -4.522  25.751  0.00  0.00    +0.238 A 
ATOM      9  O   UNL     1       7.415  -4.925  26.877  0.00  0.00    -0.283 OA
ATOM     10  C   UNL     1       4.698  -5.231  23.008  0.00  0.00    +0.092 A 
ATOM     11  C   UNL     1       7.871  -3.416  25.081  0.00  0.00    +0.208 A 
ENDROOT
BRANCH   1  14
ATOM     12  C   UNL     1       7.873   0.638  22.844  0.00  0.00    +0.173 A 
ATOM     13  C   UNL     1       7.357  -0.517  23.436  0.00  0.00    +0.061 A 
ATOM     14  C   UNL     1       7.937  -1.771  23.203  0.00  0.00    +0.025 A 
ATOM     15  C   UNL     1       8.969  -1.853  22.255  0.00  0.00    +0.015 A 
ATOM     16  C   UNL     1       9.440  -0.701  21.605  0.00  0.00    +0.050 A 
ATOM     17  C   UNL     1       8.896   0.542  21.909  0.00  0.00    +0.159 A 
BRANCH  17  18
ATOM     18  O   UNL     1       9.382   1.632  21.252  0.00  0.00    -0.503 OA
ATOM     19  H   UNL     1       9.113   2.421  21.755  0.00  0.00    +0.292 HD
ENDBRANCH  17  18
BRANCH  12  20
ATOM     20  O   UNL     1       7.294   1.888  23.109  0.00  0.00    -0.421 OA
BRANCH  20  21
ATOM     21  C   UNL     1       7.900   2.604  24.143  0.00  0.00    +0.329 C 
ATOM     22  O   UNL     1       8.089   2.192  25.285  0.00  0.00    -0.249 OA
BRANCH  21  24
ATOM     23  C   UNL     1       9.802   4.224  23.780  0.00  0.00    +0.036 C 
ATOM     24  C   UNL     1       8.298   4.006  23.650  0.00  0.00    +0.158 C 
BRANCH  24  25
ATOM     25  N   UNL     1       7.927   4.177  22.222  0.00  0.00    -0.319 NA
ATOM     26  H   UNL     1       6.999   4.607  22.170  0.00  0.00    +0.119 HD
ATOM     27  H   UNL     1       8.548   4.881  21.814  0.00  0.00    +0.119 HD
ENDBRANCH  24  25
ENDBRANCH  21  24
ENDBRANCH  20  21
ENDBRANCH  12  20
ENDBRANCH   1  14
BRANCH   5  28
ATOM     28  O   UNL     1       5.566  -6.747  26.779  0.00  0.00    -0.506 OA
ATOM     29  H   UNL     1       6.203  -7.491  26.674  0.00  0.00    +0.292 HD
ENDBRANCH   5  28
BRANCH   7  30
ATOM     30  O   UNL     1       3.019  -6.872  22.771  0.00  0.00    -0.507 OA
ATOM     31  H   UNL     1       2.988  -7.829  22.946  0.00  0.00    +0.292 HD
ENDBRANCH   7  30
BRANCH  11  32
ATOM     32  O   UNL     1       8.967  -2.910  25.758  0.00  0.00    -0.501 OA
ATOM     33  H   UNL     1       8.807  -1.982  26.007  0.00  0.00    +0.292 HD
ENDBRANCH  11  32
TORSDOF 9
ENDMDL
MODEL 6
REMARK VINA RESULT:      -7.0      2.838      7.910
REMARK  Name = 
REMARK  10 active torsions:
REMARK  status: ('A' for Active; 'I' for Inactive)
REMARK    1  A    between atoms: C_1  and  C_2
REMARK    2  A    between atoms: C_2  and  C_4
REMARK    3  A    between atoms: C_2  and  N_28
REMARK    4  A    between atoms: C_4  and  O_6
REMARK    5  A    between atoms: O_6  and  C_7
REMARK    6  A    between atoms: C_8  and  O_27
REMARK    7  A    between atoms: C_11  and  C_13
REMARK    8  A    between atoms: C_14  and  O_26
REMARK    9  A    between atoms: C_18  and  O_25
REMARK   10  A    between atoms: C_20  and  O_24
REMARK                            x       y       z     vdW  Elec       q    Type
REMARK                         _______ _______ _______ _____ _____    ______ ____
ROOT
ATOM      1  C   UNL     1       7.890  -1.968  24.106  0.00  0.00    +0.181 A 
ATOM      2  O   UNL     1       6.960  -0.940  24.017  0.00  0.00    -0.451 OA
ATOM      3  C   UNL     1       7.319   0.227  23.393  0.00  0.00    +0.147 A 
ATOM      4  C   UNL     1       8.557   0.409  22.786  0.00  0.00    +0.109 A 
ATOM      5  C   UNL     1       8.847   1.611  22.129  0.00  0.00    +0.135 A 
ATOM      6  C   UNL     1       7.908   2.638  22.097  0.00  0.00    +0.091 A 
ATOM      7  C   UNL     1       6.680   2.452  22.726  0.00  0.00    +0.124 A 
ATOM      8  C   UNL     1       9.539  -0.673  22.865  0.00  0.00    +0.238 A 
ATOM      9  O   UNL     1      10.627  -0.550  22.309  0.00  0.00    -0.283 OA
ATOM     10  C   UNL     1       6.375   1.254  23.369  0.00  0.00    +0.092 A 
ATOM     11  C   UNL     1       9.155  -1.888  23.634  0.00  0.00    +0.208 A 
ENDROOT
BRANCH   1  14
ATOM     12  C   UNL     1       6.091  -5.276  24.521  0.00  0.00    +0.173 A 
ATOM     13  C   UNL     1       6.583  -4.091  23.967  0.00  0.00    +0.061 A 
ATOM     14  C   UNL     1       7.329  -3.188  24.735  0.00  0.00    +0.025 A 
ATOM     15  C   UNL     1       7.456  -3.442  26.110  0.00  0.00    +0.015 A 
ATOM     16  C   UNL     1       6.899  -4.596  26.682  0.00  0.00    +0.050 A 
ATOM     17  C   UNL     1       6.225  -5.514  25.883  0.00  0.00    +0.159 A 
BRANCH  17  18
ATOM     18  O   UNL     1       5.699  -6.619  26.481  0.00  0.00    -0.503 OA
ATOM     19  H   UNL     1       5.284  -6.334  27.313  0.00  0.00    +0.292 HD
ENDBRANCH  17  18
BRANCH  12  20
ATOM     20  O   UNL     1       5.366  -6.179  23.730  0.00  0.00    -0.421 OA
BRANCH  20  21
ATOM     21  C   UNL     1       4.091  -5.741  23.364  0.00  0.00    +0.329 C 
ATOM     22  O   UNL     1       3.844  -4.779  22.641  0.00  0.00    -0.249 OA
BRANCH  21  24
ATOM     23  C   UNL     1       1.887  -6.925  23.030  0.00  0.00    +0.036 C 
ATOM     24  C   UNL     1       3.021  -6.639  24.009  0.00  0.00    +0.158 C 
BRANCH  24  25
ATOM     25  N   UNL     1       3.614  -7.936  24.422  0.00  0.00    -0.319 NA
ATOM     26  H   UNL     1       2.862  -8.563  24.721  0.00  0.00    +0.119 HD
ATOM     27  H   UNL     1       3.998  -8.390  23.590  0.00  0.00    +0.119 HD
ENDBRANCH  24  25
ENDBRANCH  21  24
ENDBRANCH  20  21
ENDBRANCH  12  20
ENDBRANCH   1  14
BRANCH   5  28
ATOM     28  O   UNL     1      10.036   1.844  21.492  0.00  0.00    -0.506 OA
ATOM     29  H   UNL     1      10.765   1.565  22.093  0.00  0.00    +0.292 HD
ENDBRANCH   5  28
BRANCH   7  30
ATOM     30  O   UNL     1       5.734   3.433  22.731  0.00  0.00    -0.507 OA
ATOM     31  H   UNL     1       5.465   3.603  23.651  0.00  0.00    +0.292 HD
ENDBRANCH   7  30
BRANCH  11  32
ATOM     32  O   UNL     1      10.132  -2.857  23.777  0.00  0.00    -0.501 OA
ATOM     33  H   UNL     1      10.543  -3.047  22.915  0.00  0.00    +0.292 HD
ENDBRANCH  11  32
TORSDOF 9
ENDMDL
MODEL 7
REMARK VINA RESULT:      -6.9      2.954      9.100
REMARK  Name = 
REMARK  10 active torsions:
REMARK  status: ('A' for Active; 'I' for Inactive)
REMARK    1  A    between atoms: C_1  and  C_2
REMARK    2  A    between atoms: C_2  and  C_4
REMARK    3  A    between atoms: C_2  and  N_28
REMARK    4  A    between atoms: C_4  and  O_6
REMARK    5  A    between atoms: O_6  and  C_7
REMARK    6  A    between atoms: C_8  and  O_27
REMARK    7  A    between atoms: C_11  and  C_13
REMARK    8  A    between atoms: C_14  and  O_26
REMARK    9  A    between atoms: C_18  and  O_25
REMARK   10  A    between atoms: C_20  and  O_24
REMARK                            x       y       z     vdW  Elec       q    Type
REMARK                         _______ _______ _______ _____ _____    ______ ____
ROOT
ATOM      1  C   UNL     1       9.027   1.500  23.522  0.00  0.00    +0.181 A 
ATOM      2  O   UNL     1      10.342   1.945  23.466  0.00  0.00    -0.451 OA
ATOM      3  C   UNL     1      10.590   3.292  23.528  0.00  0.00    +0.147 A 
ATOM      4  C   UNL     1       9.587   4.237  23.708  0.00  0.00    +0.109 A 
ATOM      5  C   UNL     1       9.911   5.596  23.804  0.00  0.00    +0.135 A 
ATOM      6  C   UNL     1      11.234   6.010  23.699  0.00  0.00    +0.091 A 
ATOM      7  C   UNL     1      12.229   5.057  23.498  0.00  0.00    +0.124 A 
ATOM      8  C   UNL     1       8.199   3.777  23.779  0.00  0.00    +0.238 A 
ATOM      9  O   UNL     1       7.297   4.588  23.971  0.00  0.00    -0.283 OA
ATOM     10  C   UNL     1      11.919   3.701  23.417  0.00  0.00    +0.092 A 
ATOM     11  C   UNL     1       7.954   2.319  23.609  0.00  0.00    +0.208 A 
ENDROOT
BRANCH   1  14
ATOM     12  C   UNL     1       8.788  -2.068  24.770  0.00  0.00    +0.173 A 
ATOM     13  C   UNL     1       8.937  -0.679  24.737  0.00  0.00    +0.061 A 
ATOM     14  C   UNL     1       8.927   0.021  23.524  0.00  0.00    +0.025 A 
ATOM     15  C   UNL     1       8.897  -0.724  22.334  0.00  0.00    +0.015 A 
ATOM     16  C   UNL     1       8.821  -2.126  22.366  0.00  0.00    +0.050 A 
ATOM     17  C   UNL     1       8.758  -2.792  23.584  0.00  0.00    +0.159 A 
BRANCH  17  18
ATOM     18  O   UNL     1       8.687  -4.153  23.569  0.00  0.00    -0.503 OA
ATOM     19  H   UNL     1       9.475  -4.482  23.103  0.00  0.00    +0.292 HD
ENDBRANCH  17  18
BRANCH  12  20
ATOM     20  O   UNL     1       8.775  -2.749  25.996  0.00  0.00    -0.421 OA
BRANCH  20  21
ATOM     21  C   UNL     1       7.506  -3.125  26.442  0.00  0.00    +0.329 C 
ATOM     22  O   UNL     1       6.523  -2.391  26.506  0.00  0.00    -0.249 OA
BRANCH  21  24
ATOM     23  C   UNL     1       6.496  -5.403  26.039  0.00  0.00    +0.036 C 
ATOM     24  C   UNL     1       7.510  -4.607  26.854  0.00  0.00    +0.158 C 
BRANCH  24  25
ATOM     25  N   UNL     1       8.852  -5.203  26.632  0.00  0.00    -0.319 NA
ATOM     26  H   UNL     1       8.801  -6.209  26.811  0.00  0.00    +0.119 HD
ATOM     27  H   UNL     1       9.067  -5.140  25.633  0.00  0.00    +0.119 HD
ENDBRANCH  24  25
ENDBRANCH  21  24
ENDBRANCH  20  21
ENDBRANCH  12  20
ENDBRANCH   1  14
BRANCH   5  28
ATOM     28  O   UNL     1       8.974   6.573  24.006  0.00  0.00    -0.506 OA
ATOM     29  H   UNL     1       9.214   7.064  24.826  0.00  0.00    +0.292 HD
ENDBRANCH   5  28
BRANCH   7  30
ATOM     30  O   UNL     1      13.538   5.417  23.377  0.00  0.00    -0.507 OA
ATOM     31  H   UNL     1      14.084   4.778  23.868  0.00  0.00    +0.292 HD
ENDBRANCH   7  30
BRANCH  11  32
ATOM     32  O   UNL     1       6.630   1.919  23.585  0.00  0.00    -0.501 OA
ATOM     33  H   UNL     1       6.557   1.027  23.201  0.00  0.00    +0.292 HD
ENDBRANCH  11  32
TORSDOF 9
ENDMDL
MODEL 8
REMARK VINA RESULT:      -6.9      2.649      7.803
REMARK  Name = 
REMARK  10 active torsions:
REMARK  status: ('A' for Active; 'I' for Inactive)
REMARK    1  A    between atoms: C_1  and  C_2
REMARK    2  A    between atoms: C_2  and  C_4
REMARK    3  A    between atoms: C_2  and  N_28
REMARK    4  A    between atoms: C_4  and  O_6
REMARK    5  A    between atoms: O_6  and  C_7
REMARK    6  A    between atoms: C_8  and  O_27
REMARK    7  A    between atoms: C_11  and  C_13
REMARK    8  A    between atoms: C_14  and  O_26
REMARK    9  A    between atoms: C_18  and  O_25
REMARK   10  A    between atoms: C_20  and  O_24
REMARK                            x       y       z     vdW  Elec       q    Type
REMARK                         _______ _______ _______ _____ _____    ______ ____
ROOT
ATOM      1  C   UNL     1       7.710  -1.827  23.289  0.00  0.00    +0.181 A 
ATOM      2  O   UNL     1       6.866  -0.789  22.914  0.00  0.00    -0.451 OA
ATOM      3  C   UNL     1       7.387   0.471  22.771  0.00  0.00    +0.147 A 
ATOM      4  C   UNL     1       8.741   0.750  22.923  0.00  0.00    +0.109 A 
ATOM      5  C   UNL     1       9.216   2.052  22.723  0.00  0.00    +0.135 A 
ATOM      6  C   UNL     1       8.336   3.077  22.392  0.00  0.00    +0.091 A 
ATOM      7  C   UNL     1       6.980   2.790  22.262  0.00  0.00    +0.124 A 
ATOM      8  C   UNL     1       9.639  -0.339  23.307  0.00  0.00    +0.238 A 
ATOM      9  O   UNL     1      10.844  -0.126  23.416  0.00  0.00    -0.283 OA
ATOM     10  C   UNL     1       6.499   1.495  22.444  0.00  0.00    +0.092 A 
ATOM     11  C   UNL     1       9.028  -1.673  23.552  0.00  0.00    +0.208 A 
ENDROOT
BRANCH   1  14
ATOM     12  C   UNL     1       5.541  -4.697  24.476  0.00  0.00    +0.173 A 
ATOM     13  C   UNL     1       6.248  -3.492  24.440  0.00  0.00    +0.061 A 
ATOM     14  C   UNL     1       7.018  -3.138  23.324  0.00  0.00    +0.025 A 
ATOM     15  C   UNL     1       7.167  -4.085  22.300  0.00  0.00    +0.015 A 
ATOM     16  C   UNL     1       6.515  -5.327  22.369  0.00  0.00    +0.050 A 
ATOM     17  C   UNL     1       5.697  -5.625  23.453  0.00  0.00    +0.159 A 
BRANCH  17  18
ATOM     18  O   UNL     1       5.085  -6.842  23.480  0.00  0.00    -0.503 OA
ATOM     19  H   UNL     1       5.782  -7.520  23.517  0.00  0.00    +0.292 HD
ENDBRANCH  17  18
BRANCH  12  20
ATOM     20  O   UNL     1       4.756  -5.023  25.591  0.00  0.00    -0.421 OA
BRANCH  20  21
ATOM     21  C   UNL     1       5.348  -5.927  26.477  0.00  0.00    +0.329 C 
ATOM     22  O   UNL     1       5.171  -7.142  26.485  0.00  0.00    -0.249 OA
BRANCH  21  24
ATOM     23  C   UNL     1       5.698  -5.233  28.878  0.00  0.00    +0.036 C 
ATOM     24  C   UNL     1       6.261  -5.176  27.461  0.00  0.00    +0.158 C 
BRANCH  24  25
ATOM     25  N   UNL     1       7.616  -5.782  27.477  0.00  0.00    -0.319 NA
ATOM     26  H   UNL     1       8.262  -5.136  27.937  0.00  0.00    +0.119 HD
ATOM     27  H   UNL     1       7.594  -6.595  28.098  0.00  0.00    +0.119 HD
ENDBRANCH  24  25
ENDBRANCH  21  24
ENDBRANCH  20  21
ENDBRANCH  12  20
ENDBRANCH   1  14
BRANCH   5  28
ATOM     28  O   UNL     1      10.539   2.388  22.833  0.00  0.00    -0.506 OA
ATOM     29  H   UNL     1      10.943   2.336  21.936  0.00  0.00    +0.292 HD
ENDBRANCH   5  28
BRANCH   7  30
ATOM     30  O   UNL     1       6.078   3.763  21.950  0.00  0.00    -0.507 OA
ATOM     31  H   UNL     1       5.590   4.007  22.756  0.00  0.00    +0.292 HD
ENDBRANCH   7  30
BRANCH  11  32
ATOM     32  O   UNL     1       9.881  -2.665  24.006  0.00  0.00    -0.501 OA
ATOM     33  H   UNL     1      10.357  -3.065  23.257  0.00  0.00    +0.292 HD
ENDBRANCH  11  32
TORSDOF 9
ENDMDL
MODEL 9
REMARK VINA RESULT:      -6.7      2.864      8.365
REMARK  Name = 
REMARK  10 active torsions:
REMARK  status: ('A' for Active; 'I' for Inactive)
REMARK    1  A    between atoms: C_1  and  C_2
REMARK    2  A    between atoms: C_2  and  C_4
REMARK    3  A    between atoms: C_2  and  N_28
REMARK    4  A    between atoms: C_4  and  O_6
REMARK    5  A    between atoms: O_6  and  C_7
REMARK    6  A    between atoms: C_8  and  O_27
REMARK    7  A    between atoms: C_11  and  C_13
REMARK    8  A    between atoms: C_14  and  O_26
REMARK    9  A    between atoms: C_18  and  O_25
REMARK   10  A    between atoms: C_20  and  O_24
REMARK                            x       y       z     vdW  Elec       q    Type
REMARK                         _______ _______ _______ _____ _____    ______ ____
ROOT
ATOM      1  C   UNL     1       8.766   0.935  23.644  0.00  0.00    +0.181 A 
ATOM      2  O   UNL     1       7.547   1.506  23.303  0.00  0.00    -0.451 OA
ATOM      3  C   UNL     1       7.472   2.866  23.149  0.00  0.00    +0.147 A 
ATOM      4  C   UNL     1       8.578   3.701  23.255  0.00  0.00    +0.109 A 
ATOM      5  C   UNL     1       8.441   5.079  23.044  0.00  0.00    +0.135 A 
ATOM      6  C   UNL     1       7.196   5.623  22.749  0.00  0.00    +0.091 A 
ATOM      7  C   UNL     1       6.091   4.781  22.665  0.00  0.00    +0.124 A 
ATOM      8  C   UNL     1       9.870   3.107  23.603  0.00  0.00    +0.238 A 
ATOM      9  O   UNL     1      10.869   3.818  23.670  0.00  0.00    -0.283 OA
ATOM     10  C   UNL     1       6.219   3.406  22.857  0.00  0.00    +0.092 A 
ATOM     11  C   UNL     1       9.899   1.642  23.862  0.00  0.00    +0.208 A 
ENDROOT
BRANCH   1  14
ATOM     12  C   UNL     1       8.583  -2.591  25.016  0.00  0.00    +0.173 A 
ATOM     13  C   UNL     1       8.695  -1.201  24.936  0.00  0.00    +0.061 A 
ATOM     14  C   UNL     1       8.706  -0.545  23.697  0.00  0.00    +0.025 A 
ATOM     15  C   UNL     1       8.734  -1.333  22.536  0.00  0.00    +0.015 A 
ATOM     16  C   UNL     1       8.695  -2.735  22.617  0.00  0.00    +0.050 A 
ATOM     17  C   UNL     1       8.611  -3.358  23.857  0.00  0.00    +0.159 A 
BRANCH  17  18
ATOM     18  O   UNL     1       8.577  -4.720  23.889  0.00  0.00    -0.503 OA
ATOM     19  H   UNL     1       9.475  -5.031  24.099  0.00  0.00    +0.292 HD
ENDBRANCH  17  18
BRANCH  12  20
ATOM     20  O   UNL     1       8.550  -3.228  26.265  0.00  0.00    -0.421 OA
BRANCH  20  21
ATOM     21  C   UNL     1       7.267  -3.494  26.749  0.00  0.00    +0.329 C 
ATOM     22  O   UNL     1       6.373  -2.666  26.903  0.00  0.00    -0.249 OA
BRANCH  21  24
ATOM     23  C   UNL     1       6.058  -5.643  26.208  0.00  0.00    +0.036 C 
ATOM     24  C   UNL     1       7.129  -4.991  27.077  0.00  0.00    +0.158 C 
BRANCH  24  25
ATOM     25  N   UNL     1       8.413  -5.695  26.834  0.00  0.00    -0.319 NA
ATOM     26  H   UNL     1       8.289  -6.690  27.040  0.00  0.00    +0.119 HD
ATOM     27  H   UNL     1       8.604  -5.672  25.829  0.00  0.00    +0.119 HD
ENDBRANCH  24  25
ENDBRANCH  21  24
ENDBRANCH  20  21
ENDBRANCH  12  20
ENDBRANCH   1  14
BRANCH   5  28
ATOM     28  O   UNL     1       9.495   5.951  23.111  0.00  0.00    -0.506 OA
ATOM     29  H   UNL     1       9.635   6.190  24.056  0.00  0.00    +0.292 HD
ENDBRANCH   5  28
BRANCH   7  30
ATOM     30  O   UNL     1       4.849   5.270  22.389  0.00  0.00    -0.507 OA
ATOM     31  H   UNL     1       4.581   4.962  21.506  0.00  0.00    +0.292 HD
ENDBRANCH   7  30
BRANCH  11  32
ATOM     32  O   UNL     1      11.109   1.118  24.281  0.00  0.00    -0.501 OA
ATOM     33  H   UNL     1      11.232   0.224  23.914  0.00  0.00    +0.292 HD
ENDBRANCH  11  32
TORSDOF 9
ENDMDL
