MODEL 1
REMARK VINA RESULT:      -7.8      0.000      0.000
REMARK  Name = 
REMARK  22 active torsions:
REMARK  status: ('A' for Active; 'I' for Inactive)
REMARK    1  A    between atoms: C_1  and  C_2
REMARK    2  A    between atoms: C_4  and  O_68
REMARK    3  A    between atoms: C_6  and  O_67
REMARK    4  A    between atoms: C_8  and  O_66
REMARK    5  A    between atoms: C_10  and  O_13
REMARK    6  A    between atoms: O_13  and  C_14
REMARK    7  A    between atoms: C_14  and  C_15
REMARK    8  A    between atoms: C_17  and  O_65
REMARK    9  A    between atoms: C_19  and  O_64
REMARK   10  A    between atoms: C_21  and  O_63
REMARK   11  A    between atoms: C_23  and  O_26
REMARK   12  A    between atoms: O_26  and  C_27
REMARK   13  A    between atoms: C_28  and  C_55
REMARK   14  A    between atoms: C_32  and  O_39
REMARK   15  A    between atoms: C_34  and  O_38
REMARK   16  A    between atoms: O_39  and  C_40
REMARK   17  A    between atoms: C_42  and  O_54
REMARK   18  A    between atoms: C_44  and  O_53
REMARK   19  A    between atoms: C_46  and  O_52
REMARK   20  A    between atoms: C_48  and  C_51
REMARK   21  A    between atoms: C_57  and  O_62
REMARK   22  A    between atoms: C_58  and  O_61
REMARK                            x       y       z     vdW  Elec       q    Type
REMARK                         _______ _______ _______ _____ _____    ______ ____
ROOT
ATOM      1  C   UNL     1       5.719   3.032  25.838  0.00  0.00    +0.214 A 
ATOM      2  C   UNL     1       6.344   2.164  26.913  0.00  0.00    +0.238 A 
ATOM      3  O   UNL     1       6.977   2.583  27.876  0.00  0.00    -0.283 OA
ATOM      4  C   UNL     1       6.107   0.736  26.872  0.00  0.00    +0.109 A 
ATOM      5  C   UNL     1       4.911   0.363  26.306  0.00  0.00    +0.147 A 
ATOM      6  C   UNL     1       4.490  -0.960  26.408  0.00  0.00    +0.093 A 
ATOM      7  C   UNL     1       5.308  -1.918  27.008  0.00  0.00    +0.131 A 
ATOM      8  C   UNL     1       6.526  -1.542  27.570  0.00  0.00    +0.092 A 
ATOM      9  O   UNL     1       4.096   1.253  25.674  0.00  0.00    -0.451 OA
ATOM     10  C   UNL     1       6.926  -0.208  27.496  0.00  0.00    +0.135 A 
ATOM     11  C   UNL     1       4.588   2.511  25.288  0.00  0.00    +0.181 A 
ENDROOT
BRANCH  11  12
ATOM     12  C   UNL     1       3.619   3.136  24.298  0.00  0.00    +0.025 A 
ATOM     13  C   UNL     1       2.415   3.706  24.804  0.00  0.00    +0.015 A 
ATOM     14  C   UNL     1       1.529   4.445  24.015  0.00  0.00    +0.050 A 
ATOM     15  C   UNL     1       1.808   4.610  22.678  0.00  0.00    +0.158 A 
ATOM     16  C   UNL     1       2.921   3.982  22.122  0.00  0.00    +0.159 A 
ATOM     17  C   UNL     1       3.826   3.254  22.912  0.00  0.00    +0.060 A 
BRANCH  16  18
ATOM     18  O   UNL     1       3.083   4.119  20.769  0.00  0.00    -0.503 OA
ATOM     19  H   UNL     1       2.233   4.434  20.404  0.00  0.00    +0.292 HD
ENDBRANCH  16  18
BRANCH  15  20
ATOM     20  O   UNL     1       0.991   5.394  21.921  0.00  0.00    -0.503 OA
ATOM     21  H   UNL     1       0.953   6.247  22.398  0.00  0.00    +0.292 HD
ENDBRANCH  15  20
ENDBRANCH  11  12
BRANCH  10  22
ATOM     22  O   UNL     1       8.142   0.149  28.006  0.00  0.00    -0.506 OA
ATOM     23  H   UNL     1       8.057   1.009  28.452  0.00  0.00    +0.292 HD
ENDBRANCH  10  22
BRANCH   7  24
ATOM     24  O   UNL     1       4.995  -3.256  27.076  0.00  0.00    -0.461 OA
BRANCH  24  25
ATOM     25  C   UNL     1       6.096  -4.112  26.751  0.00  0.00    +0.339 C 
ATOM     26  O   UNL     1       6.011  -4.637  25.419  0.00  0.00    -0.334 OA
ATOM     27  C   UNL     1       4.894  -5.506  25.216  0.00  0.00    +0.150 C 
ATOM     28  C   UNL     1       4.878  -5.881  23.738  0.00  0.00    +0.041 C 
ATOM     29  C   UNL     1       5.008  -6.749  26.110  0.00  0.00    +0.174 C 
ATOM     30  C   UNL     1       5.141  -6.321  27.583  0.00  0.00    +0.180 C 
ATOM     31  C   UNL     1       6.233  -5.255  27.773  0.00  0.00    +0.214 C 
BRANCH  31  32
ATOM     32  O   UNL     1       7.535  -5.856  27.654  0.00  0.00    -0.383 OA
ATOM     33  H   UNL     1       8.044  -5.339  27.000  0.00  0.00    +0.210 HD
ENDBRANCH  31  32
BRANCH  30  34
ATOM     34  O   UNL     1       5.399  -7.477  28.391  0.00  0.00    -0.386 OA
ATOM     35  H   UNL     1       5.478  -7.193  29.319  0.00  0.00    +0.210 HD
ENDBRANCH  30  34
BRANCH  29  36
ATOM     36  O   UNL     1       3.879  -7.604  25.907  0.00  0.00    -0.387 OA
ATOM     37  H   UNL     1       3.085  -7.157  26.244  0.00  0.00    +0.210 HD
ENDBRANCH  29  36
ENDBRANCH  24  25
ENDBRANCH   7  24
BRANCH   1  38
ATOM     38  O   UNL     1       6.255   4.290  25.508  0.00  0.00    -0.453 OA
BRANCH  38  41
ATOM     39  C   UNL     1       9.216   2.856  23.992  0.00  0.00    +0.179 C 
ATOM     40  O   UNL     1       8.305   3.210  25.046  0.00  0.00    -0.331 OA
ATOM     41  C   UNL     1       7.393   4.227  24.614  0.00  0.00    +0.340 C 
ATOM     42  C   UNL     1       8.193   5.542  24.477  0.00  0.00    +0.214 C 
ATOM     43  C   UNL     1       9.312   5.272  23.431  0.00  0.00    +0.180 C 
ATOM     44  C   UNL     1      10.164   4.038  23.780  0.00  0.00    +0.177 C 
BRANCH  44  45
ATOM     45  O   UNL     1      11.072   3.805  22.691  0.00  0.00    -0.386 OA
ATOM     46  H   UNL     1      10.570   3.308  22.016  0.00  0.00    +0.210 HD
ENDBRANCH  44  45
BRANCH  43  47
ATOM     47  O   UNL     1      10.156   6.414  23.244  0.00  0.00    -0.386 OA
ATOM     48  H   UNL     1      10.765   6.159  22.527  0.00  0.00    +0.210 HD
ENDBRANCH  43  47
BRANCH  42  49
ATOM     49  O   UNL     1       7.325   6.597  24.023  0.00  0.00    -0.383 OA
ATOM     50  H   UNL     1       6.427   6.395  24.345  0.00  0.00    +0.210 HD
ENDBRANCH  42  49
BRANCH  39  51
ATOM     51  C   UNL     1       9.908   1.544  24.350  0.00  0.00    +0.197 C 
BRANCH  51  52
ATOM     52  O   UNL     1       9.023   0.750  25.126  0.00  0.00    -0.346 OA
BRANCH  52  56
ATOM     53  C   UNL     1       9.268  -3.575  24.551  0.00  0.00    +0.041 C 
ATOM     54  C   UNL     1       9.938  -2.490  23.709  0.00  0.00    +0.149 C 
ATOM     55  O   UNL     1      10.024  -1.241  24.396  0.00  0.00    -0.343 OA
ATOM     56  C   UNL     1       8.790  -0.548  24.573  0.00  0.00    +0.282 C 
ATOM     57  C   UNL     1       8.044  -0.301  23.244  0.00  0.00    +0.201 C 
ATOM     58  C   UNL     1       7.986  -1.555  22.366  0.00  0.00    +0.179 C 
ATOM     59  C   UNL     1       9.342  -2.268  22.316  0.00  0.00    +0.174 C 
BRANCH  59  60
ATOM     60  O   UNL     1      10.251  -1.443  21.563  0.00  0.00    -0.387 OA
ATOM     61  H   UNL     1      10.539  -0.706  22.144  0.00  0.00    +0.210 HD
ENDBRANCH  59  60
BRANCH  58  62
ATOM     62  O   UNL     1       6.930  -2.428  22.792  0.00  0.00    -0.386 OA
ATOM     63  H   UNL     1       6.385  -1.981  23.462  0.00  0.00    +0.210 HD
ENDBRANCH  58  62
BRANCH  57  64
ATOM     64  O   UNL     1       6.708   0.168  23.518  0.00  0.00    -0.384 OA
ATOM     65  H   UNL     1       6.604   0.219  24.486  0.00  0.00    +0.210 HD
ENDBRANCH  57  64
ENDBRANCH  52  56
ENDBRANCH  51  52
ENDBRANCH  39  51
ENDBRANCH  38  41
ENDBRANCH   1  38
TORSDOF 20
ENDMDL
MODEL 2
REMARK VINA RESULT:      -7.0      2.650      9.007
REMARK  Name = 
REMARK  22 active torsions:
REMARK  status: ('A' for Active; 'I' for Inactive)
REMARK    1  A    between atoms: C_1  and  C_2
REMARK    2  A    between atoms: C_4  and  O_68
REMARK    3  A    between atoms: C_6  and  O_67
REMARK    4  A    between atoms: C_8  and  O_66
REMARK    5  A    between atoms: C_10  and  O_13
REMARK    6  A    between atoms: O_13  and  C_14
REMARK    7  A    between atoms: C_14  and  C_15
REMARK    8  A    between atoms: C_17  and  O_65
REMARK    9  A    between atoms: C_19  and  O_64
REMARK   10  A    between atoms: C_21  and  O_63
REMARK   11  A    between atoms: C_23  and  O_26
REMARK   12  A    between atoms: O_26  and  C_27
REMARK   13  A    between atoms: C_28  and  C_55
REMARK   14  A    between atoms: C_32  and  O_39
REMARK   15  A    between atoms: C_34  and  O_38
REMARK   16  A    between atoms: O_39  and  C_40
REMARK   17  A    between atoms: C_42  and  O_54
REMARK   18  A    between atoms: C_44  and  O_53
REMARK   19  A    between atoms: C_46  and  O_52
REMARK   20  A    between atoms: C_48  and  C_51
REMARK   21  A    between atoms: C_57  and  O_62
REMARK   22  A    between atoms: C_58  and  O_61
REMARK                            x       y       z     vdW  Elec       q    Type
REMARK                         _______ _______ _______ _____ _____    ______ ____
ROOT
ATOM      1  C   UNL     1       2.905  -2.607  27.160  0.00  0.00    +0.214 A 
ATOM      2  C   UNL     1       2.241  -1.245  27.146  0.00  0.00    +0.238 A 
ATOM      3  O   UNL     1       1.032  -1.052  27.076  0.00  0.00    -0.283 OA
ATOM      4  C   UNL     1       3.069  -0.071  27.325  0.00  0.00    +0.109 A 
ATOM      5  C   UNL     1       4.200  -0.269  28.081  0.00  0.00    +0.147 A 
ATOM      6  C   UNL     1       4.950   0.831  28.491  0.00  0.00    +0.093 A 
ATOM      7  C   UNL     1       4.604   2.116  28.073  0.00  0.00    +0.131 A 
ATOM      8  C   UNL     1       3.466   2.316  27.297  0.00  0.00    +0.092 A 
ATOM      9  O   UNL     1       4.601  -1.508  28.479  0.00  0.00    -0.451 OA
ATOM     10  C   UNL     1       2.698   1.214  26.919  0.00  0.00    +0.135 A 
ATOM     11  C   UNL     1       4.067  -2.655  27.866  0.00  0.00    +0.181 A 
ENDROOT
BRANCH  11  12
ATOM     12  C   UNL     1       4.935  -3.851  28.219  0.00  0.00    +0.025 A 
ATOM     13  C   UNL     1       4.569  -4.637  29.350  0.00  0.00    +0.015 A 
ATOM     14  C   UNL     1       5.193  -5.845  29.675  0.00  0.00    +0.050 A 
ATOM     15  C   UNL     1       6.233  -6.288  28.891  0.00  0.00    +0.158 A 
ATOM     16  C   UNL     1       6.691  -5.498  27.838  0.00  0.00    +0.159 A 
ATOM     17  C   UNL     1       6.055  -4.293  27.494  0.00  0.00    +0.060 A 
BRANCH  16  18
ATOM     18  O   UNL     1       7.785  -5.964  27.159  0.00  0.00    -0.503 OA
ATOM     19  H   UNL     1       8.385  -5.206  27.019  0.00  0.00    +0.292 HD
ENDBRANCH  16  18
BRANCH  15  20
ATOM     20  O   UNL     1       6.794  -7.501  29.155  0.00  0.00    -0.503 OA
ATOM     21  H   UNL     1       6.068  -8.033  29.537  0.00  0.00    +0.292 HD
ENDBRANCH  15  20
ENDBRANCH  11  12
BRANCH  10  22
ATOM     22  O   UNL     1       1.609   1.407  26.117  0.00  0.00    -0.506 OA
ATOM     23  H   UNL     1       0.868   0.878  26.459  0.00  0.00    +0.292 HD
ENDBRANCH  10  22
BRANCH   7  24
ATOM     24  O   UNL     1       5.340   3.241  28.373  0.00  0.00    -0.461 OA
BRANCH  24  25
ATOM     25  C   UNL     1       6.687   3.180  27.891  0.00  0.00    +0.339 C 
ATOM     26  O   UNL     1       7.456   4.332  28.260  0.00  0.00    -0.334 OA
ATOM     27  C   UNL     1       6.987   5.547  27.669  0.00  0.00    +0.150 C 
ATOM     28  C   UNL     1       7.827   6.682  28.246  0.00  0.00    +0.041 C 
ATOM     29  C   UNL     1       7.105   5.484  26.140  0.00  0.00    +0.174 C 
ATOM     30  C   UNL     1       6.341   4.256  25.609  0.00  0.00    +0.180 C 
ATOM     31  C   UNL     1       6.724   2.973  26.366  0.00  0.00    +0.214 C 
BRANCH  31  32
ATOM     32  O   UNL     1       8.037   2.539  25.969  0.00  0.00    -0.383 OA
ATOM     33  H   UNL     1       8.474   2.153  26.753  0.00  0.00    +0.210 HD
ENDBRANCH  31  32
BRANCH  30  34
ATOM     34  O   UNL     1       6.582   4.120  24.202  0.00  0.00    -0.386 OA
ATOM     35  H   UNL     1       6.172   3.290  23.899  0.00  0.00    +0.210 HD
ENDBRANCH  30  34
BRANCH  29  36
ATOM     36  O   UNL     1       6.621   6.699  25.560  0.00  0.00    -0.387 OA
ATOM     37  H   UNL     1       5.696   6.570  25.292  0.00  0.00    +0.210 HD
ENDBRANCH  29  36
ENDBRANCH  24  25
ENDBRANCH   7  24
BRANCH   1  38
ATOM     38  O   UNL     1       2.310  -3.719  26.537  0.00  0.00    -0.453 OA
BRANCH  38  41
ATOM     39  C   UNL     1       4.601  -4.425  23.822  0.00  0.00    +0.179 C 
ATOM     40  O   UNL     1       3.425  -3.905  24.462  0.00  0.00    -0.331 OA
ATOM     41  C   UNL     1       3.230  -4.511  25.745  0.00  0.00    +0.340 C 
ATOM     42  C   UNL     1       2.799  -5.975  25.508  0.00  0.00    +0.214 C 
ATOM     43  C   UNL     1       3.949  -6.650  24.708  0.00  0.00    +0.180 C 
ATOM     44  C   UNL     1       4.314  -5.876  23.428  0.00  0.00    +0.177 C 
BRANCH  44  45
ATOM     45  O   UNL     1       5.463  -6.507  22.841  0.00  0.00    -0.386 OA
ATOM     46  H   UNL     1       5.415  -6.330  21.882  0.00  0.00    +0.210 HD
ENDBRANCH  44  45
BRANCH  43  47
ATOM     47  O   UNL     1       3.648  -8.014  24.387  0.00  0.00    -0.386 OA
ATOM     48  H   UNL     1       3.186  -8.359  25.173  0.00  0.00    +0.210 HD
ENDBRANCH  43  47
BRANCH  42  49
ATOM     49  O   UNL     1       2.609  -6.640  26.772  0.00  0.00    -0.383 OA
ATOM     50  H   UNL     1       2.029  -7.408  26.613  0.00  0.00    +0.210 HD
ENDBRANCH  42  49
BRANCH  39  51
ATOM     51  C   UNL     1       4.981  -3.516  22.657  0.00  0.00    +0.197 C 
BRANCH  51  52
ATOM     52  O   UNL     1       6.374  -3.638  22.411  0.00  0.00    -0.346 OA
BRANCH  52  56
ATOM     53  C   UNL     1       7.949  -0.811  25.348  0.00  0.00    +0.041 C 
ATOM     54  C   UNL     1       8.580  -1.207  24.015  0.00  0.00    +0.149 C 
ATOM     55  O   UNL     1       7.636  -1.791  23.115  0.00  0.00    -0.343 OA
ATOM     56  C   UNL     1       7.186  -3.099  23.459  0.00  0.00    +0.282 C 
ATOM     57  C   UNL     1       8.343  -4.105  23.640  0.00  0.00    +0.201 C 
ATOM     58  C   UNL     1       9.476  -3.541  24.503  0.00  0.00    +0.179 C 
ATOM     59  C   UNL     1       9.821  -2.101  24.106  0.00  0.00    +0.174 C 
BRANCH  59  60
ATOM     60  O   UNL     1      10.448  -2.135  22.810  0.00  0.00    -0.387 OA
ATOM     61  H   UNL     1       9.819  -2.551  22.183  0.00  0.00    +0.210 HD
ENDBRANCH  59  60
BRANCH  58  62
ATOM     62  O   UNL     1       9.161  -3.658  25.898  0.00  0.00    -0.386 OA
ATOM     63  H   UNL     1       9.607  -4.438  26.270  0.00  0.00    +0.210 HD
ENDBRANCH  58  62
BRANCH  57  64
ATOM     64  O   UNL     1       7.840  -5.323  24.226  0.00  0.00    -0.384 OA
ATOM     65  H   UNL     1       8.539  -5.999  24.150  0.00  0.00    +0.210 HD
ENDBRANCH  57  64
ENDBRANCH  52  56
ENDBRANCH  51  52
ENDBRANCH  39  51
ENDBRANCH  38  41
ENDBRANCH   1  38
TORSDOF 20
ENDMDL
MODEL 3
REMARK VINA RESULT:      -7.0      1.552      2.439
REMARK  Name = 
REMARK  22 active torsions:
REMARK  status: ('A' for Active; 'I' for Inactive)
REMARK    1  A    between atoms: C_1  and  C_2
REMARK    2  A    between atoms: C_4  and  O_68
REMARK    3  A    between atoms: C_6  and  O_67
REMARK    4  A    between atoms: C_8  and  O_66
REMARK    5  A    between atoms: C_10  and  O_13
REMARK    6  A    between atoms: O_13  and  C_14
REMARK    7  A    between atoms: C_14  and  C_15
REMARK    8  A    between atoms: C_17  and  O_65
REMARK    9  A    between atoms: C_19  and  O_64
REMARK   10  A    between atoms: C_21  and  O_63
REMARK   11  A    between atoms: C_23  and  O_26
REMARK   12  A    between atoms: O_26  and  C_27
REMARK   13  A    between atoms: C_28  and  C_55
REMARK   14  A    between atoms: C_32  and  O_39
REMARK   15  A    between atoms: C_34  and  O_38
REMARK   16  A    between atoms: O_39  and  C_40
REMARK   17  A    between atoms: C_42  and  O_54
REMARK   18  A    between atoms: C_44  and  O_53
REMARK   19  A    between atoms: C_46  and  O_52
REMARK   20  A    between atoms: C_48  and  C_51
REMARK   21  A    between atoms: C_57  and  O_62
REMARK   22  A    between atoms: C_58  and  O_61
REMARK                            x       y       z     vdW  Elec       q    Type
REMARK                         _______ _______ _______ _____ _____    ______ ____
ROOT
ATOM      1  C   UNL     1       5.773   3.260  27.259  0.00  0.00    +0.214 A 
ATOM      2  C   UNL     1       6.513   2.065  27.826  0.00  0.00    +0.238 A 
ATOM      3  O   UNL     1       7.246   2.092  28.808  0.00  0.00    -0.283 OA
ATOM      4  C   UNL     1       6.276   0.764  27.237  0.00  0.00    +0.109 A 
ATOM      5  C   UNL     1       5.027   0.593  26.689  0.00  0.00    +0.147 A 
ATOM      6  C   UNL     1       4.623  -0.679  26.291  0.00  0.00    +0.093 A 
ATOM      7  C   UNL     1       5.504  -1.757  26.371  0.00  0.00    +0.131 A 
ATOM      8  C   UNL     1       6.774  -1.582  26.913  0.00  0.00    +0.092 A 
ATOM      9  O   UNL     1       4.146   1.623  26.553  0.00  0.00    -0.451 OA
ATOM     10  C   UNL     1       7.161  -0.313  27.345  0.00  0.00    +0.135 A 
ATOM     11  C   UNL     1       4.590   2.952  26.660  0.00  0.00    +0.181 A 
ENDROOT
BRANCH  11  12
ATOM     12  C   UNL     1       3.518   3.875  26.106  0.00  0.00    +0.025 A 
ATOM     13  C   UNL     1       2.709   4.598  27.030  0.00  0.00    +0.015 A 
ATOM     14  C   UNL     1       1.806   5.591  26.641  0.00  0.00    +0.050 A 
ATOM     15  C   UNL     1       1.659   5.868  25.303  0.00  0.00    +0.158 A 
ATOM     16  C   UNL     1       2.353   5.114  24.359  0.00  0.00    +0.159 A 
ATOM     17  C   UNL     1       3.278   4.128  24.744  0.00  0.00    +0.060 A 
BRANCH  16  18
ATOM     18  O   UNL     1       2.088   5.390  23.044  0.00  0.00    -0.503 OA
ATOM     19  H   UNL     1       2.947   5.507  22.592  0.00  0.00    +0.292 HD
ENDBRANCH  16  18
BRANCH  15  20
ATOM     20  O   UNL     1       0.839   6.887  24.922  0.00  0.00    -0.503 OA
ATOM     21  H   UNL     1       0.859   7.517  25.670  0.00  0.00    +0.292 HD
ENDBRANCH  15  20
ENDBRANCH  11  12
BRANCH  10  22
ATOM     22  O   UNL     1       8.424  -0.134  27.833  0.00  0.00    -0.506 OA
ATOM     23  H   UNL     1       9.023   0.063  27.093  0.00  0.00    +0.292 HD
ENDBRANCH  10  22
BRANCH   7  24
ATOM     24  O   UNL     1       5.203  -3.024  25.925  0.00  0.00    -0.461 OA
BRANCH  24  25
ATOM     25  C   UNL     1       6.326  -3.913  25.946  0.00  0.00    +0.339 C 
ATOM     26  O   UNL     1       6.710  -4.347  24.635  0.00  0.00    -0.334 OA
ATOM     27  C   UNL     1       5.717  -5.143  23.982  0.00  0.00    +0.150 C 
ATOM     28  C   UNL     1       6.223  -5.423  22.570  0.00  0.00    +0.041 C 
ATOM     29  C   UNL     1       5.474  -6.444  24.759  0.00  0.00    +0.174 C 
ATOM     30  C   UNL     1       5.082  -6.118  26.212  0.00  0.00    +0.180 C 
ATOM     31  C   UNL     1       6.060  -5.123  26.859  0.00  0.00    +0.214 C 
BRANCH  31  32
ATOM     32  O   UNL     1       7.303  -5.781  27.163  0.00  0.00    -0.383 OA
ATOM     33  H   UNL     1       7.796  -5.214  27.788  0.00  0.00    +0.210 HD
ENDBRANCH  31  32
BRANCH  30  34
ATOM     34  O   UNL     1       5.005  -7.335  26.967  0.00  0.00    -0.386 OA
ATOM     35  H   UNL     1       5.802  -7.862  26.783  0.00  0.00    +0.210 HD
ENDBRANCH  30  34
BRANCH  29  36
ATOM     36  O   UNL     1       4.470  -7.226  24.104  0.00  0.00    -0.387 OA
ATOM     37  H   UNL     1       3.616  -7.062  24.536  0.00  0.00    +0.210 HD
ENDBRANCH  29  36
ENDBRANCH  24  25
ENDBRANCH   7  24
BRANCH   1  38
ATOM     38  O   UNL     1       6.266   4.569  27.412  0.00  0.00    -0.453 OA
BRANCH  38  41
ATOM     39  C   UNL     1       7.059   4.760  23.883  0.00  0.00    +0.179 C 
ATOM     40  O   UNL     1       6.842   4.140  25.161  0.00  0.00    -0.331 OA
ATOM     41  C   UNL     1       6.871   5.112  26.213  0.00  0.00    +0.340 C 
ATOM     42  C   UNL     1       8.335   5.582  26.372  0.00  0.00    +0.214 C 
ATOM     43  C   UNL     1       8.756   6.186  25.002  0.00  0.00    +0.180 C 
ATOM     44  C   UNL     1       8.519   5.216  23.829  0.00  0.00    +0.177 C 
BRANCH  44  45
ATOM     45  O   UNL     1       8.816   5.915  22.610  0.00  0.00    -0.386 OA
ATOM     46  H   UNL     1       9.724   5.659  22.359  0.00  0.00    +0.210 HD
ENDBRANCH  44  45
BRANCH  43  47
ATOM     47  O   UNL     1      10.120   6.624  25.008  0.00  0.00    -0.386 OA
ATOM     48  H   UNL     1      10.255   7.030  24.132  0.00  0.00    +0.210 HD
ENDBRANCH  43  47
BRANCH  42  49
ATOM     49  O   UNL     1       8.418   6.579  27.407  0.00  0.00    -0.383 OA
ATOM     50  H   UNL     1       9.053   7.257  27.109  0.00  0.00    +0.210 HD
ENDBRANCH  42  49
BRANCH  39  51
ATOM     51  C   UNL     1       6.659   3.786  22.780  0.00  0.00    +0.197 C 
BRANCH  51  52
ATOM     52  O   UNL     1       7.829   3.346  22.105  0.00  0.00    -0.346 OA
BRANCH  52  56
ATOM     53  C   UNL     1       7.251  -0.917  22.869  0.00  0.00    +0.041 C 
ATOM     54  C   UNL     1       7.708   0.147  23.865  0.00  0.00    +0.149 C 
ATOM     55  O   UNL     1       7.379   1.470  23.438  0.00  0.00    -0.343 OA
ATOM     56  C   UNL     1       8.134   1.968  22.336  0.00  0.00    +0.282 C 
ATOM     57  C   UNL     1       9.658   1.920  22.579  0.00  0.00    +0.201 C 
ATOM     58  C   UNL     1      10.114   0.573  23.148  0.00  0.00    +0.179 C 
ATOM     59  C   UNL     1       9.185   0.091  24.267  0.00  0.00    +0.174 C 
BRANCH  59  60
ATOM     60  O   UNL     1       9.375   0.953  25.406  0.00  0.00    -0.387 OA
ATOM     61  H   UNL     1       8.767   0.651  26.115  0.00  0.00    +0.210 HD
ENDBRANCH  59  60
BRANCH  58  62
ATOM     62  O   UNL     1      10.256  -0.401  22.103  0.00  0.00    -0.386 OA
ATOM     63  H   UNL     1       9.386  -0.780  21.889  0.00  0.00    +0.210 HD
ENDBRANCH  58  62
BRANCH  57  64
ATOM     64  O   UNL     1      10.355   2.194  21.348  0.00  0.00    -0.384 OA
ATOM     65  H   UNL     1       9.699   2.181  20.626  0.00  0.00    +0.210 HD
ENDBRANCH  57  64
ENDBRANCH  52  56
ENDBRANCH  51  52
ENDBRANCH  39  51
ENDBRANCH  38  41
ENDBRANCH   1  38
TORSDOF 20
ENDMDL
MODEL 4
REMARK VINA RESULT:      -6.9      2.262      8.657
REMARK  Name = 
REMARK  22 active torsions:
REMARK  status: ('A' for Active; 'I' for Inactive)
REMARK    1  A    between atoms: C_1  and  C_2
REMARK    2  A    between atoms: C_4  and  O_68
REMARK    3  A    between atoms: C_6  and  O_67
REMARK    4  A    between atoms: C_8  and  O_66
REMARK    5  A    between atoms: C_10  and  O_13
REMARK    6  A    between atoms: O_13  and  C_14
REMARK    7  A    between atoms: C_14  and  C_15
REMARK    8  A    between atoms: C_17  and  O_65
REMARK    9  A    between atoms: C_19  and  O_64
REMARK   10  A    between atoms: C_21  and  O_63
REMARK   11  A    between atoms: C_23  and  O_26
REMARK   12  A    between atoms: O_26  and  C_27
REMARK   13  A    between atoms: C_28  and  C_55
REMARK   14  A    between atoms: C_32  and  O_39
REMARK   15  A    between atoms: C_34  and  O_38
REMARK   16  A    between atoms: O_39  and  C_40
REMARK   17  A    between atoms: C_42  and  O_54
REMARK   18  A    between atoms: C_44  and  O_53
REMARK   19  A    between atoms: C_46  and  O_52
REMARK   20  A    between atoms: C_48  and  C_51
REMARK   21  A    between atoms: C_57  and  O_62
REMARK   22  A    between atoms: C_58  and  O_61
REMARK                            x       y       z     vdW  Elec       q    Type
REMARK                         _______ _______ _______ _____ _____    ______ ____
ROOT
ATOM      1  C   UNL     1       3.678  -2.136  27.458  0.00  0.00    +0.214 A 
ATOM      2  C   UNL     1       4.383  -0.991  28.158  0.00  0.00    +0.238 A 
ATOM      3  O   UNL     1       4.811  -1.025  29.307  0.00  0.00    -0.283 OA
ATOM      4  C   UNL     1       4.669   0.209  27.402  0.00  0.00    +0.109 A 
ATOM      5  C   UNL     1       4.862   0.014  26.054  0.00  0.00    +0.147 A 
ATOM      6  C   UNL     1       5.350   1.060  25.275  0.00  0.00    +0.093 A 
ATOM      7  C   UNL     1       5.566   2.318  25.836  0.00  0.00    +0.131 A 
ATOM      8  C   UNL     1       5.358   2.520  27.198  0.00  0.00    +0.092 A 
ATOM      9  O   UNL     1       4.626  -1.185  25.453  0.00  0.00    -0.451 OA
ATOM     10  C   UNL     1       4.904   1.458  27.982  0.00  0.00    +0.135 A 
ATOM     11  C   UNL     1       3.871  -2.170  26.111  0.00  0.00    +0.181 A 
ENDROOT
BRANCH  11  12
ATOM     12  C   UNL     1       3.450  -3.224  25.101  0.00  0.00    +0.025 A 
ATOM     13  C   UNL     1       4.401  -3.638  24.124  0.00  0.00    +0.015 A 
ATOM     14  C   UNL     1       4.183  -4.707  23.250  0.00  0.00    +0.050 A 
ATOM     15  C   UNL     1       2.984  -5.378  23.307  0.00  0.00    +0.158 A 
ATOM     16  C   UNL     1       1.987  -4.940  24.176  0.00  0.00    +0.159 A 
ATOM     17  C   UNL     1       2.206  -3.879  25.071  0.00  0.00    +0.060 A 
BRANCH  16  18
ATOM     18  O   UNL     1       0.791  -5.604  24.112  0.00  0.00    -0.503 OA
ATOM     19  H   UNL     1       0.086  -4.929  24.047  0.00  0.00    +0.292 HD
ENDBRANCH  16  18
BRANCH  15  20
ATOM     20  O   UNL     1       2.796  -6.469  22.513  0.00  0.00    -0.503 OA
ATOM     21  H   UNL     1       1.847  -6.685  22.607  0.00  0.00    +0.292 HD
ENDBRANCH  15  20
ENDBRANCH  11  12
BRANCH  10  22
ATOM     22  O   UNL     1       4.655   1.672  29.308  0.00  0.00    -0.506 OA
ATOM     23  H   UNL     1       4.125   0.933  29.652  0.00  0.00    +0.292 HD
ENDBRANCH  10  22
BRANCH   7  24
ATOM     24  O   UNL     1       5.971   3.418  25.114  0.00  0.00    -0.461 OA
BRANCH  24  25
ATOM     25  C   UNL     1       6.403   3.096  23.788  0.00  0.00    +0.339 C 
ATOM     26  O   UNL     1       7.607   2.318  23.774  0.00  0.00    -0.334 OA
ATOM     27  C   UNL     1       8.744   3.014  24.293  0.00  0.00    +0.150 C 
ATOM     28  C   UNL     1       9.904   2.024  24.319  0.00  0.00    +0.041 C 
ATOM     29  C   UNL     1       9.069   4.237  23.424  0.00  0.00    +0.174 C 
ATOM     30  C   UNL     1       7.833   5.151  23.326  0.00  0.00    +0.180 C 
ATOM     31  C   UNL     1       6.571   4.365  22.934  0.00  0.00    +0.214 C 
BRANCH  31  32
ATOM     32  O   UNL     1       6.626   4.007  21.541  0.00  0.00    -0.383 OA
ATOM     33  H   UNL     1       5.711   3.997  21.199  0.00  0.00    +0.210 HD
ENDBRANCH  31  32
BRANCH  30  34
ATOM     34  O   UNL     1       8.098   6.208  22.394  0.00  0.00    -0.386 OA
ATOM     35  H   UNL     1       8.347   7.004  22.895  0.00  0.00    +0.210 HD
ENDBRANCH  30  34
BRANCH  29  36
ATOM     36  O   UNL     1      10.200   4.933  23.960  0.00  0.00    -0.387 OA
ATOM     37  H   UNL     1      10.463   4.506  24.792  0.00  0.00    +0.210 HD
ENDBRANCH  29  36
ENDBRANCH  24  25
ENDBRANCH   7  24
BRANCH   1  38
ATOM     38  O   UNL     1       2.948  -3.098  28.179  0.00  0.00    -0.453 OA
BRANCH  38  41
ATOM     39  C   UNL     1       5.842  -5.272  28.315  0.00  0.00    +0.179 C 
ATOM     40  O   UNL     1       4.844  -4.430  27.716  0.00  0.00    -0.331 OA
ATOM     41  C   UNL     1       3.737  -4.237  28.604  0.00  0.00    +0.340 C 
ATOM     42  C   UNL     1       2.967  -5.574  28.686  0.00  0.00    +0.214 C 
ATOM     43  C   UNL     1       3.974  -6.631  29.223  0.00  0.00    +0.180 C 
ATOM     44  C   UNL     1       5.270  -6.689  28.393  0.00  0.00    +0.177 C 
BRANCH  44  45
ATOM     45  O   UNL     1       6.174  -7.594  29.047  0.00  0.00    -0.386 OA
ATOM     46  H   UNL     1       6.702  -8.014  28.341  0.00  0.00    +0.210 HD
ENDBRANCH  44  45
BRANCH  43  47
ATOM     47  O   UNL     1       3.386  -7.935  29.305  0.00  0.00    -0.386 OA
ATOM     48  H   UNL     1       4.140  -8.541  29.430  0.00  0.00    +0.210 HD
ENDBRANCH  43  47
BRANCH  42  49
ATOM     49  O   UNL     1       1.851  -5.441  29.586  0.00  0.00    -0.383 OA
ATOM     50  H   UNL     1       2.213  -5.324  30.484  0.00  0.00    +0.210 HD
ENDBRANCH  42  49
BRANCH  39  51
ATOM     51  C   UNL     1       7.139  -5.155  27.519  0.00  0.00    +0.197 C 
BRANCH  51  52
ATOM     52  O   UNL     1       6.845  -4.634  26.231  0.00  0.00    -0.346 OA
BRANCH  52  56
ATOM     53  C   UNL     1       9.357  -1.059  26.195  0.00  0.00    +0.041 C 
ATOM     54  C   UNL     1       8.064  -1.288  25.415  0.00  0.00    +0.149 C 
ATOM     55  O   UNL     1       7.274  -2.344  25.966  0.00  0.00    -0.343 OA
ATOM     56  C   UNL     1       7.791  -3.660  25.782  0.00  0.00    +0.282 C 
ATOM     57  C   UNL     1       8.058  -4.000  24.300  0.00  0.00    +0.201 C 
ATOM     58  C   UNL     1       8.808  -2.880  23.572  0.00  0.00    +0.179 C 
ATOM     59  C   UNL     1       8.225  -1.503  23.907  0.00  0.00    +0.174 C 
BRANCH  59  60
ATOM     60  O   UNL     1       6.923  -1.409  23.297  0.00  0.00    -0.387 OA
ATOM     61  H   UNL     1       6.253  -1.456  24.012  0.00  0.00    +0.210 HD
ENDBRANCH  59  60
BRANCH  58  62
ATOM     62  O   UNL     1      10.216  -2.952  23.837  0.00  0.00    -0.386 OA
ATOM     63  H   UNL     1      10.421  -2.471  24.656  0.00  0.00    +0.210 HD
ENDBRANCH  58  62
BRANCH  57  64
ATOM     64  O   UNL     1       8.806  -5.229  24.210  0.00  0.00    -0.384 OA
ATOM     65  H   UNL     1       9.284  -5.225  23.361  0.00  0.00    +0.210 HD
ENDBRANCH  57  64
ENDBRANCH  52  56
ENDBRANCH  51  52
ENDBRANCH  39  51
ENDBRANCH  38  41
ENDBRANCH   1  38
TORSDOF 20
ENDMDL
MODEL 5
REMARK VINA RESULT:      -6.7      2.202      9.434
REMARK  Name = 
REMARK  22 active torsions:
REMARK  status: ('A' for Active; 'I' for Inactive)
REMARK    1  A    between atoms: C_1  and  C_2
REMARK    2  A    between atoms: C_4  and  O_68
REMARK    3  A    between atoms: C_6  and  O_67
REMARK    4  A    between atoms: C_8  and  O_66
REMARK    5  A    between atoms: C_10  and  O_13
REMARK    6  A    between atoms: O_13  and  C_14
REMARK    7  A    between atoms: C_14  and  C_15
REMARK    8  A    between atoms: C_17  and  O_65
REMARK    9  A    between atoms: C_19  and  O_64
REMARK   10  A    between atoms: C_21  and  O_63
REMARK   11  A    between atoms: C_23  and  O_26
REMARK   12  A    between atoms: O_26  and  C_27
REMARK   13  A    between atoms: C_28  and  C_55
REMARK   14  A    between atoms: C_32  and  O_39
REMARK   15  A    between atoms: C_34  and  O_38
REMARK   16  A    between atoms: O_39  and  C_40
REMARK   17  A    between atoms: C_42  and  O_54
REMARK   18  A    between atoms: C_44  and  O_53
REMARK   19  A    between atoms: C_46  and  O_52
REMARK   20  A    between atoms: C_48  and  C_51
REMARK   21  A    between atoms: C_57  and  O_62
REMARK   22  A    between atoms: C_58  and  O_61
REMARK                            x       y       z     vdW  Elec       q    Type
REMARK                         _______ _______ _______ _____ _____    ______ ____
ROOT
ATOM      1  C   UNL     1       6.929  -4.089  26.020  0.00  0.00    +0.214 A 
ATOM      2  C   UNL     1       8.010  -3.049  26.243  0.00  0.00    +0.238 A 
ATOM      3  O   UNL     1       9.071  -3.250  26.824  0.00  0.00    -0.283 OA
ATOM      4  C   UNL     1       7.841  -1.739  25.650  0.00  0.00    +0.109 A 
ATOM      5  C   UNL     1       7.106  -1.719  24.488  0.00  0.00    +0.147 A 
ATOM      6  C   UNL     1       7.063  -0.554  23.727  0.00  0.00    +0.093 A 
ATOM      7  C   UNL     1       7.691   0.607  24.176  0.00  0.00    +0.131 A 
ATOM      8  C   UNL     1       8.425   0.591  25.360  0.00  0.00    +0.092 A 
ATOM      9  O   UNL     1       6.442  -2.816  24.029  0.00  0.00    -0.451 OA
ATOM     10  C   UNL     1       8.495  -0.590  26.100  0.00  0.00    +0.135 A 
ATOM     11  C   UNL     1       6.208  -3.909  24.880  0.00  0.00    +0.181 A 
ENDROOT
BRANCH  11  12
ATOM     12  C   UNL     1       5.152  -4.804  24.254  0.00  0.00    +0.025 A 
ATOM     13  C   UNL     1       5.440  -6.193  24.119  0.00  0.00    +0.015 A 
ATOM     14  C   UNL     1       4.492  -7.134  23.709  0.00  0.00    +0.050 A 
ATOM     15  C   UNL     1       3.226  -6.705  23.387  0.00  0.00    +0.158 A 
ATOM     16  C   UNL     1       2.932  -5.343  23.404  0.00  0.00    +0.159 A 
ATOM     17  C   UNL     1       3.874  -4.394  23.835  0.00  0.00    +0.060 A 
BRANCH  16  18
ATOM     18  O   UNL     1       1.678  -4.986  22.986  0.00  0.00    -0.503 OA
ATOM     19  H   UNL     1       1.449  -4.148  23.433  0.00  0.00    +0.292 HD
ENDBRANCH  16  18
BRANCH  15  20
ATOM     20  O   UNL     1       2.275  -7.625  23.062  0.00  0.00    -0.503 OA
ATOM     21  H   UNL     1       1.660  -7.149  22.469  0.00  0.00    +0.292 HD
ENDBRANCH  15  20
ENDBRANCH  11  12
BRANCH  10  22
ATOM     22  O   UNL     1       9.175  -0.591  27.285  0.00  0.00    -0.506 OA
ATOM     23  H   UNL     1       9.072  -1.460  27.707  0.00  0.00    +0.292 HD
ENDBRANCH  10  22
BRANCH   7  24
ATOM     24  O   UNL     1       7.627   1.815  23.519  0.00  0.00    -0.461 OA
BRANCH  24  25
ATOM     25  C   UNL     1       7.472   2.932  24.401  0.00  0.00    +0.339 C 
ATOM     26  O   UNL     1       6.307   3.713  24.102  0.00  0.00    -0.334 OA
ATOM     27  C   UNL     1       6.359   4.353  22.824  0.00  0.00    +0.150 C 
ATOM     28  C   UNL     1       5.014   5.039  22.610  0.00  0.00    +0.041 C 
ATOM     29  C   UNL     1       7.517   5.359  22.772  0.00  0.00    +0.174 C 
ATOM     30  C   UNL     1       8.841   4.648  23.112  0.00  0.00    +0.180 C 
ATOM     31  C   UNL     1       8.730   3.819  24.402  0.00  0.00    +0.214 C 
BRANCH  31  32
ATOM     32  O   UNL     1       8.707   4.689  25.547  0.00  0.00    -0.383 OA
ATOM     33  H   UNL     1       9.633   4.886  25.791  0.00  0.00    +0.210 HD
ENDBRANCH  31  32
BRANCH  30  34
ATOM     34  O   UNL     1       9.890   5.622  23.209  0.00  0.00    -0.386 OA
ATOM     35  H   UNL     1      10.106   5.747  24.150  0.00  0.00    +0.210 HD
ENDBRANCH  30  34
BRANCH  29  36
ATOM     36  O   UNL     1       7.567   5.983  21.486  0.00  0.00    -0.387 OA
ATOM     37  H   UNL     1       8.005   6.846  21.574  0.00  0.00    +0.210 HD
ENDBRANCH  29  36
ENDBRANCH  24  25
ENDBRANCH   7  24
BRANCH   1  38
ATOM     38  O   UNL     1       6.757  -5.168  26.906  0.00  0.00    -0.453 OA
BRANCH  38  41
ATOM     39  C   UNL     1       3.798  -3.739  28.430  0.00  0.00    +0.179 C 
ATOM     40  O   UNL     1       5.194  -3.872  28.114  0.00  0.00    -0.331 OA
ATOM     41  C   UNL     1       5.476  -5.172  27.583  0.00  0.00    +0.340 C 
ATOM     42  C   UNL     1       5.352  -6.185  28.744  0.00  0.00    +0.214 C 
ATOM     43  C   UNL     1       3.895  -6.071  29.275  0.00  0.00    +0.180 C 
ATOM     44  C   UNL     1       3.510  -4.626  29.644  0.00  0.00    +0.177 C 
BRANCH  44  45
ATOM     45  O   UNL     1       2.117  -4.615  29.994  0.00  0.00    -0.386 OA
ATOM     46  H   UNL     1       1.842  -5.549  30.060  0.00  0.00    +0.210 HD
ENDBRANCH  44  45
BRANCH  43  47
ATOM     47  O   UNL     1       3.663  -6.939  30.392  0.00  0.00    -0.386 OA
ATOM     48  H   UNL     1       3.421  -7.796  29.995  0.00  0.00    +0.210 HD
ENDBRANCH  43  47
BRANCH  42  49
ATOM     49  O   UNL     1       5.606  -7.517  28.260  0.00  0.00    -0.383 OA
ATOM     50  H   UNL     1       6.425  -7.831  28.687  0.00  0.00    +0.210 HD
ENDBRANCH  42  49
BRANCH  39  51
ATOM     51  C   UNL     1       3.470  -2.263  28.633  0.00  0.00    +0.197 C 
BRANCH  51  52
ATOM     52  O   UNL     1       3.779  -1.553  27.442  0.00  0.00    -0.346 OA
BRANCH  52  56
ATOM     53  C   UNL     1       2.144   2.455  28.040  0.00  0.00    +0.041 C 
ATOM     54  C   UNL     1       2.640   1.844  26.731  0.00  0.00    +0.149 C 
ATOM     55  O   UNL     1       2.694   0.417  26.780  0.00  0.00    -0.343 OA
ATOM     56  C   UNL     1       3.725  -0.132  27.597  0.00  0.00    +0.282 C 
ATOM     57  C   UNL     1       5.132   0.377  27.214  0.00  0.00    +0.201 C 
ATOM     58  C   UNL     1       5.169   1.896  27.023  0.00  0.00    +0.179 C 
ATOM     59  C   UNL     1       3.971   2.390  26.205  0.00  0.00    +0.174 C 
BRANCH  59  60
ATOM     60  O   UNL     1       4.140   1.933  24.848  0.00  0.00    -0.387 OA
ATOM     61  H   UNL     1       3.271   2.004  24.398  0.00  0.00    +0.210 HD
ENDBRANCH  59  60
BRANCH  58  62
ATOM     62  O   UNL     1       5.276   2.567  28.286  0.00  0.00    -0.386 OA
ATOM     63  H   UNL     1       5.063   3.510  28.176  0.00  0.00    +0.210 HD
ENDBRANCH  58  62
BRANCH  57  64
ATOM     64  O   UNL     1       6.082  -0.014  28.226  0.00  0.00    -0.384 OA
ATOM     65  H   UNL     1       5.722   0.258  29.091  0.00  0.00    +0.210 HD
ENDBRANCH  57  64
ENDBRANCH  52  56
ENDBRANCH  51  52
ENDBRANCH  39  51
ENDBRANCH  38  41
ENDBRANCH   1  38
TORSDOF 20
ENDMDL
MODEL 6
REMARK VINA RESULT:      -6.4      2.441      9.347
REMARK  Name = 
REMARK  22 active torsions:
REMARK  status: ('A' for Active; 'I' for Inactive)
REMARK    1  A    between atoms: C_1  and  C_2
REMARK    2  A    between atoms: C_4  and  O_68
REMARK    3  A    between atoms: C_6  and  O_67
REMARK    4  A    between atoms: C_8  and  O_66
REMARK    5  A    between atoms: C_10  and  O_13
REMARK    6  A    between atoms: O_13  and  C_14
REMARK    7  A    between atoms: C_14  and  C_15
REMARK    8  A    between atoms: C_17  and  O_65
REMARK    9  A    between atoms: C_19  and  O_64
REMARK   10  A    between atoms: C_21  and  O_63
REMARK   11  A    between atoms: C_23  and  O_26
REMARK   12  A    between atoms: O_26  and  C_27
REMARK   13  A    between atoms: C_28  and  C_55
REMARK   14  A    between atoms: C_32  and  O_39
REMARK   15  A    between atoms: C_34  and  O_38
REMARK   16  A    between atoms: O_39  and  C_40
REMARK   17  A    between atoms: C_42  and  O_54
REMARK   18  A    between atoms: C_44  and  O_53
REMARK   19  A    between atoms: C_46  and  O_52
REMARK   20  A    between atoms: C_48  and  C_51
REMARK   21  A    between atoms: C_57  and  O_62
REMARK   22  A    between atoms: C_58  and  O_61
REMARK                            x       y       z     vdW  Elec       q    Type
REMARK                         _______ _______ _______ _____ _____    ______ ____
ROOT
ATOM      1  C   UNL     1       6.950  -3.818  25.845  0.00  0.00    +0.214 A 
ATOM      2  C   UNL     1       8.076  -2.833  26.091  0.00  0.00    +0.238 A 
ATOM      3  O   UNL     1       9.119  -3.090  26.681  0.00  0.00    -0.283 OA
ATOM      4  C   UNL     1       7.975  -1.510  25.512  0.00  0.00    +0.109 A 
ATOM      5  C   UNL     1       7.256  -1.442  24.342  0.00  0.00    +0.147 A 
ATOM      6  C   UNL     1       7.276  -0.268  23.594  0.00  0.00    +0.093 A 
ATOM      7  C   UNL     1       7.953   0.857  24.064  0.00  0.00    +0.131 A 
ATOM      8  C   UNL     1       8.671   0.793  25.255  0.00  0.00    +0.092 A 
ATOM      9  O   UNL     1       6.546  -2.502  23.863  0.00  0.00    -0.451 OA
ATOM     10  C   UNL     1       8.678  -0.398  25.982  0.00  0.00    +0.135 A 
ATOM     11  C   UNL     1       6.251  -3.592  24.699  0.00  0.00    +0.181 A 
ENDROOT
BRANCH  11  12
ATOM     12  C   UNL     1       5.161  -4.429  24.051  0.00  0.00    +0.025 A 
ATOM     13  C   UNL     1       5.546  -5.606  23.347  0.00  0.00    +0.015 A 
ATOM     14  C   UNL     1       4.627  -6.534  22.850  0.00  0.00    +0.050 A 
ATOM     15  C   UNL     1       3.283  -6.293  23.016  0.00  0.00    +0.158 A 
ATOM     16  C   UNL     1       2.862  -5.103  23.606  0.00  0.00    +0.159 A 
ATOM     17  C   UNL     1       3.780  -4.175  24.126  0.00  0.00    +0.060 A 
BRANCH  16  18
ATOM     18  O   UNL     1       1.509  -4.894  23.656  0.00  0.00    -0.503 OA
ATOM     19  H   UNL     1       1.159  -5.035  22.754  0.00  0.00    +0.292 HD
ENDBRANCH  16  18
BRANCH  15  20
ATOM     20  O   UNL     1       2.384  -7.230  22.604  0.00  0.00    -0.503 OA
ATOM     21  H   UNL     1       1.853  -7.432  23.400  0.00  0.00    +0.292 HD
ENDBRANCH  15  20
ENDBRANCH  11  12
BRANCH  10  22
ATOM     22  O   UNL     1       9.343  -0.444  27.175  0.00  0.00    -0.506 OA
ATOM     23  H   UNL     1       8.694  -0.490  27.896  0.00  0.00    +0.292 HD
ENDBRANCH  10  22
BRANCH   7  24
ATOM     24  O   UNL     1       7.953   2.074  23.420  0.00  0.00    -0.461 OA
BRANCH  24  25
ATOM     25  C   UNL     1       6.677   2.423  22.871  0.00  0.00    +0.339 C 
ATOM     26  O   UNL     1       6.723   3.628  22.096  0.00  0.00    -0.334 OA
ATOM     27  C   UNL     1       7.040   4.792  22.865  0.00  0.00    +0.150 C 
ATOM     28  C   UNL     1       7.164   5.957  21.888  0.00  0.00    +0.041 C 
ATOM     29  C   UNL     1       5.954   5.055  23.917  0.00  0.00    +0.174 C 
ATOM     30  C   UNL     1       5.778   3.810  24.807  0.00  0.00    +0.180 C 
ATOM     31  C   UNL     1       5.608   2.530  23.972  0.00  0.00    +0.214 C 
BRANCH  31  32
ATOM     32  O   UNL     1       4.298   2.499  23.378  0.00  0.00    -0.383 OA
ATOM     33  H   UNL     1       4.398   2.679  22.423  0.00  0.00    +0.210 HD
ENDBRANCH  31  32
BRANCH  30  34
ATOM     34  O   UNL     1       4.662   4.009  25.685  0.00  0.00    -0.386 OA
ATOM     35  H   UNL     1       4.987   4.001  26.602  0.00  0.00    +0.210 HD
ENDBRANCH  30  34
BRANCH  29  36
ATOM     36  O   UNL     1       6.288   6.213  24.688  0.00  0.00    -0.387 OA
ATOM     37  H   UNL     1       6.530   6.932  24.081  0.00  0.00    +0.210 HD
ENDBRANCH  29  36
ENDBRANCH  24  25
ENDBRANCH   7  24
BRANCH   1  38
ATOM     38  O   UNL     1       6.717  -4.898  26.716  0.00  0.00    -0.453 OA
BRANCH  38  41
ATOM     39  C   UNL     1       3.862  -3.865  28.690  0.00  0.00    +0.179 C 
ATOM     40  O   UNL     1       5.241  -4.142  28.399  0.00  0.00    -0.331 OA
ATOM     41  C   UNL     1       5.363  -4.957  27.227  0.00  0.00    +0.340 C 
ATOM     42  C   UNL     1       4.861  -6.373  27.591  0.00  0.00    +0.214 C 
ATOM     43  C   UNL     1       3.382  -6.214  28.046  0.00  0.00    +0.180 C 
ATOM     44  C   UNL     1       3.216  -5.168  29.165  0.00  0.00    +0.177 C 
BRANCH  44  45
ATOM     45  O   UNL     1       1.810  -5.007  29.414  0.00  0.00    -0.386 OA
ATOM     46  H   UNL     1       1.357  -5.210  28.574  0.00  0.00    +0.210 HD
ENDBRANCH  44  45
BRANCH  43  47
ATOM     47  O   UNL     1       2.811  -7.463  28.454  0.00  0.00    -0.386 OA
ATOM     48  H   UNL     1       3.464  -7.847  29.068  0.00  0.00    +0.210 HD
ENDBRANCH  43  47
BRANCH  42  49
ATOM     49  O   UNL     1       4.942  -7.232  26.439  0.00  0.00    -0.383 OA
ATOM     50  H   UNL     1       4.039  -7.332  26.086  0.00  0.00    +0.210 HD
ENDBRANCH  42  49
BRANCH  39  51
ATOM     51  C   UNL     1       3.783  -2.717  29.692  0.00  0.00    +0.197 C 
BRANCH  51  52
ATOM     52  O   UNL     1       2.823  -1.773  29.239  0.00  0.00    -0.346 OA
BRANCH  52  56
ATOM     53  C   UNL     1       5.780   1.146  27.885  0.00  0.00    +0.041 C 
ATOM     54  C   UNL     1       4.627   1.381  28.859  0.00  0.00    +0.149 C 
ATOM     55  O   UNL     1       4.130   0.165  29.421  0.00  0.00    -0.343 OA
ATOM     56  C   UNL     1       3.400  -0.673  28.529  0.00  0.00    +0.282 C 
ATOM     57  C   UNL     1       2.212   0.052  27.860  0.00  0.00    +0.201 C 
ATOM     58  C   UNL     1       2.603   1.429  27.314  0.00  0.00    +0.179 C 
ATOM     59  C   UNL     1       3.457   2.210  28.318  0.00  0.00    +0.174 C 
BRANCH  59  60
ATOM     60  O   UNL     1       2.615   2.579  29.428  0.00  0.00    -0.387 OA
ATOM     61  H   UNL     1       2.921   3.450  29.760  0.00  0.00    +0.210 HD
ENDBRANCH  59  60
BRANCH  58  62
ATOM     62  O   UNL     1       3.243   1.308  26.036  0.00  0.00    -0.386 OA
ATOM     63  H   UNL     1       2.987   0.467  25.620  0.00  0.00    +0.210 HD
ENDBRANCH  58  62
BRANCH  57  64
ATOM     64  O   UNL     1       1.681  -0.765  26.797  0.00  0.00    -0.384 OA
ATOM     65  H   UNL     1       2.086  -0.465  25.963  0.00  0.00    +0.210 HD
ENDBRANCH  57  64
ENDBRANCH  52  56
ENDBRANCH  51  52
ENDBRANCH  39  51
ENDBRANCH  38  41
ENDBRANCH   1  38
TORSDOF 20
ENDMDL
MODEL 7
REMARK VINA RESULT:      -6.4      2.591      8.651
REMARK  Name = 
REMARK  22 active torsions:
REMARK  status: ('A' for Active; 'I' for Inactive)
REMARK    1  A    between atoms: C_1  and  C_2
REMARK    2  A    between atoms: C_4  and  O_68
REMARK    3  A    between atoms: C_6  and  O_67
REMARK    4  A    between atoms: C_8  and  O_66
REMARK    5  A    between atoms: C_10  and  O_13
REMARK    6  A    between atoms: O_13  and  C_14
REMARK    7  A    between atoms: C_14  and  C_15
REMARK    8  A    between atoms: C_17  and  O_65
REMARK    9  A    between atoms: C_19  and  O_64
REMARK   10  A    between atoms: C_21  and  O_63
REMARK   11  A    between atoms: C_23  and  O_26
REMARK   12  A    between atoms: O_26  and  C_27
REMARK   13  A    between atoms: C_28  and  C_55
REMARK   14  A    between atoms: C_32  and  O_39
REMARK   15  A    between atoms: C_34  and  O_38
REMARK   16  A    between atoms: O_39  and  C_40
REMARK   17  A    between atoms: C_42  and  O_54
REMARK   18  A    between atoms: C_44  and  O_53
REMARK   19  A    between atoms: C_46  and  O_52
REMARK   20  A    between atoms: C_48  and  C_51
REMARK   21  A    between atoms: C_57  and  O_62
REMARK   22  A    between atoms: C_58  and  O_61
REMARK                            x       y       z     vdW  Elec       q    Type
REMARK                         _______ _______ _______ _____ _____    ______ ____
ROOT
ATOM      1  C   UNL     1       3.342  -2.039  27.760  0.00  0.00    +0.214 A 
ATOM      2  C   UNL     1       4.110  -0.909  28.416  0.00  0.00    +0.238 A 
ATOM      3  O   UNL     1       4.552  -0.928  29.559  0.00  0.00    -0.283 OA
ATOM      4  C   UNL     1       4.443   0.253  27.618  0.00  0.00    +0.109 A 
ATOM      5  C   UNL     1       4.606   0.008  26.275  0.00  0.00    +0.147 A 
ATOM      6  C   UNL     1       5.133   1.004  25.458  0.00  0.00    +0.093 A 
ATOM      7  C   UNL     1       5.417   2.267  25.977  0.00  0.00    +0.131 A 
ATOM      8  C   UNL     1       5.239   2.520  27.334  0.00  0.00    +0.092 A 
ATOM      9  O   UNL     1       4.305  -1.197  25.715  0.00  0.00    -0.451 OA
ATOM     10  C   UNL     1       4.746   1.506  28.156  0.00  0.00    +0.135 A 
ATOM     11  C   UNL     1       3.513  -2.124  26.413  0.00  0.00    +0.181 A 
ENDROOT
BRANCH  11  12
ATOM     12  C   UNL     1       3.027  -3.186  25.441  0.00  0.00    +0.025 A 
ATOM     13  C   UNL     1       1.632  -3.472  25.400  0.00  0.00    +0.015 A 
ATOM     14  C   UNL     1       1.051  -4.308  24.442  0.00  0.00    +0.050 A 
ATOM     15  C   UNL     1       1.861  -4.914  23.510  0.00  0.00    +0.158 A 
ATOM     16  C   UNL     1       3.242  -4.744  23.579  0.00  0.00    +0.159 A 
ATOM     17  C   UNL     1       3.831  -3.890  24.527  0.00  0.00    +0.060 A 
BRANCH  16  18
ATOM     18  O   UNL     1       3.987  -5.449  22.672  0.00  0.00    -0.503 OA
ATOM     19  H   UNL     1       4.540  -4.806  22.187  0.00  0.00    +0.292 HD
ENDBRANCH  16  18
BRANCH  15  20
ATOM     20  O   UNL     1       1.293  -5.667  22.527  0.00  0.00    -0.503 OA
ATOM     21  H   UNL     1       0.579  -5.105  22.164  0.00  0.00    +0.292 HD
ENDBRANCH  15  20
ENDBRANCH  11  12
BRANCH  10  22
ATOM     22  O   UNL     1       4.527   1.771  29.479  0.00  0.00    -0.506 OA
ATOM     23  H   UNL     1       3.678   1.379  29.742  0.00  0.00    +0.292 HD
ENDBRANCH  10  22
BRANCH   7  24
ATOM     24  O   UNL     1       5.864   3.324  25.216  0.00  0.00    -0.461 OA
BRANCH  24  25
ATOM     25  C   UNL     1       7.282   3.513  25.288  0.00  0.00    +0.339 C 
ATOM     26  O   UNL     1       7.652   4.898  25.306  0.00  0.00    -0.334 OA
ATOM     27  C   UNL     1       7.323   5.595  24.102  0.00  0.00    +0.150 C 
ATOM     28  C   UNL     1       7.670   7.064  24.323  0.00  0.00    +0.041 C 
ATOM     29  C   UNL     1       8.095   5.009  22.912  0.00  0.00    +0.174 C 
ATOM     30  C   UNL     1       7.810   3.500  22.797  0.00  0.00    +0.180 C 
ATOM     31  C   UNL     1       7.999   2.778  24.141  0.00  0.00    +0.214 C 
BRANCH  31  32
ATOM     32  O   UNL     1       9.401   2.661  24.445  0.00  0.00    -0.383 OA
ATOM     33  H   UNL     1       9.892   2.680  23.601  0.00  0.00    +0.210 HD
ENDBRANCH  31  32
BRANCH  30  34
ATOM     34  O   UNL     1       8.650   2.935  21.781  0.00  0.00    -0.386 OA
ATOM     35  H   UNL     1       8.150   2.914  20.946  0.00  0.00    +0.210 HD
ENDBRANCH  30  34
BRANCH  29  36
ATOM     36  O   UNL     1       7.749   5.706  21.711  0.00  0.00    -0.387 OA
ATOM     37  H   UNL     1       8.478   6.303  21.476  0.00  0.00    +0.210 HD
ENDBRANCH  29  36
ENDBRANCH  24  25
ENDBRANCH   7  24
BRANCH   1  38
ATOM     38  O   UNL     1       2.576  -2.943  28.520  0.00  0.00    -0.453 OA
BRANCH  38  41
ATOM     39  C   UNL     1       5.279  -5.353  28.442  0.00  0.00    +0.179 C 
ATOM     40  O   UNL     1       4.410  -4.320  27.950  0.00  0.00    -0.331 OA
ATOM     41  C   UNL     1       3.234  -4.210  28.762  0.00  0.00    +0.340 C 
ATOM     42  C   UNL     1       2.367  -5.461  28.494  0.00  0.00    +0.214 C 
ATOM     43  C   UNL     1       3.235  -6.692  28.879  0.00  0.00    +0.180 C 
ATOM     44  C   UNL     1       4.602  -6.698  28.170  0.00  0.00    +0.177 C 
BRANCH  44  45
ATOM     45  O   UNL     1       5.367  -7.796  28.694  0.00  0.00    -0.386 OA
ATOM     46  H   UNL     1       6.296  -7.495  28.721  0.00  0.00    +0.210 HD
ENDBRANCH  44  45
BRANCH  43  47
ATOM     47  O   UNL     1       2.551  -7.927  28.635  0.00  0.00    -0.386 OA
ATOM     48  H   UNL     1       3.105  -8.607  29.058  0.00  0.00    +0.210 HD
ENDBRANCH  43  47
BRANCH  42  49
ATOM     49  O   UNL     1       1.177  -5.413  29.303  0.00  0.00    -0.383 OA
ATOM     50  H   UNL     1       1.239  -4.620  29.867  0.00  0.00    +0.210 HD
ENDBRANCH  42  49
BRANCH  39  51
ATOM     51  C   UNL     1       6.655  -5.195  27.802  0.00  0.00    +0.197 C 
BRANCH  51  52
ATOM     52  O   UNL     1       6.801  -3.859  27.343  0.00  0.00    -0.346 OA
BRANCH  52  56
ATOM     53  C   UNL     1       7.236  -4.674  23.072  0.00  0.00    +0.041 C 
ATOM     54  C   UNL     1       8.175  -5.108  24.196  0.00  0.00    +0.149 C 
ATOM     55  O   UNL     1       7.544  -5.071  25.478  0.00  0.00    -0.343 OA
ATOM     56  C   UNL     1       7.283  -3.770  25.999  0.00  0.00    +0.282 C 
ATOM     57  C   UNL     1       8.548  -2.887  26.075  0.00  0.00    +0.201 C 
ATOM     58  C   UNL     1       9.370  -2.937  24.783  0.00  0.00    +0.179 C 
ATOM     59  C   UNL     1       9.516  -4.372  24.264  0.00  0.00    +0.174 C 
BRANCH  59  60
ATOM     60  O   UNL     1      10.377  -5.088  25.171  0.00  0.00    -0.387 OA
ATOM     61  H   UNL     1       9.904  -5.898  25.457  0.00  0.00    +0.210 HD
ENDBRANCH  59  60
BRANCH  58  62
ATOM     62  O   UNL     1       8.820  -2.056  23.793  0.00  0.00    -0.386 OA
ATOM     63  H   UNL     1       9.312  -1.217  23.791  0.00  0.00    +0.210 HD
ENDBRANCH  58  62
BRANCH  57  64
ATOM     64  O   UNL     1       8.173  -1.526  26.365  0.00  0.00    -0.384 OA
ATOM     65  H   UNL     1       8.092  -1.053  25.516  0.00  0.00    +0.210 HD
ENDBRANCH  57  64
ENDBRANCH  52  56
ENDBRANCH  51  52
ENDBRANCH  39  51
ENDBRANCH  38  41
ENDBRANCH   1  38
TORSDOF 20
ENDMDL
MODEL 8
REMARK VINA RESULT:      -6.3      1.811      2.608
REMARK  Name = 
REMARK  22 active torsions:
REMARK  status: ('A' for Active; 'I' for Inactive)
REMARK    1  A    between atoms: C_1  and  C_2
REMARK    2  A    between atoms: C_4  and  O_68
REMARK    3  A    between atoms: C_6  and  O_67
REMARK    4  A    between atoms: C_8  and  O_66
REMARK    5  A    between atoms: C_10  and  O_13
REMARK    6  A    between atoms: O_13  and  C_14
REMARK    7  A    between atoms: C_14  and  C_15
REMARK    8  A    between atoms: C_17  and  O_65
REMARK    9  A    between atoms: C_19  and  O_64
REMARK   10  A    between atoms: C_21  and  O_63
REMARK   11  A    between atoms: C_23  and  O_26
REMARK   12  A    between atoms: O_26  and  C_27
REMARK   13  A    between atoms: C_28  and  C_55
REMARK   14  A    between atoms: C_32  and  O_39
REMARK   15  A    between atoms: C_34  and  O_38
REMARK   16  A    between atoms: O_39  and  C_40
REMARK   17  A    between atoms: C_42  and  O_54
REMARK   18  A    between atoms: C_44  and  O_53
REMARK   19  A    between atoms: C_46  and  O_52
REMARK   20  A    between atoms: C_48  and  C_51
REMARK   21  A    between atoms: C_57  and  O_62
REMARK   22  A    between atoms: C_58  and  O_61
REMARK                            x       y       z     vdW  Elec       q    Type
REMARK                         _______ _______ _______ _____ _____    ______ ____
ROOT
ATOM      1  C   UNL     1       3.981   3.810  26.605  0.00  0.00    +0.214 A 
ATOM      2  C   UNL     1       4.410   3.118  27.884  0.00  0.00    +0.238 A 
ATOM      3  O   UNL     1       4.533   3.665  28.974  0.00  0.00    -0.283 OA
ATOM      4  C   UNL     1       4.604   1.683  27.861  0.00  0.00    +0.109 A 
ATOM      5  C   UNL     1       3.827   1.008  26.949  0.00  0.00    +0.147 A 
ATOM      6  C   UNL     1       3.777  -0.383  26.991  0.00  0.00    +0.093 A 
ATOM      7  C   UNL     1       4.568  -1.092  27.895  0.00  0.00    +0.131 A 
ATOM      8  C   UNL     1       5.365  -0.408  28.810  0.00  0.00    +0.092 A 
ATOM      9  O   UNL     1       3.069   1.654  26.020  0.00  0.00    -0.451 OA
ATOM     10  C   UNL     1       5.383   0.987  28.788  0.00  0.00    +0.135 A 
ATOM     11  C   UNL     1       3.298   3.012  25.741  0.00  0.00    +0.181 A 
ENDROOT
BRANCH  11  12
ATOM     12  C   UNL     1       2.597   3.372  24.441  0.00  0.00    +0.025 A 
ATOM     13  C   UNL     1       1.220   3.734  24.497  0.00  0.00    +0.015 A 
ATOM     14  C   UNL     1       0.516   4.235  23.399  0.00  0.00    +0.050 A 
ATOM     15  C   UNL     1       1.167   4.360  22.193  0.00  0.00    +0.158 A 
ATOM     16  C   UNL     1       2.483   3.920  22.069  0.00  0.00    +0.159 A 
ATOM     17  C   UNL     1       3.202   3.434  23.173  0.00  0.00    +0.060 A 
BRANCH  16  18
ATOM     18  O   UNL     1       3.033   3.995  20.817  0.00  0.00    -0.503 OA
ATOM     19  H   UNL     1       2.892   4.905  20.491  0.00  0.00    +0.292 HD
ENDBRANCH  16  18
BRANCH  15  20
ATOM     20  O   UNL     1       0.510   4.921  21.139  0.00  0.00    -0.503 OA
ATOM     21  H   UNL     1       0.828   5.845  21.112  0.00  0.00    +0.292 HD
ENDBRANCH  15  20
ENDBRANCH  11  12
BRANCH  10  22
ATOM     22  O   UNL     1       6.202   1.654  29.655  0.00  0.00    -0.506 OA
ATOM     23  H   UNL     1       6.940   1.072  29.901  0.00  0.00    +0.292 HD
ENDBRANCH  10  22
BRANCH   7  24
ATOM     24  O   UNL     1       4.631  -2.466  27.942  0.00  0.00    -0.461 OA
BRANCH  24  25
ATOM     25  C   UNL     1       4.776  -3.070  26.652  0.00  0.00    +0.339 C 
ATOM     26  O   UNL     1       4.474  -4.472  26.664  0.00  0.00    -0.334 OA
ATOM     27  C   UNL     1       5.378  -5.247  27.456  0.00  0.00    +0.150 C 
ATOM     28  C   UNL     1       4.857  -6.680  27.460  0.00  0.00    +0.041 C 
ATOM     29  C   UNL     1       6.800  -5.168  26.882  0.00  0.00    +0.174 C 
ATOM     30  C   UNL     1       7.241  -3.695  26.783  0.00  0.00    +0.180 C 
ATOM     31  C   UNL     1       6.184  -2.828  26.080  0.00  0.00    +0.214 C 
BRANCH  31  32
ATOM     32  O   UNL     1       6.184  -3.098  24.667  0.00  0.00    -0.383 OA
ATOM     33  H   UNL     1       6.051  -2.250  24.201  0.00  0.00    +0.210 HD
ENDBRANCH  31  32
BRANCH  30  34
ATOM     34  O   UNL     1       8.504  -3.623  26.108  0.00  0.00    -0.386 OA
ATOM     35  H   UNL     1       8.726  -4.511  25.776  0.00  0.00    +0.210 HD
ENDBRANCH  30  34
BRANCH  29  36
ATOM     36  O   UNL     1       7.698  -5.936  27.689  0.00  0.00    -0.387 OA
ATOM     37  H   UNL     1       8.389  -5.346  28.033  0.00  0.00    +0.210 HD
ENDBRANCH  29  36
ENDBRANCH  24  25
ENDBRANCH   7  24
BRANCH   1  38
ATOM     38  O   UNL     1       4.231   5.178  26.393  0.00  0.00    -0.453 OA
BRANCH  38  41
ATOM     39  C   UNL     1       7.098   4.784  24.215  0.00  0.00    +0.179 C 
ATOM     40  O   UNL     1       5.999   4.377  25.048  0.00  0.00    -0.331 OA
ATOM     41  C   UNL     1       5.553   5.460  25.871  0.00  0.00    +0.340 C 
ATOM     42  C   UNL     1       6.640   5.710  26.941  0.00  0.00    +0.214 C 
ATOM     43  C   UNL     1       7.945   6.057  26.170  0.00  0.00    +0.180 C 
ATOM     44  C   UNL     1       8.314   4.993  25.120  0.00  0.00    +0.177 C 
BRANCH  44  45
ATOM     45  O   UNL     1       9.451   5.473  24.384  0.00  0.00    -0.386 OA
ATOM     46  H   UNL     1       9.886   6.137  24.952  0.00  0.00    +0.210 HD
ENDBRANCH  44  45
BRANCH  43  47
ATOM     47  O   UNL     1       9.049   6.272  27.058  0.00  0.00    -0.386 OA
ATOM     48  H   UNL     1       9.833   6.297  26.480  0.00  0.00    +0.210 HD
ENDBRANCH  43  47
BRANCH  42  49
ATOM     49  O   UNL     1       6.249   6.808  27.787  0.00  0.00    -0.383 OA
ATOM     50  H   UNL     1       5.732   7.428  27.241  0.00  0.00    +0.210 HD
ENDBRANCH  42  49
BRANCH  39  51
ATOM     51  C   UNL     1       7.300   3.750  23.112  0.00  0.00    +0.197 C 
BRANCH  51  52
ATOM     52  O   UNL     1       6.797   2.497  23.554  0.00  0.00    -0.346 OA
BRANCH  52  56
ATOM     53  C   UNL     1      10.648   0.635  24.448  0.00  0.00    +0.041 C 
ATOM     54  C   UNL     1      10.088   0.988  23.071  0.00  0.00    +0.149 C 
ATOM     55  O   UNL     1       9.040   1.956  23.139  0.00  0.00    -0.343 OA
ATOM     56  C   UNL     1       7.807   1.493  23.684  0.00  0.00    +0.282 C 
ATOM     57  C   UNL     1       7.252   0.255  22.948  0.00  0.00    +0.201 C 
ATOM     58  C   UNL     1       8.324  -0.815  22.718  0.00  0.00    +0.179 C 
ATOM     59  C   UNL     1       9.634  -0.199  22.215  0.00  0.00    +0.174 C 
BRANCH  59  60
ATOM     60  O   UNL     1       9.417   0.273  20.871  0.00  0.00    -0.387 OA
ATOM     61  H   UNL     1       9.945   1.091  20.751  0.00  0.00    +0.210 HD
ENDBRANCH  59  60
BRANCH  58  62
ATOM     62  O   UNL     1       8.516  -1.608  23.898  0.00  0.00    -0.386 OA
ATOM     63  H   UNL     1       9.466  -1.754  24.044  0.00  0.00    +0.210 HD
ENDBRANCH  58  62
BRANCH  57  64
ATOM     64  O   UNL     1       6.155  -0.304  23.699  0.00  0.00    -0.384 OA
ATOM     65  H   UNL     1       6.237  -1.275  23.666  0.00  0.00    +0.210 HD
ENDBRANCH  57  64
ENDBRANCH  52  56
ENDBRANCH  51  52
ENDBRANCH  39  51
ENDBRANCH  38  41
ENDBRANCH   1  38
TORSDOF 20
ENDMDL
MODEL 9
REMARK VINA RESULT:      -6.3      2.176      8.114
REMARK  Name = 
REMARK  22 active torsions:
REMARK  status: ('A' for Active; 'I' for Inactive)
REMARK    1  A    between atoms: C_1  and  C_2
REMARK    2  A    between atoms: C_4  and  O_68
REMARK    3  A    between atoms: C_6  and  O_67
REMARK    4  A    between atoms: C_8  and  O_66
REMARK    5  A    between atoms: C_10  and  O_13
REMARK    6  A    between atoms: O_13  and  C_14
REMARK    7  A    between atoms: C_14  and  C_15
REMARK    8  A    between atoms: C_17  and  O_65
REMARK    9  A    between atoms: C_19  and  O_64
REMARK   10  A    between atoms: C_21  and  O_63
REMARK   11  A    between atoms: C_23  and  O_26
REMARK   12  A    between atoms: O_26  and  C_27
REMARK   13  A    between atoms: C_28  and  C_55
REMARK   14  A    between atoms: C_32  and  O_39
REMARK   15  A    between atoms: C_34  and  O_38
REMARK   16  A    between atoms: O_39  and  C_40
REMARK   17  A    between atoms: C_42  and  O_54
REMARK   18  A    between atoms: C_44  and  O_53
REMARK   19  A    between atoms: C_46  and  O_52
REMARK   20  A    between atoms: C_48  and  C_51
REMARK   21  A    between atoms: C_57  and  O_62
REMARK   22  A    between atoms: C_58  and  O_61
REMARK                            x       y       z     vdW  Elec       q    Type
REMARK                         _______ _______ _______ _____ _____    ______ ____
ROOT
ATOM      1  C   UNL     1       5.941  -2.831  26.913  0.00  0.00    +0.214 A 
ATOM      2  C   UNL     1       6.876  -1.643  27.017  0.00  0.00    +0.238 A 
ATOM      3  O   UNL     1       8.039  -1.626  26.628  0.00  0.00    -0.283 OA
ATOM      4  C   UNL     1       6.350  -0.393  27.522  0.00  0.00    +0.109 A 
ATOM      5  C   UNL     1       5.012  -0.186  27.282  0.00  0.00    +0.147 A 
ATOM      6  C   UNL     1       4.458   1.066  27.533  0.00  0.00    +0.093 A 
ATOM      7  C   UNL     1       5.230   2.080  28.100  0.00  0.00    +0.131 A 
ATOM      8  C   UNL     1       6.582   1.867  28.355  0.00  0.00    +0.092 A 
ATOM      9  O   UNL     1       4.208  -1.158  26.768  0.00  0.00    -0.451 OA
ATOM     10  C   UNL     1       7.142   0.622  28.067  0.00  0.00    +0.135 A 
ATOM     11  C   UNL     1       4.629  -2.498  26.769  0.00  0.00    +0.181 A 
ENDROOT
BRANCH  11  12
ATOM     12  C   UNL     1       3.429  -3.391  26.500  0.00  0.00    +0.025 A 
ATOM     13  C   UNL     1       2.798  -3.304  25.226  0.00  0.00    +0.015 A 
ATOM     14  C   UNL     1       1.794  -4.182  24.808  0.00  0.00    +0.050 A 
ATOM     15  C   UNL     1       1.365  -5.161  25.674  0.00  0.00    +0.158 A 
ATOM     16  C   UNL     1       1.882  -5.216  26.967  0.00  0.00    +0.159 A 
ATOM     17  C   UNL     1       2.905  -4.349  27.386  0.00  0.00    +0.060 A 
BRANCH  16  18
ATOM     18  O   UNL     1       1.342  -6.161  27.798  0.00  0.00    -0.503 OA
ATOM     19  H   UNL     1       2.078  -6.561  28.302  0.00  0.00    +0.292 HD
ENDBRANCH  16  18
BRANCH  15  20
ATOM     20  O   UNL     1       0.443  -6.068  25.247  0.00  0.00    -0.503 OA
ATOM     21  H   UNL     1       0.019  -6.397  26.064  0.00  0.00    +0.292 HD
ENDBRANCH  15  20
ENDBRANCH  11  12
BRANCH  10  22
ATOM     22  O   UNL     1       8.457   0.400  28.363  0.00  0.00    -0.506 OA
ATOM     23  H   UNL     1       8.866  -0.092  27.632  0.00  0.00    +0.292 HD
ENDBRANCH  10  22
BRANCH   7  24
ATOM     24  O   UNL     1       4.733   3.315  28.448  0.00  0.00    -0.461 OA
BRANCH  24  25
ATOM     25  C   UNL     1       5.327   4.392  27.714  0.00  0.00    +0.339 C 
ATOM     26  O   UNL     1       4.510   5.570  27.708  0.00  0.00    -0.334 OA
ATOM     27  C   UNL     1       3.264   5.401  27.027  0.00  0.00    +0.150 C 
ATOM     28  C   UNL     1       2.472   6.692  27.210  0.00  0.00    +0.041 C 
ATOM     29  C   UNL     1       3.500   5.093  25.542  0.00  0.00    +0.174 C 
ATOM     30  C   UNL     1       4.403   3.853  25.404  0.00  0.00    +0.180 C 
ATOM     31  C   UNL     1       5.665   3.964  26.275  0.00  0.00    +0.214 C 
BRANCH  31  32
ATOM     32  O   UNL     1       6.584   4.906  25.694  0.00  0.00    -0.383 OA
ATOM     33  H   UNL     1       6.439   4.907  24.728  0.00  0.00    +0.210 HD
ENDBRANCH  31  32
BRANCH  30  34
ATOM     34  O   UNL     1       4.740   3.664  24.023  0.00  0.00    -0.386 OA
ATOM     35  H   UNL     1       5.417   2.966  23.964  0.00  0.00    +0.210 HD
ENDBRANCH  30  34
BRANCH  29  36
ATOM     36  O   UNL     1       2.248   4.913  24.873  0.00  0.00    -0.387 OA
ATOM     37  H   UNL     1       1.897   4.036  25.100  0.00  0.00    +0.210 HD
ENDBRANCH  29  36
ENDBRANCH  24  25
ENDBRANCH   7  24
BRANCH   1  38
ATOM     38  O   UNL     1       6.429  -4.151  26.907  0.00  0.00    -0.453 OA
BRANCH  38  41
ATOM     39  C   UNL     1       7.495  -4.030  23.448  0.00  0.00    +0.179 C 
ATOM     40  O   UNL     1       6.842  -3.590  24.650  0.00  0.00    -0.331 OA
ATOM     41  C   UNL     1       6.706  -4.668  25.583  0.00  0.00    +0.340 C 
ATOM     42  C   UNL     1       5.640  -5.636  25.021  0.00  0.00    +0.214 C 
ATOM     43  C   UNL     1       6.165  -6.117  23.639  0.00  0.00    +0.180 C 
ATOM     44  C   UNL     1       6.524  -4.949  22.702  0.00  0.00    +0.177 C 
BRANCH  44  45
ATOM     45  O   UNL     1       7.117  -5.500  21.515  0.00  0.00    -0.386 OA
ATOM     46  H   UNL     1       6.377  -5.756  20.931  0.00  0.00    +0.210 HD
ENDBRANCH  44  45
BRANCH  43  47
ATOM     47  O   UNL     1       5.237  -6.997  22.991  0.00  0.00    -0.386 OA
ATOM     48  H   UNL     1       4.426  -6.467  22.883  0.00  0.00    +0.210 HD
ENDBRANCH  43  47
BRANCH  42  49
ATOM     49  O   UNL     1       5.477  -6.754  25.913  0.00  0.00    -0.383 OA
ATOM     50  H   UNL     1       4.698  -6.571  26.471  0.00  0.00    +0.210 HD
ENDBRANCH  42  49
BRANCH  39  51
ATOM     51  C   UNL     1       7.952  -2.812  22.651  0.00  0.00    +0.197 C 
BRANCH  51  52
ATOM     52  O   UNL     1       7.062  -1.734  22.904  0.00  0.00    -0.346 OA
BRANCH  52  56
ATOM     53  C   UNL     1       9.914   1.440  21.964  0.00  0.00    +0.041 C 
ATOM     54  C   UNL     1       9.858   0.593  23.234  0.00  0.00    +0.149 C 
ATOM     55  O   UNL     1       9.117  -0.614  23.053  0.00  0.00    -0.343 OA
ATOM     56  C   UNL     1       7.706  -0.457  22.920  0.00  0.00    +0.282 C 
ATOM     57  C   UNL     1       7.072   0.308  24.101  0.00  0.00    +0.201 C 
ATOM     58  C   UNL     1       7.854   1.574  24.462  0.00  0.00    +0.179 C 
ATOM     59  C   UNL     1       9.364   1.313  24.493  0.00  0.00    +0.174 C 
BRANCH  59  60
ATOM     60  O   UNL     1       9.648   0.476  25.631  0.00  0.00    -0.387 OA
ATOM     61  H   UNL     1      10.361  -0.147  25.375  0.00  0.00    +0.210 HD
ENDBRANCH  59  60
BRANCH  58  62
ATOM     62  O   UNL     1       7.509   2.655  23.584  0.00  0.00    -0.386 OA
ATOM     63  H   UNL     1       6.602   2.534  23.255  0.00  0.00    +0.210 HD
ENDBRANCH  58  62
BRANCH  57  64
ATOM     64  O   UNL     1       5.708   0.648  23.783  0.00  0.00    -0.384 OA
ATOM     65  H   UNL     1       5.234  -0.181  23.584  0.00  0.00    +0.210 HD
ENDBRANCH  57  64
ENDBRANCH  52  56
ENDBRANCH  51  52
ENDBRANCH  39  51
ENDBRANCH  38  41
ENDBRANCH   1  38
TORSDOF 20
ENDMDL
