MODEL 1
REMARK VINA RESULT:      -8.0      0.000      0.000
REMARK  Name = 
REMARK  18 active torsions:
REMARK  status: ('A' for Active; 'I' for Inactive)
REMARK    1  A    between atoms: C_1  and  O_2
REMARK    2  A    between atoms: O_2  and  C_3
REMARK    3  A    between atoms: C_4  and  O_49
REMARK    4  A    between atoms: C_7  and  C_9
REMARK    5  A    between atoms: C_10  and  C_11
REMARK    6  A    between atoms: C_11  and  O_13
REMARK    7  A    between atoms: O_13  and  C_14
REMARK    8  A    between atoms: C_14  and  C_15
REMARK    9  A    between atoms: C_16  and  O_48
REMARK   10  A    between atoms: C_18  and  O_47
REMARK   11  A    between atoms: C_20  and  O_46
REMARK   12  A    between atoms: C_21  and  O_24
REMARK   13  A    between atoms: O_24  and  C_25
REMARK   14  A    between atoms: C_26  and  C_38
REMARK   15  A    between atoms: C_30  and  O_37
REMARK   16  A    between atoms: C_32  and  O_36
REMARK   17  A    between atoms: C_40  and  O_45
REMARK   18  A    between atoms: C_41  and  O_44
REMARK                            x       y       z     vdW  Elec       q    Type
REMARK                         _______ _______ _______ _____ _____    ______ ____
ROOT
ATOM      1  C   UNL     1       7.078  -3.037  21.989  0.00  0.00    +0.191 C 
ATOM      2  O   UNL     1       5.981  -2.356  22.647  0.00  0.00    -0.330 OA
ATOM      3  C   UNL     1       5.681  -2.915  23.936  0.00  0.00    +0.340 C 
ATOM      4  C   UNL     1       5.088  -4.326  23.754  0.00  0.00    +0.214 C 
ATOM      5  C   UNL     1       6.180  -5.177  23.072  0.00  0.00    +0.180 C 
ATOM      6  C   UNL     1       6.717  -4.522  21.781  0.00  0.00    +0.178 C 
ENDROOT
BRANCH   6   7
ATOM      7  O   UNL     1       5.731  -4.644  20.742  0.00  0.00    -0.386 OA
ATOM      8  H   UNL     1       6.064  -5.277  20.079  0.00  0.00    +0.210 HD
ENDBRANCH   6   7
BRANCH   5   9
ATOM      9  O   UNL     1       5.748  -6.518  22.835  0.00  0.00    -0.386 OA
ATOM     10  H   UNL     1       5.909  -7.020  23.657  0.00  0.00    +0.210 HD
ENDBRANCH   5   9
BRANCH   4  11
ATOM     11  O   UNL     1       3.872  -4.292  22.983  0.00  0.00    -0.383 OA
ATOM     12  H   UNL     1       3.156  -4.006  23.575  0.00  0.00    +0.210 HD
ENDBRANCH   4  11
BRANCH   3  13
ATOM     13  O   UNL     1       4.762  -2.088  24.645  0.00  0.00    -0.453 OA
BRANCH  13  14
ATOM     14  C   UNL     1       5.297  -1.238  25.608  0.00  0.00    +0.214 A 
ATOM     15  C   UNL     1       5.549   0.205  25.306  0.00  0.00    +0.238 A 
ATOM     16  O   UNL     1       5.530   0.628  24.154  0.00  0.00    -0.283 OA
ATOM     17  C   UNL     1       5.919   1.079  26.427  0.00  0.00    +0.109 A 
ATOM     18  C   UNL     1       6.337   0.463  27.604  0.00  0.00    +0.147 A 
ATOM     19  C   UNL     1       6.840   1.239  28.654  0.00  0.00    +0.092 A 
ATOM     20  C   UNL     1       6.908   2.623  28.510  0.00  0.00    +0.124 A 
ATOM     21  C   UNL     1       6.457   3.251  27.354  0.00  0.00    +0.091 A 
ATOM     22  O   UNL     1       6.300  -0.898  27.789  0.00  0.00    -0.451 OA
ATOM     23  C   UNL     1       5.949   2.477  26.316  0.00  0.00    +0.135 A 
ATOM     24  C   UNL     1       5.741  -1.704  26.799  0.00  0.00    +0.181 A 
BRANCH  24  25
ATOM     25  C   UNL     1       5.680  -3.149  27.174  0.00  0.00    +0.025 A 
ATOM     26  C   UNL     1       4.457  -3.746  27.540  0.00  0.00    +0.015 A 
ATOM     27  C   UNL     1       4.376  -5.116  27.824  0.00  0.00    +0.050 A 
ATOM     28  C   UNL     1       5.517  -5.898  27.746  0.00  0.00    +0.158 A 
ATOM     29  C   UNL     1       6.741  -5.326  27.437  0.00  0.00    +0.159 A 
ATOM     30  C   UNL     1       6.834  -3.961  27.181  0.00  0.00    +0.060 A 
BRANCH  29  31
ATOM     31  O   UNL     1       7.837  -6.143  27.381  0.00  0.00    -0.503 OA
ATOM     32  H   UNL     1       8.584  -5.630  27.025  0.00  0.00    +0.292 HD
ENDBRANCH  29  31
BRANCH  28  33
ATOM     33  O   UNL     1       5.427  -7.242  27.966  0.00  0.00    -0.503 OA
ATOM     34  H   UNL     1       6.355  -7.556  27.950  0.00  0.00    +0.292 HD
ENDBRANCH  28  33
ENDBRANCH  24  25
BRANCH  23  35
ATOM     35  O   UNL     1       5.454   3.104  25.208  0.00  0.00    -0.506 OA
ATOM     36  H   UNL     1       4.487   3.172  25.263  0.00  0.00    +0.292 HD
ENDBRANCH  23  35
BRANCH  20  37
ATOM     37  O   UNL     1       7.411   3.425  29.492  0.00  0.00    -0.507 OA
ATOM     38  H   UNL     1       7.722   2.875  30.229  0.00  0.00    +0.292 HD
ENDBRANCH  20  37
ENDBRANCH  13  14
ENDBRANCH   3  13
BRANCH   1  39
ATOM     39  C   UNL     1       8.427  -2.843  22.719  0.00  0.00    +0.266 C 
BRANCH  39  40
ATOM     40  O   UNL     1       8.723  -1.437  22.853  0.00  0.00    -0.459 OA
BRANCH  40  41
ATOM     41  C   UNL     1       9.973  -1.087  22.487  0.00  0.00    +0.332 C 
ATOM     42  O   UNL     1      10.884  -1.860  22.238  0.00  0.00    -0.246 OA
BRANCH  41  44
ATOM     43  C   UNL     1       9.623   1.099  23.464  0.00  0.00    +0.015 C 
ATOM     44  C   UNL     1      10.065   0.390  22.419  0.00  0.00    +0.092 C 
BRANCH  43  47
ATOM     45  C   UNL     1      10.920   4.661  23.656  0.00  0.00    +0.162 A 
ATOM     46  C   UNL     1      10.898   3.268  23.567  0.00  0.00    +0.057 A 
ATOM     47  C   UNL     1       9.681   2.568  23.566  0.00  0.00    -0.021 A 
ATOM     48  C   UNL     1       8.481   3.295  23.619  0.00  0.00    +0.012 A 
ATOM     49  C   UNL     1       8.495   4.687  23.730  0.00  0.00    +0.050 A 
ATOM     50  C   UNL     1       9.711   5.354  23.759  0.00  0.00    +0.158 A 
BRANCH  50  51
ATOM     51  O   UNL     1       9.697   6.717  23.871  0.00  0.00    -0.503 OA
ATOM     52  H   UNL     1      10.633   6.989  23.804  0.00  0.00    +0.292 HD
ENDBRANCH  50  51
BRANCH  45  54
ATOM     53  C   UNL     1      12.875   5.332  22.518  0.00  0.00    +0.277 C 
ATOM     54  O   UNL     1      12.057   5.430  23.681  0.00  0.00    -0.491 OA
ENDBRANCH  45  54
ENDBRANCH  43  47
ENDBRANCH  41  44
ENDBRANCH  40  41
ENDBRANCH  39  40
ENDBRANCH   1  39
TORSDOF 17
ENDMDL
MODEL 2
REMARK VINA RESULT:      -7.9      1.948      4.680
REMARK  Name = 
REMARK  18 active torsions:
REMARK  status: ('A' for Active; 'I' for Inactive)
REMARK    1  A    between atoms: C_1  and  O_2
REMARK    2  A    between atoms: O_2  and  C_3
REMARK    3  A    between atoms: C_4  and  O_49
REMARK    4  A    between atoms: C_7  and  C_9
REMARK    5  A    between atoms: C_10  and  C_11
REMARK    6  A    between atoms: C_11  and  O_13
REMARK    7  A    between atoms: O_13  and  C_14
REMARK    8  A    between atoms: C_14  and  C_15
REMARK    9  A    between atoms: C_16  and  O_48
REMARK   10  A    between atoms: C_18  and  O_47
REMARK   11  A    between atoms: C_20  and  O_46
REMARK   12  A    between atoms: C_21  and  O_24
REMARK   13  A    between atoms: O_24  and  C_25
REMARK   14  A    between atoms: C_26  and  C_38
REMARK   15  A    between atoms: C_30  and  O_37
REMARK   16  A    between atoms: C_32  and  O_36
REMARK   17  A    between atoms: C_40  and  O_45
REMARK   18  A    between atoms: C_41  and  O_44
REMARK                            x       y       z     vdW  Elec       q    Type
REMARK                         _______ _______ _______ _____ _____    ______ ____
ROOT
ATOM      1  C   UNL     1       6.350  -6.063  27.023  0.00  0.00    +0.191 C 
ATOM      2  O   UNL     1       5.341  -5.288  26.327  0.00  0.00    -0.330 OA
ATOM      3  C   UNL     1       5.135  -3.996  26.920  0.00  0.00    +0.340 C 
ATOM      4  C   UNL     1       4.474  -4.169  28.302  0.00  0.00    +0.214 C 
ATOM      5  C   UNL     1       5.468  -4.973  29.166  0.00  0.00    +0.180 C 
ATOM      6  C   UNL     1       5.915  -6.285  28.486  0.00  0.00    +0.178 C 
ENDROOT
BRANCH   6   7
ATOM      7  O   UNL     1       4.837  -7.236  28.536  0.00  0.00    -0.386 OA
ATOM      8  H   UNL     1       4.589  -7.367  29.470  0.00  0.00    +0.210 HD
ENDBRANCH   6   7
BRANCH   5   9
ATOM      9  O   UNL     1       4.966  -5.214  30.482  0.00  0.00    -0.386 OA
ATOM     10  H   UNL     1       5.739  -5.325  31.067  0.00  0.00    +0.210 HD
ENDBRANCH   5   9
BRANCH   4  11
ATOM     11  O   UNL     1       3.197  -4.827  28.197  0.00  0.00    -0.383 OA
ATOM     12  H   UNL     1       2.530  -4.237  28.585  0.00  0.00    +0.210 HD
ENDBRANCH   4  11
BRANCH   3  13
ATOM     13  O   UNL     1       4.315  -3.181  26.086  0.00  0.00    -0.453 OA
BRANCH  13  14
ATOM     14  C   UNL     1       4.895  -2.027  25.571  0.00  0.00    +0.214 A 
ATOM     15  C   UNL     1       4.768  -0.717  26.285  0.00  0.00    +0.238 A 
ATOM     16  O   UNL     1       3.960  -0.564  27.195  0.00  0.00    -0.283 OA
ATOM     17  C   UNL     1       5.574   0.405  25.790  0.00  0.00    +0.109 A 
ATOM     18  C   UNL     1       6.127   0.283  24.518  0.00  0.00    +0.147 A 
ATOM     19  C   UNL     1       6.781   1.374  23.935  0.00  0.00    +0.092 A 
ATOM     20  C   UNL     1       6.876   2.571  24.642  0.00  0.00    +0.124 A 
ATOM     21  C   UNL     1       6.363   2.692  25.928  0.00  0.00    +0.091 A 
ATOM     22  O   UNL     1       6.047  -0.872  23.778  0.00  0.00    -0.451 OA
ATOM     23  C   UNL     1       5.722   1.602  26.508  0.00  0.00    +0.135 A 
ATOM     24  C   UNL     1       5.469  -2.005  24.346  0.00  0.00    +0.181 A 
BRANCH  24  25
ATOM     25  C   UNL     1       5.537  -3.211  23.466  0.00  0.00    +0.025 A 
ATOM     26  C   UNL     1       6.682  -3.470  22.687  0.00  0.00    +0.015 A 
ATOM     27  C   UNL     1       6.784  -4.635  21.913  0.00  0.00    +0.050 A 
ATOM     28  C   UNL     1       5.742  -5.547  21.912  0.00  0.00    +0.158 A 
ATOM     29  C   UNL     1       4.584  -5.292  22.630  0.00  0.00    +0.159 A 
ATOM     30  C   UNL     1       4.464  -4.124  23.378  0.00  0.00    +0.060 A 
BRANCH  29  31
ATOM     31  O   UNL     1       3.582  -6.224  22.588  0.00  0.00    -0.503 OA
ATOM     32  H   UNL     1       3.750  -6.821  21.837  0.00  0.00    +0.292 HD
ENDBRANCH  29  31
BRANCH  28  33
ATOM     33  O   UNL     1       5.865  -6.708  21.205  0.00  0.00    -0.503 OA
ATOM     34  H   UNL     1       6.618  -6.549  20.600  0.00  0.00    +0.292 HD
ENDBRANCH  28  33
ENDBRANCH  24  25
BRANCH  23  35
ATOM     35  O   UNL     1       5.271   1.710  27.793  0.00  0.00    -0.506 OA
ATOM     36  H   UNL     1       4.305   1.808  27.804  0.00  0.00    +0.292 HD
ENDBRANCH  23  35
BRANCH  20  37
ATOM     37  O   UNL     1       7.482   3.672  24.112  0.00  0.00    -0.507 OA
ATOM     38  H   UNL     1       7.181   4.465  24.585  0.00  0.00    +0.292 HD
ENDBRANCH  20  37
ENDBRANCH  13  14
ENDBRANCH   3  13
BRANCH   1  39
ATOM     39  C   UNL     1       7.764  -5.451  26.902  0.00  0.00    +0.266 C 
BRANCH  39  40
ATOM     40  O   UNL     1       8.119  -5.288  25.513  0.00  0.00    -0.459 OA
BRANCH  40  41
ATOM     41  C   UNL     1       9.305  -4.682  25.302  0.00  0.00    +0.332 C 
ATOM     42  O   UNL     1      10.403  -5.182  25.490  0.00  0.00    -0.246 OA
BRANCH  41  44
ATOM     43  C   UNL     1      10.005  -2.756  24.014  0.00  0.00    +0.015 C 
ATOM     44  C   UNL     1       9.067  -3.312  24.790  0.00  0.00    +0.092 C 
BRANCH  43  47
ATOM     45  C   UNL     1      10.076   1.004  23.497  0.00  0.00    +0.162 A 
ATOM     46  C   UNL     1      10.176  -0.246  24.112  0.00  0.00    +0.057 A 
ATOM     47  C   UNL     1       9.900  -1.422  23.397  0.00  0.00    -0.021 A 
ATOM     48  C   UNL     1       9.554  -1.325  22.039  0.00  0.00    +0.012 A 
ATOM     49  C   UNL     1       9.431  -0.079  21.423  0.00  0.00    +0.050 A 
ATOM     50  C   UNL     1       9.681   1.072  22.158  0.00  0.00    +0.158 A 
BRANCH  50  51
ATOM     51  O   UNL     1       9.550   2.280  21.532  0.00  0.00    -0.503 OA
ATOM     52  H   UNL     1       8.842   2.151  20.871  0.00  0.00    +0.292 HD
ENDBRANCH  50  51
BRANCH  45  54
ATOM     53  C   UNL     1      11.198   3.078  23.422  0.00  0.00    +0.277 C 
ATOM     54  O   UNL     1      10.309   2.206  24.116  0.00  0.00    -0.491 OA
ENDBRANCH  45  54
ENDBRANCH  43  47
ENDBRANCH  41  44
ENDBRANCH  40  41
ENDBRANCH  39  40
ENDBRANCH   1  39
TORSDOF 17
ENDMDL
MODEL 3
REMARK VINA RESULT:      -7.5      2.581      9.770
REMARK  Name = 
REMARK  18 active torsions:
REMARK  status: ('A' for Active; 'I' for Inactive)
REMARK    1  A    between atoms: C_1  and  O_2
REMARK    2  A    between atoms: O_2  and  C_3
REMARK    3  A    between atoms: C_4  and  O_49
REMARK    4  A    between atoms: C_7  and  C_9
REMARK    5  A    between atoms: C_10  and  C_11
REMARK    6  A    between atoms: C_11  and  O_13
REMARK    7  A    between atoms: O_13  and  C_14
REMARK    8  A    between atoms: C_14  and  C_15
REMARK    9  A    between atoms: C_16  and  O_48
REMARK   10  A    between atoms: C_18  and  O_47
REMARK   11  A    between atoms: C_20  and  O_46
REMARK   12  A    between atoms: C_21  and  O_24
REMARK   13  A    between atoms: O_24  and  C_25
REMARK   14  A    between atoms: C_26  and  C_38
REMARK   15  A    between atoms: C_30  and  O_37
REMARK   16  A    between atoms: C_32  and  O_36
REMARK   17  A    between atoms: C_40  and  O_45
REMARK   18  A    between atoms: C_41  and  O_44
REMARK                            x       y       z     vdW  Elec       q    Type
REMARK                         _______ _______ _______ _____ _____    ______ ____
ROOT
ATOM      1  C   UNL     1       4.862  -0.197  27.533  0.00  0.00    +0.191 C 
ATOM      2  O   UNL     1       5.835  -0.338  26.467  0.00  0.00    -0.330 OA
ATOM      3  C   UNL     1       7.181  -0.428  26.962  0.00  0.00    +0.340 C 
ATOM      4  C   UNL     1       7.596   0.929  27.563  0.00  0.00    +0.214 C 
ATOM      5  C   UNL     1       6.637   1.197  28.742  0.00  0.00    +0.180 C 
ATOM      6  C   UNL     1       5.152   1.089  28.333  0.00  0.00    +0.178 C 
ENDROOT
BRANCH   6   7
ATOM      7  O   UNL     1       4.791   2.242  27.553  0.00  0.00    -0.386 OA
ATOM      8  H   UNL     1       5.587   2.791  27.432  0.00  0.00    +0.210 HD
ENDBRANCH   6   7
BRANCH   5   9
ATOM      9  O   UNL     1       6.911   2.444  29.385  0.00  0.00    -0.386 OA
ATOM     10  H   UNL     1       7.576   2.268  30.078  0.00  0.00    +0.210 HD
ENDBRANCH   5   9
BRANCH   4  11
ATOM     11  O   UNL     1       7.544   1.979  26.578  0.00  0.00    -0.383 OA
ATOM     12  H   UNL     1       8.449   2.122  26.254  0.00  0.00    +0.210 HD
ENDBRANCH   4  11
BRANCH   3  13
ATOM     13  O   UNL     1       8.080  -0.793  25.918  0.00  0.00    -0.453 OA
BRANCH  13  14
ATOM     14  C   UNL     1       7.599  -1.675  24.955  0.00  0.00    +0.214 A 
ATOM     15  C   UNL     1       7.480  -3.139  25.243  0.00  0.00    +0.238 A 
ATOM     16  O   UNL     1       8.020  -3.641  26.223  0.00  0.00    -0.283 OA
ATOM     17  C   UNL     1       6.776  -3.969  24.258  0.00  0.00    +0.109 A 
ATOM     18  C   UNL     1       6.573  -3.424  22.993  0.00  0.00    +0.147 A 
ATOM     19  C   UNL     1       6.041  -4.217  21.971  0.00  0.00    +0.092 A 
ATOM     20  C   UNL     1       5.713  -5.545  22.235  0.00  0.00    +0.124 A 
ATOM     21  C   UNL     1       5.875  -6.088  23.505  0.00  0.00    +0.091 A 
ATOM     22  O   UNL     1       6.891  -2.124  22.680  0.00  0.00    -0.451 OA
ATOM     23  C   UNL     1       6.395  -5.293  24.521  0.00  0.00    +0.135 A 
ATOM     24  C   UNL     1       7.357  -1.278  23.684  0.00  0.00    +0.181 A 
BRANCH  24  25
ATOM     25  C   UNL     1       7.571   0.128  23.225  0.00  0.00    +0.025 A 
ATOM     26  C   UNL     1       6.595   1.117  23.456  0.00  0.00    +0.015 A 
ATOM     27  C   UNL     1       6.815   2.453  23.093  0.00  0.00    +0.050 A 
ATOM     28  C   UNL     1       8.013   2.808  22.494  0.00  0.00    +0.158 A 
ATOM     29  C   UNL     1       8.969   1.845  22.208  0.00  0.00    +0.159 A 
ATOM     30  C   UNL     1       8.744   0.512  22.542  0.00  0.00    +0.060 A 
BRANCH  29  31
ATOM     31  O   UNL     1      10.130   2.250  21.609  0.00  0.00    -0.503 OA
ATOM     32  H   UNL     1      10.825   2.299  22.290  0.00  0.00    +0.292 HD
ENDBRANCH  29  31
BRANCH  28  33
ATOM     33  O   UNL     1       8.252   4.117  22.192  0.00  0.00    -0.503 OA
ATOM     34  H   UNL     1       7.993   4.607  23.000  0.00  0.00    +0.292 HD
ENDBRANCH  28  33
ENDBRANCH  24  25
BRANCH  23  35
ATOM     35  O   UNL     1       6.498  -5.817  25.780  0.00  0.00    -0.506 OA
ATOM     36  H   UNL     1       5.637  -5.786  26.228  0.00  0.00    +0.292 HD
ENDBRANCH  23  35
BRANCH  20  37
ATOM     37  O   UNL     1       5.213  -6.369  21.270  0.00  0.00    -0.507 OA
ATOM     38  H   UNL     1       5.400  -5.992  20.396  0.00  0.00    +0.292 HD
ENDBRANCH  20  37
ENDBRANCH  13  14
ENDBRANCH   3  13
BRANCH   1  39
ATOM     39  C   UNL     1       4.768  -1.454  28.428  0.00  0.00    +0.266 C 
BRANCH  39  40
ATOM     40  O   UNL     1       4.373  -2.597  27.641  0.00  0.00    -0.459 OA
BRANCH  40  41
ATOM     41  C   UNL     1       4.134  -3.716  28.354  0.00  0.00    +0.332 C 
ATOM     42  O   UNL     1       4.223  -3.820  29.567  0.00  0.00    -0.246 OA
BRANCH  41  44
ATOM     43  C   UNL     1       3.221  -4.465  26.241  0.00  0.00    +0.015 C 
ATOM     44  C   UNL     1       3.728  -4.803  27.432  0.00  0.00    +0.092 C 
BRANCH  43  47
ATOM     45  C   UNL     1       2.407  -7.695  24.421  0.00  0.00    +0.162 A 
ATOM     46  C   UNL     1       2.812  -6.810  25.424  0.00  0.00    +0.057 A 
ATOM     47  C   UNL     1       2.809  -5.425  25.202  0.00  0.00    -0.021 A 
ATOM     48  C   UNL     1       2.358  -4.937  23.964  0.00  0.00    +0.012 A 
ATOM     49  C   UNL     1       1.972  -5.815  22.950  0.00  0.00    +0.050 A 
ATOM     50  C   UNL     1       2.012  -7.182  23.183  0.00  0.00    +0.158 A 
BRANCH  50  51
ATOM     51  O   UNL     1       1.632  -8.021  22.172  0.00  0.00    -0.503 OA
ATOM     52  H   UNL     1       2.353  -7.974  21.515  0.00  0.00    +0.292 HD
ENDBRANCH  50  51
BRANCH  45  54
ATOM     53  C   UNL     1       1.291  -9.590  25.275  0.00  0.00    +0.277 C 
ATOM     54  O   UNL     1       2.391  -9.062  24.538  0.00  0.00    -0.491 OA
ENDBRANCH  45  54
ENDBRANCH  43  47
ENDBRANCH  41  44
ENDBRANCH  40  41
ENDBRANCH  39  40
ENDBRANCH   1  39
TORSDOF 17
ENDMDL
MODEL 4
REMARK VINA RESULT:      -7.4      1.507      2.274
REMARK  Name = 
REMARK  18 active torsions:
REMARK  status: ('A' for Active; 'I' for Inactive)
REMARK    1  A    between atoms: C_1  and  O_2
REMARK    2  A    between atoms: O_2  and  C_3
REMARK    3  A    between atoms: C_4  and  O_49
REMARK    4  A    between atoms: C_7  and  C_9
REMARK    5  A    between atoms: C_10  and  C_11
REMARK    6  A    between atoms: C_11  and  O_13
REMARK    7  A    between atoms: O_13  and  C_14
REMARK    8  A    between atoms: C_14  and  C_15
REMARK    9  A    between atoms: C_16  and  O_48
REMARK   10  A    between atoms: C_18  and  O_47
REMARK   11  A    between atoms: C_20  and  O_46
REMARK   12  A    between atoms: C_21  and  O_24
REMARK   13  A    between atoms: O_24  and  C_25
REMARK   14  A    between atoms: C_26  and  C_38
REMARK   15  A    between atoms: C_30  and  O_37
REMARK   16  A    between atoms: C_32  and  O_36
REMARK   17  A    between atoms: C_40  and  O_45
REMARK   18  A    between atoms: C_41  and  O_44
REMARK                            x       y       z     vdW  Elec       q    Type
REMARK                         _______ _______ _______ _____ _____    ______ ____
ROOT
ATOM      1  C   UNL     1       6.870  -2.857  22.519  0.00  0.00    +0.191 C 
ATOM      2  O   UNL     1       6.688  -2.934  23.955  0.00  0.00    -0.330 OA
ATOM      3  C   UNL     1       7.437  -4.008  24.546  0.00  0.00    +0.340 C 
ATOM      4  C   UNL     1       6.836  -5.355  24.099  0.00  0.00    +0.214 C 
ATOM      5  C   UNL     1       6.986  -5.414  22.564  0.00  0.00    +0.180 C 
ATOM      6  C   UNL     1       6.396  -4.170  21.865  0.00  0.00    +0.178 C 
ENDROOT
BRANCH   6   7
ATOM      7  O   UNL     1       4.961  -4.243  21.899  0.00  0.00    -0.386 OA
ATOM      8  H   UNL     1       4.623  -3.420  22.296  0.00  0.00    +0.210 HD
ENDBRANCH   6   7
BRANCH   5   9
ATOM      9  O   UNL     1       6.451  -6.621  22.017  0.00  0.00    -0.386 OA
ATOM     10  H   UNL     1       5.596  -6.782  22.461  0.00  0.00    +0.210 HD
ENDBRANCH   5   9
BRANCH   4  11
ATOM     11  O   UNL     1       5.461  -5.481  24.510  0.00  0.00    -0.383 OA
ATOM     12  H   UNL     1       5.378  -6.313  25.006  0.00  0.00    +0.210 HD
ENDBRANCH   4  11
BRANCH   3  13
ATOM     13  O   UNL     1       7.418  -3.915  25.968  0.00  0.00    -0.453 OA
BRANCH  13  14
ATOM     14  C   UNL     1       6.846  -2.770  26.515  0.00  0.00    +0.214 A 
ATOM     15  C   UNL     1       7.587  -1.470  26.527  0.00  0.00    +0.238 A 
ATOM     16  O   UNL     1       8.790  -1.421  26.289  0.00  0.00    -0.283 OA
ATOM     17  C   UNL     1       6.845  -0.270  26.930  0.00  0.00    +0.109 A 
ATOM     18  C   UNL     1       5.632  -0.461  27.589  0.00  0.00    +0.147 A 
ATOM     19  C   UNL     1       4.952   0.638  28.125  0.00  0.00    +0.092 A 
ATOM     20  C   UNL     1       5.495   1.913  27.987  0.00  0.00    +0.124 A 
ATOM     21  C   UNL     1       6.685   2.119  27.298  0.00  0.00    +0.091 A 
ATOM     22  O   UNL     1       5.063  -1.700  27.760  0.00  0.00    -0.451 OA
ATOM     23  C   UNL     1       7.354   1.026  26.757  0.00  0.00    +0.135 A 
ATOM     24  C   UNL     1       5.669  -2.813  27.181  0.00  0.00    +0.181 A 
BRANCH  24  25
ATOM     25  C   UNL     1       4.893  -4.076  27.367  0.00  0.00    +0.025 A 
ATOM     26  C   UNL     1       3.538  -4.151  26.985  0.00  0.00    +0.015 A 
ATOM     27  C   UNL     1       2.821  -5.350  27.089  0.00  0.00    +0.050 A 
ATOM     28  C   UNL     1       3.452  -6.483  27.577  0.00  0.00    +0.158 A 
ATOM     29  C   UNL     1       4.769  -6.423  28.006  0.00  0.00    +0.159 A 
ATOM     30  C   UNL     1       5.479  -5.228  27.931  0.00  0.00    +0.060 A 
BRANCH  29  31
ATOM     31  O   UNL     1       5.342  -7.570  28.486  0.00  0.00    -0.503 OA
ATOM     32  H   UNL     1       6.267  -7.376  28.720  0.00  0.00    +0.292 HD
ENDBRANCH  29  31
BRANCH  28  33
ATOM     33  O   UNL     1       2.772  -7.665  27.624  0.00  0.00    -0.503 OA
ATOM     34  H   UNL     1       3.043  -8.138  26.810  0.00  0.00    +0.292 HD
ENDBRANCH  28  33
ENDBRANCH  24  25
BRANCH  23  35
ATOM     35  O   UNL     1       8.492   1.243  26.032  0.00  0.00    -0.506 OA
ATOM     36  H   UNL     1       9.122   1.773  26.546  0.00  0.00    +0.292 HD
ENDBRANCH  23  35
BRANCH  20  37
ATOM     37  O   UNL     1       4.886   3.015  28.511  0.00  0.00    -0.507 OA
ATOM     38  H   UNL     1       4.643   3.621  27.793  0.00  0.00    +0.292 HD
ENDBRANCH  20  37
ENDBRANCH  13  14
ENDBRANCH   3  13
BRANCH   1  39
ATOM     39  C   UNL     1       8.313  -2.471  22.118  0.00  0.00    +0.266 C 
BRANCH  39  40
ATOM     40  O   UNL     1       8.721  -1.275  22.815  0.00  0.00    -0.459 OA
BRANCH  40  41
ATOM     41  C   UNL     1      10.050  -1.052  22.819  0.00  0.00    +0.332 C 
ATOM     42  O   UNL     1      10.909  -1.860  22.503  0.00  0.00    -0.246 OA
BRANCH  41  44
ATOM     43  C   UNL     1       9.527   1.311  22.764  0.00  0.00    +0.015 C 
ATOM     44  C   UNL     1      10.308   0.341  23.254  0.00  0.00    +0.092 C 
BRANCH  43  47
ATOM     45  C   UNL     1       8.627   4.886  23.666  0.00  0.00    +0.162 A 
ATOM     46  C   UNL     1       8.496   3.541  23.313  0.00  0.00    +0.057 A 
ATOM     47  C   UNL     1       9.630   2.735  23.128  0.00  0.00    -0.021 A 
ATOM     48  C   UNL     1      10.901   3.294  23.337  0.00  0.00    +0.012 A 
ATOM     49  C   UNL     1      11.040   4.642  23.669  0.00  0.00    +0.050 A 
ATOM     50  C   UNL     1       9.906   5.427  23.818  0.00  0.00    +0.158 A 
BRANCH  50  51
ATOM     51  O   UNL     1      10.069   6.745  24.140  0.00  0.00    -0.503 OA
ATOM     52  H   UNL     1      10.947   6.798  24.567  0.00  0.00    +0.292 HD
ENDBRANCH  50  51
BRANCH  45  54
ATOM     53  C   UNL     1       6.423   5.182  24.456  0.00  0.00    +0.277 C 
ATOM     54  O   UNL     1       7.581   5.755  23.853  0.00  0.00    -0.491 OA
ENDBRANCH  45  54
ENDBRANCH  43  47
ENDBRANCH  41  44
ENDBRANCH  40  41
ENDBRANCH  39  40
ENDBRANCH   1  39
TORSDOF 17
ENDMDL
MODEL 5
REMARK VINA RESULT:      -7.4      2.586      8.251
REMARK  Name = 
REMARK  18 active torsions:
REMARK  status: ('A' for Active; 'I' for Inactive)
REMARK    1  A    between atoms: C_1  and  O_2
REMARK    2  A    between atoms: O_2  and  C_3
REMARK    3  A    between atoms: C_4  and  O_49
REMARK    4  A    between atoms: C_7  and  C_9
REMARK    5  A    between atoms: C_10  and  C_11
REMARK    6  A    between atoms: C_11  and  O_13
REMARK    7  A    between atoms: O_13  and  C_14
REMARK    8  A    between atoms: C_14  and  C_15
REMARK    9  A    between atoms: C_16  and  O_48
REMARK   10  A    between atoms: C_18  and  O_47
REMARK   11  A    between atoms: C_20  and  O_46
REMARK   12  A    between atoms: C_21  and  O_24
REMARK   13  A    between atoms: O_24  and  C_25
REMARK   14  A    between atoms: C_26  and  C_38
REMARK   15  A    between atoms: C_30  and  O_37
REMARK   16  A    between atoms: C_32  and  O_36
REMARK   17  A    between atoms: C_40  and  O_45
REMARK   18  A    between atoms: C_41  and  O_44
REMARK                            x       y       z     vdW  Elec       q    Type
REMARK                         _______ _______ _______ _____ _____    ______ ____
ROOT
ATOM      1  C   UNL     1       8.542  -2.676  22.413  0.00  0.00    +0.191 C 
ATOM      2  O   UNL     1       8.832  -2.663  23.833  0.00  0.00    -0.330 OA
ATOM      3  C   UNL     1       8.243  -1.537  24.504  0.00  0.00    +0.340 C 
ATOM      4  C   UNL     1       8.948  -0.244  24.045  0.00  0.00    +0.214 C 
ATOM      5  C   UNL     1       8.696  -0.123  22.528  0.00  0.00    +0.180 C 
ATOM      6  C   UNL     1       9.102  -1.397  21.758  0.00  0.00    +0.178 C 
ENDROOT
BRANCH   6   7
ATOM      7  O   UNL     1      10.536  -1.472  21.687  0.00  0.00    -0.386 OA
ATOM      8  H   UNL     1      10.854  -1.973  22.460  0.00  0.00    +0.210 HD
ENDBRANCH   6   7
BRANCH   5   9
ATOM      9  O   UNL     1       9.312   1.041  21.972  0.00  0.00    -0.386 OA
ATOM     10  H   UNL     1       9.223   1.754  22.632  0.00  0.00    +0.210 HD
ENDBRANCH   5   9
BRANCH   4  11
ATOM     11  O   UNL     1      10.354  -0.272  24.357  0.00  0.00    -0.383 OA
ATOM     12  H   UNL     1      10.572   0.564  24.803  0.00  0.00    +0.210 HD
ENDBRANCH   4  11
BRANCH   3  13
ATOM     13  O   UNL     1       8.353  -1.676  25.918  0.00  0.00    -0.453 OA
BRANCH  13  14
ATOM     14  C   UNL     1       7.282  -2.273  26.575  0.00  0.00    +0.214 A 
ATOM     15  C   UNL     1       7.267  -3.746  26.839  0.00  0.00    +0.238 A 
ATOM     16  O   UNL     1       8.057  -4.502  26.282  0.00  0.00    -0.283 OA
ATOM     17  C   UNL     1       6.208  -4.268  27.712  0.00  0.00    +0.109 A 
ATOM     18  C   UNL     1       5.114  -3.439  27.954  0.00  0.00    +0.147 A 
ATOM     19  C   UNL     1       4.009  -3.934  28.655  0.00  0.00    +0.092 A 
ATOM     20  C   UNL     1       4.021  -5.250  29.112  0.00  0.00    +0.124 A 
ATOM     21  C   UNL     1       5.124  -6.072  28.910  0.00  0.00    +0.091 A 
ATOM     22  O   UNL     1       5.051  -2.140  27.513  0.00  0.00    -0.451 OA
ATOM     23  C   UNL     1       6.224  -5.575  28.221  0.00  0.00    +0.135 A 
ATOM     24  C   UNL     1       6.157  -1.584  26.873  0.00  0.00    +0.181 A 
BRANCH  24  25
ATOM     25  C   UNL     1       5.984  -0.138  26.536  0.00  0.00    +0.025 A 
ATOM     26  C   UNL     1       6.524   0.864  27.366  0.00  0.00    +0.015 A 
ATOM     27  C   UNL     1       6.429   2.219  27.022  0.00  0.00    +0.050 A 
ATOM     28  C   UNL     1       5.792   2.582  25.847  0.00  0.00    +0.158 A 
ATOM     29  C   UNL     1       5.207   1.620  25.038  0.00  0.00    +0.159 A 
ATOM     30  C   UNL     1       5.274   0.274  25.388  0.00  0.00    +0.060 A 
BRANCH  29  31
ATOM     31  O   UNL     1       4.584   2.034  23.893  0.00  0.00    -0.503 OA
ATOM     32  H   UNL     1       4.175   1.258  23.468  0.00  0.00    +0.292 HD
ENDBRANCH  29  31
BRANCH  28  33
ATOM     33  O   UNL     1       5.749   3.897  25.483  0.00  0.00    -0.503 OA
ATOM     34  H   UNL     1       5.424   3.886  24.560  0.00  0.00    +0.292 HD
ENDBRANCH  28  33
ENDBRANCH  24  25
BRANCH  23  35
ATOM     35  O   UNL     1       7.326  -6.370  28.077  0.00  0.00    -0.506 OA
ATOM     36  H   UNL     1       7.403  -6.978  28.831  0.00  0.00    +0.292 HD
ENDBRANCH  23  35
BRANCH  20  37
ATOM     37  O   UNL     1       2.962  -5.789  29.781  0.00  0.00    -0.507 OA
ATOM     38  H   UNL     1       2.461  -5.080  30.216  0.00  0.00    +0.292 HD
ENDBRANCH  20  37
ENDBRANCH  13  14
ENDBRANCH   3  13
BRANCH   1  39
ATOM     39  C   UNL     1       7.042  -2.900  22.111  0.00  0.00    +0.266 C 
BRANCH  39  40
ATOM     40  O   UNL     1       6.838  -4.215  21.554  0.00  0.00    -0.459 OA
BRANCH  40  41
ATOM     41  C   UNL     1       6.779  -5.209  22.464  0.00  0.00    +0.332 C 
ATOM     42  O   UNL     1       7.701  -5.948  22.771  0.00  0.00    -0.246 OA
BRANCH  41  44
ATOM     43  C   UNL     1       5.282  -5.712  24.298  0.00  0.00    +0.015 C 
ATOM     44  C   UNL     1       5.418  -5.255  23.048  0.00  0.00    +0.092 C 
BRANCH  43  47
ATOM     45  C   UNL     1       1.895  -4.811  25.755  0.00  0.00    +0.162 A 
ATOM     46  C   UNL     1       3.101  -4.710  25.058  0.00  0.00    +0.057 A 
ATOM     47  C   UNL     1       4.006  -5.783  25.031  0.00  0.00    -0.021 A 
ATOM     48  C   UNL     1       3.663  -6.976  25.688  0.00  0.00    +0.012 A 
ATOM     49  C   UNL     1       2.469  -7.077  26.404  0.00  0.00    +0.050 A 
ATOM     50  C   UNL     1       1.604  -5.993  26.441  0.00  0.00    +0.158 A 
BRANCH  50  51
ATOM     51  O   UNL     1       0.443  -6.116  27.152  0.00  0.00    -0.503 OA
ATOM     52  H   UNL     1       0.062  -5.217  27.179  0.00  0.00    +0.292 HD
ENDBRANCH  50  51
BRANCH  45  54
ATOM     53  C   UNL     1       1.415  -2.615  26.473  0.00  0.00    +0.277 C 
ATOM     54  O   UNL     1       0.957  -3.813  25.851  0.00  0.00    -0.491 OA
ENDBRANCH  45  54
ENDBRANCH  43  47
ENDBRANCH  41  44
ENDBRANCH  40  41
ENDBRANCH  39  40
ENDBRANCH   1  39
TORSDOF 17
ENDMDL
MODEL 6
REMARK VINA RESULT:      -7.3      2.061      8.041
REMARK  Name = 
REMARK  18 active torsions:
REMARK  status: ('A' for Active; 'I' for Inactive)
REMARK    1  A    between atoms: C_1  and  O_2
REMARK    2  A    between atoms: O_2  and  C_3
REMARK    3  A    between atoms: C_4  and  O_49
REMARK    4  A    between atoms: C_7  and  C_9
REMARK    5  A    between atoms: C_10  and  C_11
REMARK    6  A    between atoms: C_11  and  O_13
REMARK    7  A    between atoms: O_13  and  C_14
REMARK    8  A    between atoms: C_14  and  C_15
REMARK    9  A    between atoms: C_16  and  O_48
REMARK   10  A    between atoms: C_18  and  O_47
REMARK   11  A    between atoms: C_20  and  O_46
REMARK   12  A    between atoms: C_21  and  O_24
REMARK   13  A    between atoms: O_24  and  C_25
REMARK   14  A    between atoms: C_26  and  C_38
REMARK   15  A    between atoms: C_30  and  O_37
REMARK   16  A    between atoms: C_32  and  O_36
REMARK   17  A    between atoms: C_40  and  O_45
REMARK   18  A    between atoms: C_41  and  O_44
REMARK                            x       y       z     vdW  Elec       q    Type
REMARK                         _______ _______ _______ _____ _____    ______ ____
ROOT
ATOM      1  C   UNL     1       8.856   1.940  23.084  0.00  0.00    +0.191 C 
ATOM      2  O   UNL     1       9.028   1.468  24.443  0.00  0.00    -0.330 OA
ATOM      3  C   UNL     1       7.791   1.434  25.174  0.00  0.00    +0.340 C 
ATOM      4  C   UNL     1       7.305   2.876  25.420  0.00  0.00    +0.214 C 
ATOM      5  C   UNL     1       7.060   3.500  24.030  0.00  0.00    +0.180 C 
ATOM      6  C   UNL     1       8.286   3.373  23.101  0.00  0.00    +0.178 C 
ENDROOT
BRANCH   6   7
ATOM      7  O   UNL     1       9.301   4.298  23.526  0.00  0.00    -0.386 OA
ATOM      8  H   UNL     1       9.920   4.433  22.786  0.00  0.00    +0.210 HD
ENDBRANCH   6   7
BRANCH   5   9
ATOM      9  O   UNL     1       6.612   4.854  24.120  0.00  0.00    -0.386 OA
ATOM     10  H   UNL     1       5.955   4.891  24.841  0.00  0.00    +0.210 HD
ENDBRANCH   5   9
BRANCH   4  11
ATOM     11  O   UNL     1       8.263   3.631  26.187  0.00  0.00    -0.383 OA
ATOM     12  H   UNL     1       8.438   3.137  27.006  0.00  0.00    +0.210 HD
ENDBRANCH   4  11
BRANCH   3  13
ATOM     13  O   UNL     1       7.955   0.756  26.417  0.00  0.00    -0.453 OA
BRANCH  13  14
ATOM     14  C   UNL     1       7.377  -0.504  26.525  0.00  0.00    +0.214 A 
ATOM     15  C   UNL     1       8.130  -1.734  26.124  0.00  0.00    +0.238 A 
ATOM     16  O   UNL     1       9.164  -1.662  25.468  0.00  0.00    -0.283 OA
ATOM     17  C   UNL     1       7.534  -3.033  26.458  0.00  0.00    +0.109 A 
ATOM     18  C   UNL     1       6.185  -3.046  26.806  0.00  0.00    +0.147 A 
ATOM     19  C   UNL     1       5.527  -4.267  26.992  0.00  0.00    +0.092 A 
ATOM     20  C   UNL     1       6.233  -5.457  26.833  0.00  0.00    +0.124 A 
ATOM     21  C   UNL     1       7.589  -5.454  26.524  0.00  0.00    +0.091 A 
ATOM     22  O   UNL     1       5.443  -1.900  26.962  0.00  0.00    -0.451 OA
ATOM     23  C   UNL     1       8.243  -4.239  26.350  0.00  0.00    +0.135 A 
ATOM     24  C   UNL     1       6.074  -0.662  26.857  0.00  0.00    +0.181 A 
BRANCH  24  25
ATOM     25  C   UNL     1       5.170   0.492  27.145  0.00  0.00    +0.025 A 
ATOM     26  C   UNL     1       5.246   1.178  28.373  0.00  0.00    +0.015 A 
ATOM     27  C   UNL     1       4.452   2.305  28.625  0.00  0.00    +0.050 A 
ATOM     28  C   UNL     1       3.575   2.753  27.651  0.00  0.00    +0.158 A 
ATOM     29  C   UNL     1       3.444   2.067  26.453  0.00  0.00    +0.159 A 
ATOM     30  C   UNL     1       4.210   0.930  26.208  0.00  0.00    +0.060 A 
BRANCH  29  31
ATOM     31  O   UNL     1       2.558   2.549  25.529  0.00  0.00    -0.503 OA
ATOM     32  H   UNL     1       2.389   3.488  25.726  0.00  0.00    +0.292 HD
ENDBRANCH  29  31
BRANCH  28  33
ATOM     33  O   UNL     1       2.844   3.884  27.872  0.00  0.00    -0.503 OA
ATOM     34  H   UNL     1       2.036   3.569  28.327  0.00  0.00    +0.292 HD
ENDBRANCH  28  33
ENDBRANCH  24  25
BRANCH  23  35
ATOM     35  O   UNL     1       9.587  -4.243  26.103  0.00  0.00    -0.506 OA
ATOM     36  H   UNL     1       9.853  -5.090  25.708  0.00  0.00    +0.292 HD
ENDBRANCH  23  35
BRANCH  20  37
ATOM     37  O   UNL     1       5.635  -6.673  26.980  0.00  0.00    -0.507 OA
ATOM     38  H   UNL     1       5.794  -7.209  26.186  0.00  0.00    +0.292 HD
ENDBRANCH  20  37
ENDBRANCH  13  14
ENDBRANCH   3  13
BRANCH   1  39
ATOM     39  C   UNL     1       8.023   0.971  22.214  0.00  0.00    +0.266 C 
BRANCH  39  40
ATOM     40  O   UNL     1       8.027  -0.349  22.796  0.00  0.00    -0.459 OA
BRANCH  40  41
ATOM     41  C   UNL     1       8.627  -1.294  22.044  0.00  0.00    +0.332 C 
ATOM     42  O   UNL     1       9.532  -1.102  21.248  0.00  0.00    -0.246 OA
BRANCH  41  44
ATOM     43  C   UNL     1       6.746  -2.648  22.744  0.00  0.00    +0.015 C 
ATOM     44  C   UNL     1       8.024  -2.613  22.348  0.00  0.00    +0.092 C 
BRANCH  43  47
ATOM     45  C   UNL     1       3.965  -5.035  23.731  0.00  0.00    +0.162 A 
ATOM     46  C   UNL     1       4.654  -3.850  23.461  0.00  0.00    +0.057 A 
ATOM     47  C   UNL     1       5.994  -3.878  23.045  0.00  0.00    -0.021 A 
ATOM     48  C   UNL     1       6.624  -5.121  22.869  0.00  0.00    +0.012 A 
ATOM     49  C   UNL     1       5.949  -6.309  23.156  0.00  0.00    +0.050 A 
ATOM     50  C   UNL     1       4.633  -6.255  23.595  0.00  0.00    +0.158 A 
BRANCH  50  51
ATOM     51  O   UNL     1       3.996  -7.432  23.873  0.00  0.00    -0.503 OA
ATOM     52  H   UNL     1       4.223  -8.027  23.132  0.00  0.00    +0.292 HD
ENDBRANCH  50  51
BRANCH  45  54
ATOM     53  C   UNL     1       2.234  -4.018  24.971  0.00  0.00    +0.277 C 
ATOM     54  O   UNL     1       2.663  -5.108  24.157  0.00  0.00    -0.491 OA
ENDBRANCH  45  54
ENDBRANCH  43  47
ENDBRANCH  41  44
ENDBRANCH  40  41
ENDBRANCH  39  40
ENDBRANCH   1  39
TORSDOF 17
ENDMDL
MODEL 7
REMARK VINA RESULT:      -7.1      1.888      9.250
REMARK  Name = 
REMARK  18 active torsions:
REMARK  status: ('A' for Active; 'I' for Inactive)
REMARK    1  A    between atoms: C_1  and  O_2
REMARK    2  A    between atoms: O_2  and  C_3
REMARK    3  A    between atoms: C_4  and  O_49
REMARK    4  A    between atoms: C_7  and  C_9
REMARK    5  A    between atoms: C_10  and  C_11
REMARK    6  A    between atoms: C_11  and  O_13
REMARK    7  A    between atoms: O_13  and  C_14
REMARK    8  A    between atoms: C_14  and  C_15
REMARK    9  A    between atoms: C_16  and  O_48
REMARK   10  A    between atoms: C_18  and  O_47
REMARK   11  A    between atoms: C_20  and  O_46
REMARK   12  A    between atoms: C_21  and  O_24
REMARK   13  A    between atoms: O_24  and  C_25
REMARK   14  A    between atoms: C_26  and  C_38
REMARK   15  A    between atoms: C_30  and  O_37
REMARK   16  A    between atoms: C_32  and  O_36
REMARK   17  A    between atoms: C_40  and  O_45
REMARK   18  A    between atoms: C_41  and  O_44
REMARK                            x       y       z     vdW  Elec       q    Type
REMARK                         _______ _______ _______ _____ _____    ______ ____
ROOT
ATOM      1  C   UNL     1       4.541   1.397  28.444  0.00  0.00    +0.191 C 
ATOM      2  O   UNL     1       4.792   1.519  27.021  0.00  0.00    -0.330 OA
ATOM      3  C   UNL     1       5.759   0.566  26.551  0.00  0.00    +0.340 C 
ATOM      4  C   UNL     1       7.145   0.918  27.128  0.00  0.00    +0.214 C 
ATOM      5  C   UNL     1       7.022   0.804  28.662  0.00  0.00    +0.180 C 
ATOM      6  C   UNL     1       5.849   1.636  29.224  0.00  0.00    +0.178 C 
ENDROOT
BRANCH   6   7
ATOM      7  O   UNL     1       6.195   3.031  29.183  0.00  0.00    -0.386 OA
ATOM      8  H   UNL     1       6.632   3.262  30.023  0.00  0.00    +0.210 HD
ENDBRANCH   6   7
BRANCH   5   9
ATOM      9  O   UNL     1       8.249   1.120  29.325  0.00  0.00    -0.386 OA
ATOM     10  H   UNL     1       8.283   0.577  30.135  0.00  0.00    +0.210 HD
ENDBRANCH   5   9
BRANCH   4  11
ATOM     11  O   UNL     1       7.568   2.233  26.718  0.00  0.00    -0.383 OA
ATOM     12  H   UNL     1       7.646   2.779  27.518  0.00  0.00    +0.210 HD
ENDBRANCH   4  11
BRANCH   3  13
ATOM     13  O   UNL     1       5.812   0.560  25.126  0.00  0.00    -0.453 OA
BRANCH  13  14
ATOM     14  C   UNL     1       6.224  -0.622  24.519  0.00  0.00    +0.214 A 
ATOM     15  C   UNL     1       5.445  -1.888  24.691  0.00  0.00    +0.238 A 
ATOM     16  O   UNL     1       4.577  -1.989  25.552  0.00  0.00    -0.283 OA
ATOM     17  C   UNL     1       5.824  -3.036  23.858  0.00  0.00    +0.109 A 
ATOM     18  C   UNL     1       7.066  -2.987  23.230  0.00  0.00    +0.147 A 
ATOM     19  C   UNL     1       7.544  -4.109  22.545  0.00  0.00    +0.092 A 
ATOM     20  C   UNL     1       6.765  -5.263  22.494  0.00  0.00    +0.124 A 
ATOM     21  C   UNL     1       5.507  -5.309  23.084  0.00  0.00    +0.091 A 
ATOM     22  O   UNL     1       7.875  -1.877  23.263  0.00  0.00    -0.451 OA
ATOM     23  C   UNL     1       5.031  -4.189  23.756  0.00  0.00    +0.135 A 
ATOM     24  C   UNL     1       7.410  -0.713  23.872  0.00  0.00    +0.181 A 
BRANCH  24  25
ATOM     25  C   UNL     1       8.352   0.440  23.749  0.00  0.00    +0.025 A 
ATOM     26  C   UNL     1       9.654   0.365  24.282  0.00  0.00    +0.015 A 
ATOM     27  C   UNL     1      10.569   1.413  24.110  0.00  0.00    +0.050 A 
ATOM     28  C   UNL     1      10.188   2.544  23.406  0.00  0.00    +0.158 A 
ATOM     29  C   UNL     1       8.897   2.664  22.916  0.00  0.00    +0.159 A 
ATOM     30  C   UNL     1       7.975   1.638  23.107  0.00  0.00    +0.060 A 
BRANCH  29  31
ATOM     31  O   UNL     1       8.571   3.805  22.235  0.00  0.00    -0.503 OA
ATOM     32  H   UNL     1       7.684   3.689  21.849  0.00  0.00    +0.292 HD
ENDBRANCH  29  31
BRANCH  28  33
ATOM     33  O   UNL     1      11.096   3.539  23.189  0.00  0.00    -0.503 OA
ATOM     34  H   UNL     1      11.113   3.648  22.216  0.00  0.00    +0.292 HD
ENDBRANCH  28  33
ENDBRANCH  24  25
BRANCH  23  35
ATOM     35  O   UNL     1       3.771  -4.223  24.284  0.00  0.00    -0.506 OA
ATOM     36  H   UNL     1       3.742  -4.823  25.048  0.00  0.00    +0.292 HD
ENDBRANCH  23  35
BRANCH  20  37
ATOM     37  O   UNL     1       7.193  -6.392  21.860  0.00  0.00    -0.507 OA
ATOM     38  H   UNL     1       6.431  -6.963  21.670  0.00  0.00    +0.292 HD
ENDBRANCH  20  37
ENDBRANCH  13  14
ENDBRANCH   3  13
BRANCH   1  39
ATOM     39  C   UNL     1       3.852   0.064  28.817  0.00  0.00    +0.266 C 
BRANCH  39  40
ATOM     40  O   UNL     1       2.593  -0.058  28.123  0.00  0.00    -0.459 OA
BRANCH  40  41
ATOM     41  C   UNL     1       2.036  -1.285  28.179  0.00  0.00    +0.332 C 
ATOM     42  O   UNL     1       0.887  -1.559  27.872  0.00  0.00    -0.246 OA
BRANCH  41  44
ATOM     43  C   UNL     1       3.148  -3.429  28.019  0.00  0.00    +0.015 C 
ATOM     44  C   UNL     1       3.046  -2.257  28.657  0.00  0.00    +0.092 C 
BRANCH  43  47
ATOM     45  C   UNL     1       6.309  -5.529  28.101  0.00  0.00    +0.162 A 
ATOM     46  C   UNL     1       5.401  -4.523  27.762  0.00  0.00    +0.057 A 
ATOM     47  C   UNL     1       4.126  -4.481  28.348  0.00  0.00    -0.021 A 
ATOM     48  C   UNL     1       3.789  -5.447  29.310  0.00  0.00    +0.012 A 
ATOM     49  C   UNL     1       4.683  -6.467  29.638  0.00  0.00    +0.050 A 
ATOM     50  C   UNL     1       5.927  -6.506  29.023  0.00  0.00    +0.158 A 
BRANCH  50  51
ATOM     51  O   UNL     1       6.783  -7.517  29.360  0.00  0.00    -0.503 OA
ATOM     52  H   UNL     1       6.664  -8.195  28.667  0.00  0.00    +0.292 HD
ENDBRANCH  50  51
BRANCH  45  54
ATOM     53  C   UNL     1       7.692  -5.267  26.206  0.00  0.00    +0.277 C 
ATOM     54  O   UNL     1       7.568  -5.662  27.571  0.00  0.00    -0.491 OA
ENDBRANCH  45  54
ENDBRANCH  43  47
ENDBRANCH  41  44
ENDBRANCH  40  41
ENDBRANCH  39  40
ENDBRANCH   1  39
TORSDOF 17
ENDMDL
MODEL 8
REMARK VINA RESULT:      -7.0      2.025      6.983
REMARK  Name = 
REMARK  18 active torsions:
REMARK  status: ('A' for Active; 'I' for Inactive)
REMARK    1  A    between atoms: C_1  and  O_2
REMARK    2  A    between atoms: O_2  and  C_3
REMARK    3  A    between atoms: C_4  and  O_49
REMARK    4  A    between atoms: C_7  and  C_9
REMARK    5  A    between atoms: C_10  and  C_11
REMARK    6  A    between atoms: C_11  and  O_13
REMARK    7  A    between atoms: O_13  and  C_14
REMARK    8  A    between atoms: C_14  and  C_15
REMARK    9  A    between atoms: C_16  and  O_48
REMARK   10  A    between atoms: C_18  and  O_47
REMARK   11  A    between atoms: C_20  and  O_46
REMARK   12  A    between atoms: C_21  and  O_24
REMARK   13  A    between atoms: O_24  and  C_25
REMARK   14  A    between atoms: C_26  and  C_38
REMARK   15  A    between atoms: C_30  and  O_37
REMARK   16  A    between atoms: C_32  and  O_36
REMARK   17  A    between atoms: C_40  and  O_45
REMARK   18  A    between atoms: C_41  and  O_44
REMARK                            x       y       z     vdW  Elec       q    Type
REMARK                         _______ _______ _______ _____ _____    ______ ____
ROOT
ATOM      1  C   UNL     1       5.713   3.071  26.404  0.00  0.00    +0.191 C 
ATOM      2  O   UNL     1       6.670   1.982  26.358  0.00  0.00    -0.330 OA
ATOM      3  C   UNL     1       6.046   0.697  26.509  0.00  0.00    +0.340 C 
ATOM      4  C   UNL     1       5.508   0.557  27.947  0.00  0.00    +0.214 C 
ATOM      5  C   UNL     1       4.447   1.662  28.127  0.00  0.00    +0.180 C 
ATOM      6  C   UNL     1       4.985   3.063  27.763  0.00  0.00    +0.178 C 
ENDROOT
BRANCH   6   7
ATOM      7  O   UNL     1       5.876   3.512  28.798  0.00  0.00    -0.386 OA
ATOM      8  H   UNL     1       6.274   2.729  29.219  0.00  0.00    +0.210 HD
ENDBRANCH   6   7
BRANCH   5   9
ATOM      9  O   UNL     1       3.872   1.649  29.436  0.00  0.00    -0.386 OA
ATOM     10  H   UNL     1       3.103   2.251  29.416  0.00  0.00    +0.210 HD
ENDBRANCH   5   9
BRANCH   4  11
ATOM     11  O   UNL     1       6.567   0.664  28.919  0.00  0.00    -0.383 OA
ATOM     12  H   UNL     1       7.129   1.413  28.659  0.00  0.00    +0.210 HD
ENDBRANCH   4  11
BRANCH   3  13
ATOM     13  O   UNL     1       6.973  -0.351  26.232  0.00  0.00    -0.453 OA
BRANCH  13  14
ATOM     14  C   UNL     1       6.527  -1.382  25.412  0.00  0.00    +0.214 A 
ATOM     15  C   UNL     1       5.724  -2.516  25.969  0.00  0.00    +0.238 A 
ATOM     16  O   UNL     1       5.643  -2.705  27.178  0.00  0.00    -0.283 OA
ATOM     17  C   UNL     1       5.119  -3.452  25.014  0.00  0.00    +0.109 A 
ATOM     18  C   UNL     1       5.599  -3.430  23.706  0.00  0.00    +0.147 A 
ATOM     19  C   UNL     1       5.166  -4.394  22.790  0.00  0.00    +0.092 A 
ATOM     20  C   UNL     1       4.252  -5.363  23.197  0.00  0.00    +0.124 A 
ATOM     21  C   UNL     1       3.736  -5.370  24.488  0.00  0.00    +0.091 A 
ATOM     22  O   UNL     1       6.511  -2.503  23.262  0.00  0.00    -0.451 OA
ATOM     23  C   UNL     1       4.161  -4.404  25.394  0.00  0.00    +0.135 A 
ATOM     24  C   UNL     1       6.915  -1.481  24.119  0.00  0.00    +0.181 A 
BRANCH  24  25
ATOM     25  C   UNL     1       7.831  -0.493  23.475  0.00  0.00    +0.025 A 
ATOM     26  C   UNL     1       9.224  -0.562  23.679  0.00  0.00    +0.015 A 
ATOM     27  C   UNL     1      10.098   0.316  23.023  0.00  0.00    +0.050 A 
ATOM     28  C   UNL     1       9.585   1.271  22.160  0.00  0.00    +0.158 A 
ATOM     29  C   UNL     1       8.216   1.393  21.980  0.00  0.00    +0.159 A 
ATOM     30  C   UNL     1       7.341   0.542  22.650  0.00  0.00    +0.060 A 
BRANCH  29  31
ATOM     31  O   UNL     1       7.764   2.358  21.122  0.00  0.00    -0.503 OA
ATOM     32  H   UNL     1       8.406   3.090  21.118  0.00  0.00    +0.292 HD
ENDBRANCH  29  31
BRANCH  28  33
ATOM     33  O   UNL     1      10.439   2.087  21.477  0.00  0.00    -0.503 OA
ATOM     34  H   UNL     1      10.395   2.942  21.952  0.00  0.00    +0.292 HD
ENDBRANCH  28  33
ENDBRANCH  24  25
BRANCH  23  35
ATOM     35  O   UNL     1       3.607  -4.383  26.643  0.00  0.00    -0.506 OA
ATOM     36  H   UNL     1       3.130  -5.212  26.813  0.00  0.00    +0.292 HD
ENDBRANCH  23  35
BRANCH  20  37
ATOM     37  O   UNL     1       3.815  -6.339  22.351  0.00  0.00    -0.507 OA
ATOM     38  H   UNL     1       4.561  -6.667  21.823  0.00  0.00    +0.292 HD
ENDBRANCH  20  37
ENDBRANCH  13  14
ENDBRANCH   3  13
BRANCH   1  39
ATOM     39  C   UNL     1       4.743   3.066  25.201  0.00  0.00    +0.266 C 
BRANCH  39  40
ATOM     40  O   UNL     1       4.886   4.284  24.441  0.00  0.00    -0.459 OA
BRANCH  40  41
ATOM     41  C   UNL     1       5.718   4.194  23.383  0.00  0.00    +0.332 C 
ATOM     42  O   UNL     1       5.513   3.545  22.370  0.00  0.00    -0.246 OA
BRANCH  41  44
ATOM     43  C   UNL     1       8.053   4.401  23.990  0.00  0.00    +0.015 C 
ATOM     44  C   UNL     1       6.921   5.022  23.638  0.00  0.00    +0.092 C 
BRANCH  43  47
ATOM     45  C   UNL     1      11.730   5.332  23.870  0.00  0.00    +0.162 A 
ATOM     46  C   UNL     1      10.529   4.665  23.620  0.00  0.00    +0.057 A 
ATOM     47  C   UNL     1       9.338   5.077  24.238  0.00  0.00    -0.021 A 
ATOM     48  C   UNL     1       9.366   6.197  25.086  0.00  0.00    +0.012 A 
ATOM     49  C   UNL     1      10.566   6.856  25.356  0.00  0.00    +0.050 A 
ATOM     50  C   UNL     1      11.736   6.411  24.757  0.00  0.00    +0.158 A 
BRANCH  50  51
ATOM     51  O   UNL     1      12.899   7.072  25.041  0.00  0.00    -0.503 OA
ATOM     52  H   UNL     1      13.537   6.768  24.367  0.00  0.00    +0.292 HD
ENDBRANCH  50  51
BRANCH  45  54
ATOM     53  C   UNL     1      13.229   5.594  22.066  0.00  0.00    +0.277 C 
ATOM     54  O   UNL     1      12.945   4.993  23.328  0.00  0.00    -0.491 OA
ENDBRANCH  45  54
ENDBRANCH  43  47
ENDBRANCH  41  44
ENDBRANCH  40  41
ENDBRANCH  39  40
ENDBRANCH   1  39
TORSDOF 17
ENDMDL
MODEL 9
REMARK VINA RESULT:      -7.0      2.569      8.858
REMARK  Name = 
REMARK  18 active torsions:
REMARK  status: ('A' for Active; 'I' for Inactive)
REMARK    1  A    between atoms: C_1  and  O_2
REMARK    2  A    between atoms: O_2  and  C_3
REMARK    3  A    between atoms: C_4  and  O_49
REMARK    4  A    between atoms: C_7  and  C_9
REMARK    5  A    between atoms: C_10  and  C_11
REMARK    6  A    between atoms: C_11  and  O_13
REMARK    7  A    between atoms: O_13  and  C_14
REMARK    8  A    between atoms: C_14  and  C_15
REMARK    9  A    between atoms: C_16  and  O_48
REMARK   10  A    between atoms: C_18  and  O_47
REMARK   11  A    between atoms: C_20  and  O_46
REMARK   12  A    between atoms: C_21  and  O_24
REMARK   13  A    between atoms: O_24  and  C_25
REMARK   14  A    between atoms: C_26  and  C_38
REMARK   15  A    between atoms: C_30  and  O_37
REMARK   16  A    between atoms: C_32  and  O_36
REMARK   17  A    between atoms: C_40  and  O_45
REMARK   18  A    between atoms: C_41  and  O_44
REMARK                            x       y       z     vdW  Elec       q    Type
REMARK                         _______ _______ _______ _____ _____    ______ ____
ROOT
ATOM      1  C   UNL     1       8.790   0.628  24.552  0.00  0.00    +0.191 C 
ATOM      2  O   UNL     1       8.754   2.015  24.133  0.00  0.00    -0.330 OA
ATOM      3  C   UNL     1       8.072   2.193  22.880  0.00  0.00    +0.340 C 
ATOM      4  C   UNL     1       8.910   1.563  21.750  0.00  0.00    +0.214 C 
ATOM      5  C   UNL     1       9.011   0.056  22.066  0.00  0.00    +0.180 C 
ATOM      6  C   UNL     1       9.531  -0.214  23.495  0.00  0.00    +0.178 C 
ENDROOT
BRANCH   6   7
ATOM      7  O   UNL     1      10.941   0.065  23.546  0.00  0.00    -0.386 OA
ATOM      8  H   UNL     1      11.160   0.362  24.449  0.00  0.00    +0.210 HD
ENDBRANCH   6   7
BRANCH   5   9
ATOM      9  O   UNL     1       9.780  -0.649  21.090  0.00  0.00    -0.386 OA
ATOM     10  H   UNL     1       9.155  -0.970  20.411  0.00  0.00    +0.210 HD
ENDBRANCH   5   9
BRANCH   4  11
ATOM     11  O   UNL     1      10.208   2.179  21.650  0.00  0.00    -0.383 OA
ATOM     12  H   UNL     1      10.277   2.576  20.765  0.00  0.00    +0.210 HD
ENDBRANCH   4  11
BRANCH   3  13
ATOM     13  O   UNL     1       7.855   3.576  22.613  0.00  0.00    -0.453 OA
BRANCH  13  14
ATOM     14  C   UNL     1       6.920   4.230  23.409  0.00  0.00    +0.214 A 
ATOM     15  C   UNL     1       5.456   3.964  23.251  0.00  0.00    +0.238 A 
ATOM     16  O   UNL     1       5.019   3.365  22.274  0.00  0.00    -0.283 OA
ATOM     17  C   UNL     1       4.551   4.533  24.258  0.00  0.00    +0.109 A 
ATOM     18  C   UNL     1       5.058   5.540  25.076  0.00  0.00    +0.147 A 
ATOM     19  C   UNL     1       4.205   6.220  25.952  0.00  0.00    +0.092 A 
ATOM     20  C   UNL     1       2.857   5.874  26.000  0.00  0.00    +0.124 A 
ATOM     21  C   UNL     1       2.349   4.843  25.217  0.00  0.00    +0.091 A 
ATOM     22  O   UNL     1       6.377   5.925  25.055  0.00  0.00    -0.451 OA
ATOM     23  C   UNL     1       3.201   4.163  24.354  0.00  0.00    +0.135 A 
ATOM     24  C   UNL     1       7.276   5.228  24.250  0.00  0.00    +0.181 A 
BRANCH  24  25
ATOM     25  C   UNL     1       8.689   5.691  24.400  0.00  0.00    +0.025 A 
ATOM     26  C   UNL     1       9.092   6.418  25.537  0.00  0.00    +0.015 A 
ATOM     27  C   UNL     1      10.429   6.795  25.721  0.00  0.00    +0.050 A 
ATOM     28  C   UNL     1      11.373   6.450  24.767  0.00  0.00    +0.158 A 
ATOM     29  C   UNL     1      10.994   5.779  23.614  0.00  0.00    +0.159 A 
ATOM     30  C   UNL     1       9.663   5.426  23.413  0.00  0.00    +0.060 A 
BRANCH  29  31
ATOM     31  O   UNL     1      11.965   5.469  22.702  0.00  0.00    -0.503 OA
ATOM     32  H   UNL     1      11.536   5.283  21.848  0.00  0.00    +0.292 HD
ENDBRANCH  29  31
BRANCH  28  33
ATOM     33  O   UNL     1      12.685   6.766  24.973  0.00  0.00    -0.503 OA
ATOM     34  H   UNL     1      13.176   5.962  24.706  0.00  0.00    +0.292 HD
ENDBRANCH  28  33
ENDBRANCH  24  25
BRANCH  23  35
ATOM     35  O   UNL     1       2.707   3.114  23.631  0.00  0.00    -0.506 OA
ATOM     36  H   UNL     1       3.402   2.738  23.066  0.00  0.00    +0.292 HD
ENDBRANCH  23  35
BRANCH  20  37
ATOM     37  O   UNL     1       1.978   6.519  26.819  0.00  0.00    -0.507 OA
ATOM     38  H   UNL     1       1.732   5.934  27.553  0.00  0.00    +0.292 HD
ENDBRANCH  20  37
ENDBRANCH  13  14
ENDBRANCH   3  13
BRANCH   1  39
ATOM     39  C   UNL     1       7.390   0.070  24.894  0.00  0.00    +0.266 C 
BRANCH  39  40
ATOM     40  O   UNL     1       7.379  -0.463  26.235  0.00  0.00    -0.459 OA
BRANCH  40  41
ATOM     41  C   UNL     1       8.074  -1.607  26.392  0.00  0.00    +0.332 C 
ATOM     42  O   UNL     1       9.076  -1.743  27.076  0.00  0.00    -0.246 OA
BRANCH  41  44
ATOM     43  C   UNL     1       6.713  -3.605  26.278  0.00  0.00    +0.015 C 
ATOM     44  C   UNL     1       7.420  -2.684  25.613  0.00  0.00    +0.092 C 
BRANCH  43  47
ATOM     45  C   UNL     1       5.234  -5.950  23.685  0.00  0.00    +0.162 A 
ATOM     46  C   UNL     1       5.936  -4.885  24.254  0.00  0.00    +0.057 A 
ATOM     47  C   UNL     1       5.974  -4.713  25.646  0.00  0.00    -0.021 A 
ATOM     48  C   UNL     1       5.322  -5.650  26.464  0.00  0.00    +0.012 A 
ATOM     49  C   UNL     1       4.601  -6.705  25.902  0.00  0.00    +0.050 A 
ATOM     50  C   UNL     1       4.553  -6.838  24.522  0.00  0.00    +0.158 A 
BRANCH  50  51
ATOM     51  O   UNL     1       3.837  -7.877  23.997  0.00  0.00    -0.503 OA
ATOM     52  H   UNL     1       2.906  -7.690  24.227  0.00  0.00    +0.292 HD
ENDBRANCH  50  51
BRANCH  45  54
ATOM     53  C   UNL     1       6.052  -5.476  21.523  0.00  0.00    +0.277 C 
ATOM     54  O   UNL     1       5.126  -6.190  22.338  0.00  0.00    -0.491 OA
ENDBRANCH  45  54
ENDBRANCH  43  47
ENDBRANCH  41  44
ENDBRANCH  40  41
ENDBRANCH  39  40
ENDBRANCH   1  39
TORSDOF 17
ENDMDL
