MODEL 1
REMARK VINA RESULT:      -8.1      0.000      0.000
REMARK  Name = 
REMARK  22 active torsions:
REMARK  status: ('A' for Active; 'I' for Inactive)
REMARK    1  A    between atoms: C_1  and  C_2
REMARK    2  A    between atoms: C_4  and  O_68
REMARK    3  A    between atoms: C_6  and  O_67
REMARK    4  A    between atoms: C_8  and  O_66
REMARK    5  A    between atoms: C_10  and  O_13
REMARK    6  A    between atoms: O_13  and  C_14
REMARK    7  A    between atoms: C_14  and  C_15
REMARK    8  A    between atoms: C_17  and  O_65
REMARK    9  A    between atoms: C_19  and  O_64
REMARK   10  A    between atoms: C_21  and  O_48
REMARK   11  A    between atoms: C_23  and  O_26
REMARK   12  A    between atoms: O_26  and  C_27
REMARK   13  A    between atoms: C_28  and  C_40
REMARK   14  A    between atoms: C_32  and  O_39
REMARK   15  A    between atoms: C_34  and  O_38
REMARK   16  A    between atoms: C_42  and  O_47
REMARK   17  A    between atoms: C_43  and  O_46
REMARK   18  A    between atoms: O_48  and  C_49
REMARK   19  A    between atoms: C_51  and  O_63
REMARK   20  A    between atoms: C_53  and  O_62
REMARK   21  A    between atoms: C_55  and  O_61
REMARK   22  A    between atoms: C_57  and  C_60
REMARK                            x       y       z     vdW  Elec       q    Type
REMARK                         _______ _______ _______ _____ _____    ______ ____
ROOT
ATOM      1  C   UNL     1       7.571  -3.088  23.028  0.00  0.00    +0.179 C 
ATOM      2  O   UNL     1       6.449  -2.264  23.343  0.00  0.00    -0.331 OA
ATOM      3  C   UNL     1       5.603  -2.854  24.316  0.00  0.00    +0.340 C 
ATOM      4  C   UNL     1       4.932  -4.110  23.716  0.00  0.00    +0.221 C 
ATOM      5  C   UNL     1       6.057  -5.045  23.187  0.00  0.00    +0.180 C 
ATOM      6  C   UNL     1       7.045  -4.302  22.270  0.00  0.00    +0.177 C 
ENDROOT
BRANCH   6   7
ATOM      7  O   UNL     1       8.096  -5.194  21.890  0.00  0.00    -0.386 OA
ATOM      8  H   UNL     1       7.998  -5.336  20.929  0.00  0.00    +0.210 HD
ENDBRANCH   6   7
BRANCH   5   9
ATOM      9  O   UNL     1       5.499  -6.147  22.450  0.00  0.00    -0.386 OA
ATOM     10  H   UNL     1       6.248  -6.488  21.918  0.00  0.00    +0.210 HD
ENDBRANCH   5   9
BRANCH   4  11
ATOM     11  O   UNL     1       4.182  -4.855  24.704  0.00  0.00    -0.337 OA
BRANCH  11  12
ATOM     12  C   UNL     1       2.767  -4.748  24.592  0.00  0.00    +0.282 C 
ATOM     13  O   UNL     1       2.111  -5.244  25.769  0.00  0.00    -0.343 OA
ATOM     14  C   UNL     1       2.346  -6.632  26.027  0.00  0.00    +0.149 C 
ATOM     15  C   UNL     1       1.529  -6.992  27.267  0.00  0.00    +0.041 C 
ATOM     16  C   UNL     1       1.956  -7.530  24.836  0.00  0.00    +0.174 C 
ATOM     17  C   UNL     1       2.570  -6.981  23.537  0.00  0.00    +0.179 C 
ATOM     18  C   UNL     1       2.211  -5.495  23.367  0.00  0.00    +0.201 C 
BRANCH  18  19
ATOM     19  O   UNL     1       0.796  -5.274  23.231  0.00  0.00    -0.384 OA
ATOM     20  H   UNL     1       0.429  -5.240  24.137  0.00  0.00    +0.210 HD
ENDBRANCH  18  19
BRANCH  17  21
ATOM     21  O   UNL     1       2.141  -7.739  22.404  0.00  0.00    -0.386 OA
ATOM     22  H   UNL     1       2.796  -8.446  22.261  0.00  0.00    +0.210 HD
ENDBRANCH  17  21
BRANCH  16  23
ATOM     23  O   UNL     1       2.377  -8.875  25.089  0.00  0.00    -0.387 OA
ATOM     24  H   UNL     1       3.260  -8.996  24.698  0.00  0.00    +0.210 HD
ENDBRANCH  16  23
ENDBRANCH  11  12
ENDBRANCH   4  11
BRANCH   3  25
ATOM     25  O   UNL     1       4.725  -1.810  24.783  0.00  0.00    -0.453 OA
BRANCH  25  26
ATOM     26  C   UNL     1       5.241  -1.033  25.846  0.00  0.00    +0.214 A 
ATOM     27  C   UNL     1       5.137   0.481  25.815  0.00  0.00    +0.238 A 
ATOM     28  O   UNL     1       4.494   1.105  24.979  0.00  0.00    -0.283 OA
ATOM     29  C   UNL     1       5.804   1.269  26.829  0.00  0.00    +0.109 A 
ATOM     30  C   UNL     1       6.401   0.585  27.870  0.00  0.00    +0.147 A 
ATOM     31  C   UNL     1       7.039   1.301  28.881  0.00  0.00    +0.092 A 
ATOM     32  C   UNL     1       7.063   2.696  28.814  0.00  0.00    +0.124 A 
ATOM     33  C   UNL     1       6.453   3.396  27.778  0.00  0.00    +0.091 A 
ATOM     34  O   UNL     1       6.378  -0.778  27.969  0.00  0.00    -0.451 OA
ATOM     35  C   UNL     1       5.824   2.672  26.777  0.00  0.00    +0.135 A 
ATOM     36  C   UNL     1       5.810  -1.572  26.960  0.00  0.00    +0.181 A 
BRANCH  36  37
ATOM     37  C   UNL     1       5.856  -3.035  27.356  0.00  0.00    +0.025 A 
ATOM     38  C   UNL     1       4.734  -3.608  28.014  0.00  0.00    +0.015 A 
ATOM     39  C   UNL     1       4.607  -4.988  28.233  0.00  0.00    +0.050 A 
ATOM     40  C   UNL     1       5.621  -5.828  27.823  0.00  0.00    +0.158 A 
ATOM     41  C   UNL     1       6.790  -5.290  27.296  0.00  0.00    +0.159 A 
ATOM     42  C   UNL     1       6.907  -3.917  27.057  0.00  0.00    +0.060 A 
BRANCH  41  43
ATOM     43  O   UNL     1       7.811  -6.157  27.010  0.00  0.00    -0.503 OA
ATOM     44  H   UNL     1       8.642  -5.739  27.319  0.00  0.00    +0.292 HD
ENDBRANCH  41  43
BRANCH  40  45
ATOM     45  O   UNL     1       5.456  -7.178  27.932  0.00  0.00    -0.503 OA
ATOM     46  H   UNL     1       5.019  -7.306  28.797  0.00  0.00    +0.292 HD
ENDBRANCH  40  45
ENDBRANCH  36  37
BRANCH  35  47
ATOM     47  O   UNL     1       5.248   3.371  25.755  0.00  0.00    -0.506 OA
ATOM     48  H   UNL     1       5.007   4.267  26.038  0.00  0.00    +0.292 HD
ENDBRANCH  35  47
BRANCH  32  49
ATOM     49  O   UNL     1       7.670   3.454  29.773  0.00  0.00    -0.507 OA
ATOM     50  H   UNL     1       8.166   2.872  30.370  0.00  0.00    +0.292 HD
ENDBRANCH  32  49
ENDBRANCH  25  26
ENDBRANCH   3  25
BRANCH   1  51
ATOM     51  C   UNL     1       8.543  -2.221  22.241  0.00  0.00    +0.197 C 
BRANCH  51  52
ATOM     52  O   UNL     1       9.330  -1.486  23.172  0.00  0.00    -0.346 OA
BRANCH  52  56
ATOM     53  C   UNL     1       6.837   2.023  22.726  0.00  0.00    +0.041 C 
ATOM     54  C   UNL     1       8.198   1.804  22.076  0.00  0.00    +0.149 C 
ATOM     55  O   UNL     1       8.566   0.420  22.057  0.00  0.00    -0.343 OA
ATOM     56  C   UNL     1       8.896  -0.138  23.327  0.00  0.00    +0.282 C 
ATOM     57  C   UNL     1      10.055   0.610  24.018  0.00  0.00    +0.201 C 
ATOM     58  C   UNL     1       9.818   2.125  24.027  0.00  0.00    +0.179 C 
ATOM     59  C   UNL     1       9.359   2.629  22.652  0.00  0.00    +0.174 C 
BRANCH  59  60
ATOM     60  O   UNL     1      10.466   2.524  21.738  0.00  0.00    -0.387 OA
ATOM     61  H   UNL     1      10.757   1.587  21.723  0.00  0.00    +0.210 HD
ENDBRANCH  59  60
BRANCH  58  62
ATOM     62  O   UNL     1       8.905   2.491  25.073  0.00  0.00    -0.386 OA
ATOM     63  H   UNL     1       8.335   1.737  25.298  0.00  0.00    +0.210 HD
ENDBRANCH  58  62
BRANCH  57  64
ATOM     64  O   UNL     1      10.222   0.125  25.364  0.00  0.00    -0.384 OA
ATOM     65  H   UNL     1      11.109  -0.273  25.429  0.00  0.00    +0.210 HD
ENDBRANCH  57  64
ENDBRANCH  52  56
ENDBRANCH  51  52
ENDBRANCH   1  51
TORSDOF 20
ENDMDL
MODEL 2
REMARK VINA RESULT:      -8.0      2.045      3.635
REMARK  Name = 
REMARK  22 active torsions:
REMARK  status: ('A' for Active; 'I' for Inactive)
REMARK    1  A    between atoms: C_1  and  C_2
REMARK    2  A    between atoms: C_4  and  O_68
REMARK    3  A    between atoms: C_6  and  O_67
REMARK    4  A    between atoms: C_8  and  O_66
REMARK    5  A    between atoms: C_10  and  O_13
REMARK    6  A    between atoms: O_13  and  C_14
REMARK    7  A    between atoms: C_14  and  C_15
REMARK    8  A    between atoms: C_17  and  O_65
REMARK    9  A    between atoms: C_19  and  O_64
REMARK   10  A    between atoms: C_21  and  O_48
REMARK   11  A    between atoms: C_23  and  O_26
REMARK   12  A    between atoms: O_26  and  C_27
REMARK   13  A    between atoms: C_28  and  C_40
REMARK   14  A    between atoms: C_32  and  O_39
REMARK   15  A    between atoms: C_34  and  O_38
REMARK   16  A    between atoms: C_42  and  O_47
REMARK   17  A    between atoms: C_43  and  O_46
REMARK   18  A    between atoms: O_48  and  C_49
REMARK   19  A    between atoms: C_51  and  O_63
REMARK   20  A    between atoms: C_53  and  O_62
REMARK   21  A    between atoms: C_55  and  O_61
REMARK   22  A    between atoms: C_57  and  C_60
REMARK                            x       y       z     vdW  Elec       q    Type
REMARK                         _______ _______ _______ _____ _____    ______ ____
ROOT
ATOM      1  C   UNL     1       8.930   0.293  24.473  0.00  0.00    +0.179 C 
ATOM      2  O   UNL     1       7.514   0.169  24.346  0.00  0.00    -0.331 OA
ATOM      3  C   UNL     1       7.096  -1.183  24.266  0.00  0.00    +0.340 C 
ATOM      4  C   UNL     1       7.601  -1.798  22.942  0.00  0.00    +0.221 C 
ATOM      5  C   UNL     1       9.142  -1.594  22.878  0.00  0.00    +0.180 C 
ATOM      6  C   UNL     1       9.545  -0.132  23.144  0.00  0.00    +0.177 C 
ENDROOT
BRANCH   6   7
ATOM      7  O   UNL     1      10.971  -0.032  23.156  0.00  0.00    -0.386 OA
ATOM      8  H   UNL     1      11.307  -0.945  23.072  0.00  0.00    +0.210 HD
ENDBRANCH   6   7
BRANCH   5   9
ATOM      9  O   UNL     1       9.654  -1.977  21.590  0.00  0.00    -0.386 OA
ATOM     10  H   UNL     1       9.860  -2.930  21.684  0.00  0.00    +0.210 HD
ENDBRANCH   5   9
BRANCH   4  11
ATOM     11  O   UNL     1       7.351  -3.222  22.869  0.00  0.00    -0.337 OA
BRANCH  11  12
ATOM     12  C   UNL     1       6.416  -3.618  21.872  0.00  0.00    +0.282 C 
ATOM     13  O   UNL     1       5.067  -3.528  22.356  0.00  0.00    -0.343 OA
ATOM     14  C   UNL     1       4.788  -4.383  23.469  0.00  0.00    +0.149 C 
ATOM     15  C   UNL     1       3.309  -4.201  23.804  0.00  0.00    +0.041 C 
ATOM     16  C   UNL     1       5.103  -5.863  23.171  0.00  0.00    +0.174 C 
ATOM     17  C   UNL     1       6.511  -5.993  22.568  0.00  0.00    +0.179 C 
ATOM     18  C   UNL     1       6.661  -5.049  21.363  0.00  0.00    +0.201 C 
BRANCH  18  19
ATOM     19  O   UNL     1       5.765  -5.370  20.285  0.00  0.00    -0.384 OA
ATOM     20  H   UNL     1       5.703  -6.346  20.253  0.00  0.00    +0.210 HD
ENDBRANCH  18  19
BRANCH  17  21
ATOM     21  O   UNL     1       6.787  -7.345  22.190  0.00  0.00    -0.386 OA
ATOM     22  H   UNL     1       6.669  -7.407  21.225  0.00  0.00    +0.210 HD
ENDBRANCH  17  21
BRANCH  16  23
ATOM     23  O   UNL     1       4.972  -6.635  24.371  0.00  0.00    -0.387 OA
ATOM     24  H   UNL     1       4.834  -7.565  24.120  0.00  0.00    +0.210 HD
ENDBRANCH  16  23
ENDBRANCH  11  12
ENDBRANCH   4  11
BRANCH   3  25
ATOM     25  O   UNL     1       5.669  -1.184  24.480  0.00  0.00    -0.453 OA
BRANCH  25  26
ATOM     26  C   UNL     1       5.249  -0.556  25.675  0.00  0.00    +0.214 A 
ATOM     27  C   UNL     1       4.757   0.881  25.658  0.00  0.00    +0.238 A 
ATOM     28  O   UNL     1       4.555   1.521  24.633  0.00  0.00    -0.283 OA
ATOM     29  C   UNL     1       4.479   1.560  26.904  0.00  0.00    +0.109 A 
ATOM     30  C   UNL     1       4.546   0.811  28.062  0.00  0.00    +0.147 A 
ATOM     31  C   UNL     1       4.267   1.418  29.286  0.00  0.00    +0.092 A 
ATOM     32  C   UNL     1       3.929   2.772  29.311  0.00  0.00    +0.124 A 
ATOM     33  C   UNL     1       3.844   3.534  28.150  0.00  0.00    +0.091 A 
ATOM     34  O   UNL     1       4.858  -0.520  28.065  0.00  0.00    -0.451 OA
ATOM     35  C   UNL     1       4.126   2.920  26.940  0.00  0.00    +0.135 A 
ATOM     36  C   UNL     1       5.213  -1.186  26.881  0.00  0.00    +0.181 A 
BRANCH  36  37
ATOM     37  C   UNL     1       5.438  -2.661  27.158  0.00  0.00    +0.025 A 
ATOM     38  C   UNL     1       4.316  -3.496  27.411  0.00  0.00    +0.015 A 
ATOM     39  C   UNL     1       4.411  -4.894  27.474  0.00  0.00    +0.050 A 
ATOM     40  C   UNL     1       5.645  -5.490  27.316  0.00  0.00    +0.158 A 
ATOM     41  C   UNL     1       6.782  -4.699  27.199  0.00  0.00    +0.159 A 
ATOM     42  C   UNL     1       6.685  -3.307  27.113  0.00  0.00    +0.060 A 
BRANCH  41  43
ATOM     43  O   UNL     1       7.994  -5.336  27.159  0.00  0.00    -0.503 OA
ATOM     44  H   UNL     1       7.956  -6.075  27.801  0.00  0.00    +0.292 HD
ENDBRANCH  41  43
BRANCH  40  45
ATOM     45  O   UNL     1       5.728  -6.851  27.266  0.00  0.00    -0.503 OA
ATOM     46  H   UNL     1       4.884  -7.137  26.863  0.00  0.00    +0.292 HD
ENDBRANCH  40  45
ENDBRANCH  36  37
BRANCH  35  47
ATOM     47  O   UNL     1       4.060   3.684  25.809  0.00  0.00    -0.506 OA
ATOM     48  H   UNL     1       3.147   3.749  25.486  0.00  0.00    +0.292 HD
ENDBRANCH  35  47
BRANCH  32  49
ATOM     49  O   UNL     1       3.642   3.422  30.476  0.00  0.00    -0.507 OA
ATOM     50  H   UNL     1       3.851   4.364  30.373  0.00  0.00    +0.292 HD
ENDBRANCH  32  49
ENDBRANCH  25  26
ENDBRANCH   3  25
BRANCH   1  51
ATOM     51  C   UNL     1       9.209   1.737  24.867  0.00  0.00    +0.197 C 
BRANCH  51  52
ATOM     52  O   UNL     1       9.842   2.380  23.766  0.00  0.00    -0.346 OA
BRANCH  52  56
ATOM     53  C   UNL     1       9.452   6.689  23.785  0.00  0.00    +0.041 C 
ATOM     54  C   UNL     1       8.558   5.706  24.533  0.00  0.00    +0.149 C 
ATOM     55  O   UNL     1       9.178   4.424  24.681  0.00  0.00    -0.343 OA
ATOM     56  C   UNL     1       9.296   3.663  23.481  0.00  0.00    +0.282 C 
ATOM     57  C   UNL     1       7.932   3.411  22.806  0.00  0.00    +0.201 C 
ATOM     58  C   UNL     1       7.126   4.708  22.665  0.00  0.00    +0.179 C 
ATOM     59  C   UNL     1       7.142   5.522  23.966  0.00  0.00    +0.174 C 
BRANCH  59  60
ATOM     60  O   UNL     1       6.365   4.816  24.951  0.00  0.00    -0.387 OA
ATOM     61  H   UNL     1       6.008   5.477  25.583  0.00  0.00    +0.210 HD
ENDBRANCH  59  60
BRANCH  58  62
ATOM     62  O   UNL     1       7.587   5.472  21.540  0.00  0.00    -0.386 OA
ATOM     63  H   UNL     1       7.415   4.991  20.715  0.00  0.00    +0.210 HD
ENDBRANCH  58  62
BRANCH  57  64
ATOM     64  O   UNL     1       8.126   2.803  21.515  0.00  0.00    -0.384 OA
ATOM     65  H   UNL     1       8.886   2.197  21.582  0.00  0.00    +0.210 HD
ENDBRANCH  57  64
ENDBRANCH  52  56
ENDBRANCH  51  52
ENDBRANCH   1  51
TORSDOF 20
ENDMDL
MODEL 3
REMARK VINA RESULT:      -7.7      2.139      8.215
REMARK  Name = 
REMARK  22 active torsions:
REMARK  status: ('A' for Active; 'I' for Inactive)
REMARK    1  A    between atoms: C_1  and  C_2
REMARK    2  A    between atoms: C_4  and  O_68
REMARK    3  A    between atoms: C_6  and  O_67
REMARK    4  A    between atoms: C_8  and  O_66
REMARK    5  A    between atoms: C_10  and  O_13
REMARK    6  A    between atoms: O_13  and  C_14
REMARK    7  A    between atoms: C_14  and  C_15
REMARK    8  A    between atoms: C_17  and  O_65
REMARK    9  A    between atoms: C_19  and  O_64
REMARK   10  A    between atoms: C_21  and  O_48
REMARK   11  A    between atoms: C_23  and  O_26
REMARK   12  A    between atoms: O_26  and  C_27
REMARK   13  A    between atoms: C_28  and  C_40
REMARK   14  A    between atoms: C_32  and  O_39
REMARK   15  A    between atoms: C_34  and  O_38
REMARK   16  A    between atoms: C_42  and  O_47
REMARK   17  A    between atoms: C_43  and  O_46
REMARK   18  A    between atoms: O_48  and  C_49
REMARK   19  A    between atoms: C_51  and  O_63
REMARK   20  A    between atoms: C_53  and  O_62
REMARK   21  A    between atoms: C_55  and  O_61
REMARK   22  A    between atoms: C_57  and  C_60
REMARK                            x       y       z     vdW  Elec       q    Type
REMARK                         _______ _______ _______ _____ _____    ______ ____
ROOT
ATOM      1  C   UNL     1       5.502  -1.795  25.761  0.00  0.00    +0.179 C 
ATOM      2  O   UNL     1       5.519  -0.897  24.652  0.00  0.00    -0.331 OA
ATOM      3  C   UNL     1       5.821   0.433  25.038  0.00  0.00    +0.340 C 
ATOM      4  C   UNL     1       4.665   0.991  25.898  0.00  0.00    +0.221 C 
ATOM      5  C   UNL     1       4.435   0.011  27.084  0.00  0.00    +0.180 C 
ATOM      6  C   UNL     1       4.284  -1.447  26.609  0.00  0.00    +0.177 C 
ENDROOT
BRANCH   6   7
ATOM      7  O   UNL     1       4.163  -2.301  27.749  0.00  0.00    -0.386 OA
ATOM      8  H   UNL     1       3.417  -1.950  28.273  0.00  0.00    +0.210 HD
ENDBRANCH   6   7
BRANCH   5   9
ATOM      9  O   UNL     1       3.253   0.370  27.820  0.00  0.00    -0.386 OA
ATOM     10  H   UNL     1       2.905  -0.483  28.152  0.00  0.00    +0.210 HD
ENDBRANCH   5   9
BRANCH   4  11
ATOM     11  O   UNL     1       4.979   2.286  26.464  0.00  0.00    -0.337 OA
BRANCH  11  12
ATOM     12  C   UNL     1       5.631   2.248  27.729  0.00  0.00    +0.282 C 
ATOM     13  O   UNL     1       4.804   2.810  28.760  0.00  0.00    -0.343 OA
ATOM     14  C   UNL     1       4.484   4.191  28.563  0.00  0.00    +0.149 C 
ATOM     15  C   UNL     1       3.661   4.628  29.773  0.00  0.00    +0.041 C 
ATOM     16  C   UNL     1       5.739   5.073  28.408  0.00  0.00    +0.174 C 
ATOM     17  C   UNL     1       6.694   4.457  27.372  0.00  0.00    +0.179 C 
ATOM     18  C   UNL     1       6.980   2.987  27.723  0.00  0.00    +0.201 C 
BRANCH  18  19
ATOM     19  O   UNL     1       7.653   2.833  28.985  0.00  0.00    -0.384 OA
ATOM     20  H   UNL     1       7.367   1.973  29.354  0.00  0.00    +0.210 HD
ENDBRANCH  18  19
BRANCH  17  21
ATOM     21  O   UNL     1       7.911   5.203  27.285  0.00  0.00    -0.386 OA
ATOM     22  H   UNL     1       8.551   4.789  27.892  0.00  0.00    +0.210 HD
ENDBRANCH  17  21
BRANCH  16  23
ATOM     23  O   UNL     1       5.352   6.402  28.041  0.00  0.00    -0.387 OA
ATOM     24  H   UNL     1       5.261   6.435  27.072  0.00  0.00    +0.210 HD
ENDBRANCH  16  23
ENDBRANCH  11  12
ENDBRANCH   4  11
BRANCH   3  25
ATOM     25  O   UNL     1       6.136   1.151  23.828  0.00  0.00    -0.453 OA
BRANCH  25  26
ATOM     26  C   UNL     1       7.432   1.714  23.792  0.00  0.00    +0.214 A 
ATOM     27  C   UNL     1       7.636   3.197  24.048  0.00  0.00    +0.238 A 
ATOM     28  O   UNL     1       6.751   3.951  24.436  0.00  0.00    -0.283 OA
ATOM     29  C   UNL     1       8.943   3.787  23.856  0.00  0.00    +0.109 A 
ATOM     30  C   UNL     1       9.989   2.929  23.575  0.00  0.00    +0.147 A 
ATOM     31  C   UNL     1      11.270   3.450  23.400  0.00  0.00    +0.092 A 
ATOM     32  C   UNL     1      11.465   4.828  23.511  0.00  0.00    +0.124 A 
ATOM     33  C   UNL     1      10.422   5.699  23.809  0.00  0.00    +0.091 A 
ATOM     34  O   UNL     1       9.830   1.576  23.477  0.00  0.00    -0.451 OA
ATOM     35  C   UNL     1       9.152   5.170  23.977  0.00  0.00    +0.135 A 
ATOM     36  C   UNL     1       8.561   0.983  23.578  0.00  0.00    +0.181 A 
BRANCH  36  37
ATOM     37  C   UNL     1       8.681  -0.527  23.505  0.00  0.00    +0.025 A 
ATOM     38  C   UNL     1       9.457  -1.207  24.484  0.00  0.00    +0.015 A 
ATOM     39  C   UNL     1       9.458  -2.604  24.614  0.00  0.00    +0.050 A 
ATOM     40  C   UNL     1       8.702  -3.359  23.743  0.00  0.00    +0.158 A 
ATOM     41  C   UNL     1       8.037  -2.737  22.692  0.00  0.00    +0.159 A 
ATOM     42  C   UNL     1       8.017  -1.344  22.575  0.00  0.00    +0.060 A 
BRANCH  41  43
ATOM     43  O   UNL     1       7.394  -3.541  21.788  0.00  0.00    -0.503 OA
ATOM     44  H   UNL     1       7.280  -3.021  20.966  0.00  0.00    +0.292 HD
ENDBRANCH  41  43
BRANCH  40  45
ATOM     45  O   UNL     1       8.610  -4.707  23.932  0.00  0.00    -0.503 OA
ATOM     46  H   UNL     1       8.995  -5.098  23.123  0.00  0.00    +0.292 HD
ENDBRANCH  40  45
ENDBRANCH  36  37
BRANCH  35  47
ATOM     47  O   UNL     1       8.133   6.039  24.248  0.00  0.00    -0.506 OA
ATOM     48  H   UNL     1       7.471   5.630  24.826  0.00  0.00    +0.292 HD
ENDBRANCH  35  47
BRANCH  32  49
ATOM     49  O   UNL     1      12.695   5.397  23.354  0.00  0.00    -0.507 OA
ATOM     50  H   UNL     1      13.081   5.564  24.228  0.00  0.00    +0.292 HD
ENDBRANCH  32  49
ENDBRANCH  25  26
ENDBRANCH   3  25
BRANCH   1  51
ATOM     51  C   UNL     1       5.491  -3.203  25.183  0.00  0.00    +0.197 C 
BRANCH  51  52
ATOM     52  O   UNL     1       6.283  -4.031  26.026  0.00  0.00    -0.346 OA
BRANCH  52  56
ATOM     53  C   UNL     1       3.251  -7.107  26.285  0.00  0.00    +0.041 C 
ATOM     54  C   UNL     1       3.353  -5.874  27.175  0.00  0.00    +0.149 C 
ATOM     55  O   UNL     1       4.171  -4.856  26.588  0.00  0.00    -0.343 OA
ATOM     56  C   UNL     1       5.566  -5.146  26.546  0.00  0.00    +0.282 C 
ATOM     57  C   UNL     1       6.154  -5.423  27.945  0.00  0.00    +0.201 C 
ATOM     58  C   UNL     1       5.310  -6.444  28.717  0.00  0.00    +0.179 C 
ATOM     59  C   UNL     1       3.813  -6.123  28.619  0.00  0.00    +0.174 C 
BRANCH  59  60
ATOM     60  O   UNL     1       3.557  -4.923  29.373  0.00  0.00    -0.387 OA
ATOM     61  H   UNL     1       3.503  -5.169  30.322  0.00  0.00    +0.210 HD
ENDBRANCH  59  60
BRANCH  58  62
ATOM     62  O   UNL     1       5.608  -7.780  28.283  0.00  0.00    -0.386 OA
ATOM     63  H   UNL     1       6.563  -7.947  28.343  0.00  0.00    +0.210 HD
ENDBRANCH  58  62
BRANCH  57  64
ATOM     64  O   UNL     1       7.512  -5.888  27.826  0.00  0.00    -0.384 OA
ATOM     65  H   UNL     1       7.640  -6.203  26.912  0.00  0.00    +0.210 HD
ENDBRANCH  57  64
ENDBRANCH  52  56
ENDBRANCH  51  52
ENDBRANCH   1  51
TORSDOF 20
ENDMDL
MODEL 4
REMARK VINA RESULT:      -7.5      1.669      2.366
REMARK  Name = 
REMARK  22 active torsions:
REMARK  status: ('A' for Active; 'I' for Inactive)
REMARK    1  A    between atoms: C_1  and  C_2
REMARK    2  A    between atoms: C_4  and  O_68
REMARK    3  A    between atoms: C_6  and  O_67
REMARK    4  A    between atoms: C_8  and  O_66
REMARK    5  A    between atoms: C_10  and  O_13
REMARK    6  A    between atoms: O_13  and  C_14
REMARK    7  A    between atoms: C_14  and  C_15
REMARK    8  A    between atoms: C_17  and  O_65
REMARK    9  A    between atoms: C_19  and  O_64
REMARK   10  A    between atoms: C_21  and  O_48
REMARK   11  A    between atoms: C_23  and  O_26
REMARK   12  A    between atoms: O_26  and  C_27
REMARK   13  A    between atoms: C_28  and  C_40
REMARK   14  A    between atoms: C_32  and  O_39
REMARK   15  A    between atoms: C_34  and  O_38
REMARK   16  A    between atoms: C_42  and  O_47
REMARK   17  A    between atoms: C_43  and  O_46
REMARK   18  A    between atoms: O_48  and  C_49
REMARK   19  A    between atoms: C_51  and  O_63
REMARK   20  A    between atoms: C_53  and  O_62
REMARK   21  A    between atoms: C_55  and  O_61
REMARK   22  A    between atoms: C_57  and  C_60
REMARK                            x       y       z     vdW  Elec       q    Type
REMARK                         _______ _______ _______ _____ _____    ______ ____
ROOT
ATOM      1  C   UNL     1       8.358  -2.538  25.540  0.00  0.00    +0.179 C 
ATOM      2  O   UNL     1       7.036  -2.032  25.360  0.00  0.00    -0.331 OA
ATOM      3  C   UNL     1       6.044  -3.021  25.578  0.00  0.00    +0.340 C 
ATOM      4  C   UNL     1       6.141  -4.094  24.471  0.00  0.00    +0.221 C 
ATOM      5  C   UNL     1       7.599  -4.635  24.455  0.00  0.00    +0.180 C 
ATOM      6  C   UNL     1       8.637  -3.499  24.390  0.00  0.00    +0.177 C 
ENDROOT
BRANCH   6   7
ATOM      7  O   UNL     1       9.951  -4.059  24.465  0.00  0.00    -0.386 OA
ATOM      8  H   UNL     1       9.995  -4.533  25.317  0.00  0.00    +0.210 HD
ENDBRANCH   6   7
BRANCH   5   9
ATOM      9  O   UNL     1       7.808  -5.503  23.328  0.00  0.00    -0.386 OA
ATOM     10  H   UNL     1       8.601  -6.026  23.568  0.00  0.00    +0.210 HD
ENDBRANCH   5   9
BRANCH   4  11
ATOM     11  O   UNL     1       5.266  -5.220  24.722  0.00  0.00    -0.337 OA
BRANCH  11  12
ATOM     12  C   UNL     1       4.153  -5.327  23.841  0.00  0.00    +0.282 C 
ATOM     13  O   UNL     1       3.028  -4.581  24.330  0.00  0.00    -0.343 OA
ATOM     14  C   UNL     1       2.530  -5.035  25.592  0.00  0.00    +0.149 C 
ATOM     15  C   UNL     1       1.311  -4.174  25.919  0.00  0.00    +0.041 C 
ATOM     16  C   UNL     1       2.156  -6.531  25.577  0.00  0.00    +0.174 C 
ATOM     17  C   UNL     1       3.305  -7.357  24.978  0.00  0.00    +0.179 C 
ATOM     18  C   UNL     1       3.715  -6.783  23.611  0.00  0.00    +0.201 C 
BRANCH  18  19
ATOM     19  O   UNL     1       2.661  -6.853  22.636  0.00  0.00    -0.384 OA
ATOM     20  H   UNL     1       2.923  -6.269  21.896  0.00  0.00    +0.210 HD
ENDBRANCH  18  19
BRANCH  17  21
ATOM     21  O   UNL     1       2.942  -8.736  24.861  0.00  0.00    -0.386 OA
ATOM     22  H   UNL     1       1.969  -8.783  24.872  0.00  0.00    +0.210 HD
ENDBRANCH  17  21
BRANCH  16  23
ATOM     23  O   UNL     1       1.835  -6.960  26.906  0.00  0.00    -0.387 OA
ATOM     24  H   UNL     1       2.057  -7.905  26.981  0.00  0.00    +0.210 HD
ENDBRANCH  16  23
ENDBRANCH  11  12
ENDBRANCH   4  11
BRANCH   3  25
ATOM     25  O   UNL     1       4.788  -2.323  25.699  0.00  0.00    -0.453 OA
BRANCH  25  26
ATOM     26  C   UNL     1       4.751  -1.341  26.714  0.00  0.00    +0.214 A 
ATOM     27  C   UNL     1       4.912   0.130  26.370  0.00  0.00    +0.238 A 
ATOM     28  O   UNL     1       4.933   0.564  25.225  0.00  0.00    -0.283 OA
ATOM     29  C   UNL     1       5.028   1.108  27.430  0.00  0.00    +0.109 A 
ATOM     30  C   UNL     1       4.848   0.662  28.725  0.00  0.00    +0.147 A 
ATOM     31  C   UNL     1       4.932   1.571  29.778  0.00  0.00    +0.092 A 
ATOM     32  C   UNL     1       5.200   2.912  29.499  0.00  0.00    +0.124 A 
ATOM     33  C   UNL     1       5.369   3.376  28.197  0.00  0.00    +0.091 A 
ATOM     34  O   UNL     1       4.569  -0.641  29.027  0.00  0.00    -0.451 OA
ATOM     35  C   UNL     1       5.287   2.461  27.159  0.00  0.00    +0.135 A 
ATOM     36  C   UNL     1       4.530  -1.627  28.027  0.00  0.00    +0.181 A 
BRANCH  36  37
ATOM     37  C   UNL     1       4.129  -2.963  28.624  0.00  0.00    +0.025 A 
ATOM     38  C   UNL     1       2.861  -3.085  29.255  0.00  0.00    +0.015 A 
ATOM     39  C   UNL     1       2.327  -4.321  29.650  0.00  0.00    +0.050 A 
ATOM     40  C   UNL     1       3.069  -5.467  29.450  0.00  0.00    +0.158 A 
ATOM     41  C   UNL     1       4.366  -5.370  28.959  0.00  0.00    +0.159 A 
ATOM     42  C   UNL     1       4.889  -4.141  28.543  0.00  0.00    +0.060 A 
BRANCH  41  43
ATOM     43  O   UNL     1       5.101  -6.523  28.886  0.00  0.00    -0.503 OA
ATOM     44  H   UNL     1       5.168  -6.767  27.940  0.00  0.00    +0.292 HD
ENDBRANCH  41  43
BRANCH  40  45
ATOM     45  O   UNL     1       2.512  -6.680  29.729  0.00  0.00    -0.503 OA
ATOM     46  H   UNL     1       2.860  -7.278  29.038  0.00  0.00    +0.292 HD
ENDBRANCH  40  45
ENDBRANCH  36  37
BRANCH  35  47
ATOM     47  O   UNL     1       5.476   2.926  25.888  0.00  0.00    -0.506 OA
ATOM     48  H   UNL     1       6.416   2.916  25.650  0.00  0.00    +0.292 HD
ENDBRANCH  35  47
BRANCH  32  49
ATOM     49  O   UNL     1       5.292   3.851  30.485  0.00  0.00    -0.507 OA
ATOM     50  H   UNL     1       5.274   4.734  30.084  0.00  0.00    +0.292 HD
ENDBRANCH  32  49
ENDBRANCH  25  26
ENDBRANCH   3  25
BRANCH   1  51
ATOM     51  C   UNL     1       9.284  -1.332  25.597  0.00  0.00    +0.197 C 
BRANCH  51  52
ATOM     52  O   UNL     1       9.863  -1.160  24.309  0.00  0.00    -0.346 OA
BRANCH  52  56
ATOM     53  C   UNL     1       9.323   3.125  24.033  0.00  0.00    +0.041 C 
ATOM     54  C   UNL     1       8.212   2.081  24.035  0.00  0.00    +0.149 C 
ATOM     55  O   UNL     1       8.658   0.826  24.560  0.00  0.00    -0.343 OA
ATOM     56  C   UNL     1       9.562   0.104  23.726  0.00  0.00    +0.282 C 
ATOM     57  C   UNL     1       8.972  -0.193  22.332  0.00  0.00    +0.201 C 
ATOM     58  C   UNL     1       8.379   1.069  21.693  0.00  0.00    +0.179 C 
ATOM     59  C   UNL     1       7.508   1.846  22.690  0.00  0.00    +0.174 C 
BRANCH  59  60
ATOM     60  O   UNL     1       6.318   1.078  22.947  0.00  0.00    -0.387 OA
ATOM     61  H   UNL     1       5.857   0.942  22.091  0.00  0.00    +0.210 HD
ENDBRANCH  59  60
BRANCH  58  62
ATOM     62  O   UNL     1       9.414   1.885  21.125  0.00  0.00    -0.386 OA
ATOM     63  H   UNL     1       9.728   2.531  21.778  0.00  0.00    +0.210 HD
ENDBRANCH  58  62
BRANCH  57  64
ATOM     64  O   UNL     1       9.985  -0.754  21.477  0.00  0.00    -0.384 OA
ATOM     65  H   UNL     1      10.514  -0.018  21.119  0.00  0.00    +0.210 HD
ENDBRANCH  57  64
ENDBRANCH  52  56
ENDBRANCH  51  52
ENDBRANCH   1  51
TORSDOF 20
ENDMDL
MODEL 5
REMARK VINA RESULT:      -7.3      2.451      8.074
REMARK  Name = 
REMARK  22 active torsions:
REMARK  status: ('A' for Active; 'I' for Inactive)
REMARK    1  A    between atoms: C_1  and  C_2
REMARK    2  A    between atoms: C_4  and  O_68
REMARK    3  A    between atoms: C_6  and  O_67
REMARK    4  A    between atoms: C_8  and  O_66
REMARK    5  A    between atoms: C_10  and  O_13
REMARK    6  A    between atoms: O_13  and  C_14
REMARK    7  A    between atoms: C_14  and  C_15
REMARK    8  A    between atoms: C_17  and  O_65
REMARK    9  A    between atoms: C_19  and  O_64
REMARK   10  A    between atoms: C_21  and  O_48
REMARK   11  A    between atoms: C_23  and  O_26
REMARK   12  A    between atoms: O_26  and  C_27
REMARK   13  A    between atoms: C_28  and  C_40
REMARK   14  A    between atoms: C_32  and  O_39
REMARK   15  A    between atoms: C_34  and  O_38
REMARK   16  A    between atoms: C_42  and  O_47
REMARK   17  A    between atoms: C_43  and  O_46
REMARK   18  A    between atoms: O_48  and  C_49
REMARK   19  A    between atoms: C_51  and  O_63
REMARK   20  A    between atoms: C_53  and  O_62
REMARK   21  A    between atoms: C_55  and  O_61
REMARK   22  A    between atoms: C_57  and  C_60
REMARK                            x       y       z     vdW  Elec       q    Type
REMARK                         _______ _______ _______ _____ _____    ______ ____
ROOT
ATOM      1  C   UNL     1       5.889  -1.162  26.090  0.00  0.00    +0.179 C 
ATOM      2  O   UNL     1       5.986  -0.512  24.824  0.00  0.00    -0.331 OA
ATOM      3  C   UNL     1       5.971   0.901  24.941  0.00  0.00    +0.340 C 
ATOM      4  C   UNL     1       4.584   1.359  25.443  0.00  0.00    +0.221 C 
ATOM      5  C   UNL     1       4.280   0.599  26.765  0.00  0.00    +0.180 C 
ATOM      6  C   UNL     1       4.480  -0.921  26.619  0.00  0.00    +0.177 C 
ENDROOT
BRANCH   6   7
ATOM      7  O   UNL     1       4.269  -1.547  27.888  0.00  0.00    -0.386 OA
ATOM      8  H   UNL     1       5.083  -2.050  28.081  0.00  0.00    +0.210 HD
ENDBRANCH   6   7
BRANCH   5   9
ATOM      9  O   UNL     1       2.927   0.837  27.191  0.00  0.00    -0.386 OA
ATOM     10  H   UNL     1       2.405   0.137  26.747  0.00  0.00    +0.210 HD
ENDBRANCH   5   9
BRANCH   4  11
ATOM     11  O   UNL     1       4.549   2.775  25.742  0.00  0.00    -0.337 OA
BRANCH  11  12
ATOM     12  C   UNL     1       3.296   3.409  25.510  0.00  0.00    +0.282 C 
ATOM     13  O   UNL     1       2.815   3.145  24.183  0.00  0.00    -0.343 OA
ATOM     14  C   UNL     1       3.665   3.643  23.145  0.00  0.00    +0.149 C 
ATOM     15  C   UNL     1       2.971   3.329  21.821  0.00  0.00    +0.041 C 
ATOM     16  C   UNL     1       3.935   5.155  23.276  0.00  0.00    +0.174 C 
ATOM     17  C   UNL     1       4.371   5.492  24.712  0.00  0.00    +0.179 C 
ATOM     18  C   UNL     1       3.353   4.932  25.720  0.00  0.00    +0.201 C 
BRANCH  18  19
ATOM     19  O   UNL     1       2.047   5.517  25.581  0.00  0.00    -0.384 OA
ATOM     20  H   UNL     1       1.464   5.057  26.218  0.00  0.00    +0.210 HD
ENDBRANCH  18  19
BRANCH  17  21
ATOM     21  O   UNL     1       4.530   6.903  24.884  0.00  0.00    -0.386 OA
ATOM     22  H   UNL     1       4.808   7.272  24.026  0.00  0.00    +0.210 HD
ENDBRANCH  17  21
BRANCH  16  23
ATOM     23  O   UNL     1       4.925   5.552  22.320  0.00  0.00    -0.387 OA
ATOM     24  H   UNL     1       4.541   6.245  21.754  0.00  0.00    +0.210 HD
ENDBRANCH  16  23
ENDBRANCH  11  12
ENDBRANCH   4  11
BRANCH   3  25
ATOM     25  O   UNL     1       6.406   1.423  23.668  0.00  0.00    -0.453 OA
BRANCH  25  26
ATOM     26  C   UNL     1       7.711   1.967  23.666  0.00  0.00    +0.214 A 
ATOM     27  C   UNL     1       7.929   3.447  23.926  0.00  0.00    +0.238 A 
ATOM     28  O   UNL     1       7.045   4.213  24.292  0.00  0.00    -0.283 OA
ATOM     29  C   UNL     1       9.249   4.018  23.768  0.00  0.00    +0.109 A 
ATOM     30  C   UNL     1      10.289   3.146  23.512  0.00  0.00    +0.147 A 
ATOM     31  C   UNL     1      11.582   3.648  23.371  0.00  0.00    +0.092 A 
ATOM     32  C   UNL     1      11.793   5.023  23.486  0.00  0.00    +0.124 A 
ATOM     33  C   UNL     1      10.755   5.910  23.757  0.00  0.00    +0.091 A 
ATOM     34  O   UNL     1      10.114   1.795  23.410  0.00  0.00    -0.451 OA
ATOM     35  C   UNL     1       9.474   5.399  23.893  0.00  0.00    +0.135 A 
ATOM     36  C   UNL     1       8.835   1.220  23.479  0.00  0.00    +0.181 A 
BRANCH  36  37
ATOM     37  C   UNL     1       8.935  -0.292  23.410  0.00  0.00    +0.025 A 
ATOM     38  C   UNL     1       9.769  -0.972  24.339  0.00  0.00    +0.015 A 
ATOM     39  C   UNL     1       9.766  -2.368  24.479  0.00  0.00    +0.050 A 
ATOM     40  C   UNL     1       8.945  -3.122  23.667  0.00  0.00    +0.158 A 
ATOM     41  C   UNL     1       8.216  -2.501  22.659  0.00  0.00    +0.159 A 
ATOM     42  C   UNL     1       8.201  -1.108  22.534  0.00  0.00    +0.060 A 
BRANCH  41  43
ATOM     43  O   UNL     1       7.506  -3.304  21.807  0.00  0.00    -0.503 OA
ATOM     44  H   UNL     1       7.161  -2.734  21.089  0.00  0.00    +0.292 HD
ENDBRANCH  41  43
BRANCH  40  45
ATOM     45  O   UNL     1       8.854  -4.467  23.873  0.00  0.00    -0.503 OA
ATOM     46  H   UNL     1       8.728  -4.847  22.980  0.00  0.00    +0.292 HD
ENDBRANCH  40  45
ENDBRANCH  36  37
BRANCH  35  47
ATOM     47  O   UNL     1       8.461   6.282  24.138  0.00  0.00    -0.506 OA
ATOM     48  H   UNL     1       8.756   6.997  24.724  0.00  0.00    +0.292 HD
ENDBRANCH  35  47
BRANCH  32  49
ATOM     49  O   UNL     1      13.035   5.576  23.360  0.00  0.00    -0.507 OA
ATOM     50  H   UNL     1      13.089   6.041  22.510  0.00  0.00    +0.292 HD
ENDBRANCH  32  49
ENDBRANCH  25  26
ENDBRANCH   3  25
BRANCH   1  51
ATOM     51  C   UNL     1       6.237  -2.626  25.857  0.00  0.00    +0.197 C 
BRANCH  51  52
ATOM     52  O   UNL     1       5.534  -3.066  24.700  0.00  0.00    -0.346 OA
BRANCH  52  56
ATOM     53  C   UNL     1       2.300  -5.638  25.984  0.00  0.00    +0.041 C 
ATOM     54  C   UNL     1       3.677  -5.541  26.630  0.00  0.00    +0.149 C 
ATOM     55  O   UNL     1       4.355  -4.333  26.269  0.00  0.00    -0.343 OA
ATOM     56  C   UNL     1       4.801  -4.267  24.916  0.00  0.00    +0.282 C 
ATOM     57  C   UNL     1       5.753  -5.425  24.552  0.00  0.00    +0.201 C 
ATOM     58  C   UNL     1       5.173  -6.782  24.970  0.00  0.00    +0.179 C 
ATOM     59  C   UNL     1       4.614  -6.736  26.399  0.00  0.00    +0.174 C 
BRANCH  59  60
ATOM     60  O   UNL     1       5.718  -6.610  27.313  0.00  0.00    -0.387 OA
ATOM     61  H   UNL     1       5.406  -6.106  28.095  0.00  0.00    +0.210 HD
ENDBRANCH  59  60
BRANCH  58  62
ATOM     62  O   UNL     1       4.197  -7.232  24.018  0.00  0.00    -0.386 OA
ATOM     63  H   UNL     1       3.825  -8.084  24.297  0.00  0.00    +0.210 HD
ENDBRANCH  58  62
BRANCH  57  64
ATOM     64  O   UNL     1       6.024  -5.414  23.138  0.00  0.00    -0.384 OA
ATOM     65  H   UNL     1       6.964  -5.639  23.013  0.00  0.00    +0.210 HD
ENDBRANCH  57  64
ENDBRANCH  52  56
ENDBRANCH  51  52
ENDBRANCH   1  51
TORSDOF 20
ENDMDL
MODEL 6
REMARK VINA RESULT:      -7.2      1.996      5.730
REMARK  Name = 
REMARK  22 active torsions:
REMARK  status: ('A' for Active; 'I' for Inactive)
REMARK    1  A    between atoms: C_1  and  C_2
REMARK    2  A    between atoms: C_4  and  O_68
REMARK    3  A    between atoms: C_6  and  O_67
REMARK    4  A    between atoms: C_8  and  O_66
REMARK    5  A    between atoms: C_10  and  O_13
REMARK    6  A    between atoms: O_13  and  C_14
REMARK    7  A    between atoms: C_14  and  C_15
REMARK    8  A    between atoms: C_17  and  O_65
REMARK    9  A    between atoms: C_19  and  O_64
REMARK   10  A    between atoms: C_21  and  O_48
REMARK   11  A    between atoms: C_23  and  O_26
REMARK   12  A    between atoms: O_26  and  C_27
REMARK   13  A    between atoms: C_28  and  C_40
REMARK   14  A    between atoms: C_32  and  O_39
REMARK   15  A    between atoms: C_34  and  O_38
REMARK   16  A    between atoms: C_42  and  O_47
REMARK   17  A    between atoms: C_43  and  O_46
REMARK   18  A    between atoms: O_48  and  C_49
REMARK   19  A    between atoms: C_51  and  O_63
REMARK   20  A    between atoms: C_53  and  O_62
REMARK   21  A    between atoms: C_55  and  O_61
REMARK   22  A    between atoms: C_57  and  C_60
REMARK                            x       y       z     vdW  Elec       q    Type
REMARK                         _______ _______ _______ _____ _____    ______ ____
ROOT
ATOM      1  C   UNL     1       8.738   0.542  24.553  0.00  0.00    +0.179 C 
ATOM      2  O   UNL     1       7.314   0.637  24.566  0.00  0.00    -0.331 OA
ATOM      3  C   UNL     1       6.688  -0.633  24.490  0.00  0.00    +0.340 C 
ATOM      4  C   UNL     1       6.965  -1.256  23.103  0.00  0.00    +0.221 C 
ATOM      5  C   UNL     1       8.506  -1.283  22.891  0.00  0.00    +0.180 C 
ATOM      6  C   UNL     1       9.151   0.090  23.158  0.00  0.00    +0.177 C 
ENDROOT
BRANCH   6   7
ATOM      7  O   UNL     1      10.570  -0.025  23.029  0.00  0.00    -0.386 OA
ATOM      8  H   UNL     1      10.867  -0.571  23.782  0.00  0.00    +0.210 HD
ENDBRANCH   6   7
BRANCH   5   9
ATOM      9  O   UNL     1       8.828  -1.680  21.547  0.00  0.00    -0.386 OA
ATOM     10  H   UNL     1       8.484  -0.951  20.989  0.00  0.00    +0.210 HD
ENDBRANCH   5   9
BRANCH   4  11
ATOM     11  O   UNL     1       6.494  -2.622  23.013  0.00  0.00    -0.337 OA
BRANCH  11  12
ATOM     12  C   UNL     1       7.518  -3.610  22.956  0.00  0.00    +0.282 C 
ATOM     13  O   UNL     1       7.324  -4.498  21.845  0.00  0.00    -0.343 OA
ATOM     14  C   UNL     1       6.107  -5.248  21.902  0.00  0.00    +0.149 C 
ATOM     15  C   UNL     1       6.102  -6.172  20.686  0.00  0.00    +0.041 C 
ATOM     16  C   UNL     1       5.973  -6.059  23.207  0.00  0.00    +0.174 C 
ATOM     17  C   UNL     1       6.259  -5.160  24.421  0.00  0.00    +0.179 C 
ATOM     18  C   UNL     1       7.610  -4.445  24.244  0.00  0.00    +0.201 C 
BRANCH  18  19
ATOM     19  O   UNL     1       8.721  -5.355  24.186  0.00  0.00    -0.384 OA
ATOM     20  H   UNL     1       8.899  -5.522  23.238  0.00  0.00    +0.210 HD
ENDBRANCH  18  19
BRANCH  17  21
ATOM     21  O   UNL     1       6.240  -5.914  25.636  0.00  0.00    -0.386 OA
ATOM     22  H   UNL     1       6.234  -6.858  25.394  0.00  0.00    +0.210 HD
ENDBRANCH  17  21
BRANCH  16  23
ATOM     23  O   UNL     1       4.666  -6.641  23.280  0.00  0.00    -0.387 OA
ATOM     24  H   UNL     1       4.168  -6.371  22.489  0.00  0.00    +0.210 HD
ENDBRANCH  16  23
ENDBRANCH  11  12
ENDBRANCH   4  11
BRANCH   3  25
ATOM     25  O   UNL     1       5.305  -0.431  24.846  0.00  0.00    -0.453 OA
BRANCH  25  26
ATOM     26  C   UNL     1       4.855  -1.206  25.939  0.00  0.00    +0.214 A 
ATOM     27  C   UNL     1       4.196  -2.554  25.707  0.00  0.00    +0.238 A 
ATOM     28  O   UNL     1       4.144  -3.111  24.617  0.00  0.00    -0.283 OA
ATOM     29  C   UNL     1       3.602  -3.265  26.819  0.00  0.00    +0.109 A 
ATOM     30  C   UNL     1       3.787  -2.734  28.080  0.00  0.00    +0.147 A 
ATOM     31  C   UNL     1       3.250  -3.394  29.185  0.00  0.00    +0.092 A 
ATOM     32  C   UNL     1       2.533  -4.575  28.988  0.00  0.00    +0.124 A 
ATOM     33  C   UNL     1       2.352  -5.127  27.723  0.00  0.00    +0.091 A 
ATOM     34  O   UNL     1       4.498  -1.588  28.304  0.00  0.00    -0.451 OA
ATOM     35  C   UNL     1       2.889  -4.461  26.633  0.00  0.00    +0.135 A 
ATOM     36  C   UNL     1       5.016  -0.834  27.239  0.00  0.00    +0.181 A 
BRANCH  36  37
ATOM     37  C   UNL     1       5.817   0.340  27.769  0.00  0.00    +0.025 A 
ATOM     38  C   UNL     1       5.359   1.661  27.514  0.00  0.00    +0.015 A 
ATOM     39  C   UNL     1       5.917   2.790  28.132  0.00  0.00    +0.050 A 
ATOM     40  C   UNL     1       6.975   2.624  29.002  0.00  0.00    +0.158 A 
ATOM     41  C   UNL     1       7.533   1.362  29.173  0.00  0.00    +0.159 A 
ATOM     42  C   UNL     1       6.963   0.234  28.575  0.00  0.00    +0.060 A 
BRANCH  41  43
ATOM     43  O   UNL     1       8.652   1.268  29.957  0.00  0.00    -0.503 OA
ATOM     44  H   UNL     1       8.356   1.288  30.890  0.00  0.00    +0.292 HD
ENDBRANCH  41  43
BRANCH  40  45
ATOM     45  O   UNL     1       7.450   3.702  29.690  0.00  0.00    -0.503 OA
ATOM     46  H   UNL     1       7.727   3.341  30.556  0.00  0.00    +0.292 HD
ENDBRANCH  40  45
ENDBRANCH  36  37
BRANCH  35  47
ATOM     47  O   UNL     1       2.686  -5.002  25.396  0.00  0.00    -0.506 OA
ATOM     48  H   UNL     1       2.145  -4.416  24.843  0.00  0.00    +0.292 HD
ENDBRANCH  35  47
BRANCH  32  49
ATOM     49  O   UNL     1       1.985  -5.268  30.028  0.00  0.00    -0.507 OA
ATOM     50  H   UNL     1       1.454  -6.000  29.676  0.00  0.00    +0.292 HD
ENDBRANCH  32  49
ENDBRANCH  25  26
ENDBRANCH   3  25
BRANCH   1  51
ATOM     51  C   UNL     1       9.270   1.909  24.961  0.00  0.00    +0.197 C 
BRANCH  51  52
ATOM     52  O   UNL     1       9.797   2.540  23.799  0.00  0.00    -0.346 OA
BRANCH  52  56
ATOM     53  C   UNL     1       9.201   6.822  23.984  0.00  0.00    +0.041 C 
ATOM     54  C   UNL     1       8.313   5.766  24.632  0.00  0.00    +0.149 C 
ATOM     55  O   UNL     1       8.985   4.508  24.761  0.00  0.00    -0.343 OA
ATOM     56  C   UNL     1       9.208   3.809  23.538  0.00  0.00    +0.282 C 
ATOM     57  C   UNL     1       7.899   3.527  22.772  0.00  0.00    +0.201 C 
ATOM     58  C   UNL     1       7.041   4.792  22.640  0.00  0.00    +0.179 C 
ATOM     59  C   UNL     1       6.943   5.544  23.974  0.00  0.00    +0.174 C 
BRANCH  59  60
ATOM     60  O   UNL     1       6.145   4.758  24.879  0.00  0.00    -0.387 OA
ATOM     61  H   UNL     1       6.043   5.269  25.711  0.00  0.00    +0.210 HD
ENDBRANCH  59  60
BRANCH  58  62
ATOM     62  O   UNL     1       7.529   5.628  21.580  0.00  0.00    -0.386 OA
ATOM     63  H   UNL     1       7.353   6.561  21.781  0.00  0.00    +0.210 HD
ENDBRANCH  58  62
BRANCH  57  64
ATOM     64  O   UNL     1       8.196   2.990  21.469  0.00  0.00    -0.384 OA
ATOM     65  H   UNL     1       7.349   2.784  21.032  0.00  0.00    +0.210 HD
ENDBRANCH  57  64
ENDBRANCH  52  56
ENDBRANCH  51  52
ENDBRANCH   1  51
TORSDOF 20
ENDMDL
MODEL 7
REMARK VINA RESULT:      -7.2      2.438      5.373
REMARK  Name = 
REMARK  22 active torsions:
REMARK  status: ('A' for Active; 'I' for Inactive)
REMARK    1  A    between atoms: C_1  and  C_2
REMARK    2  A    between atoms: C_4  and  O_68
REMARK    3  A    between atoms: C_6  and  O_67
REMARK    4  A    between atoms: C_8  and  O_66
REMARK    5  A    between atoms: C_10  and  O_13
REMARK    6  A    between atoms: O_13  and  C_14
REMARK    7  A    between atoms: C_14  and  C_15
REMARK    8  A    between atoms: C_17  and  O_65
REMARK    9  A    between atoms: C_19  and  O_64
REMARK   10  A    between atoms: C_21  and  O_48
REMARK   11  A    between atoms: C_23  and  O_26
REMARK   12  A    between atoms: O_26  and  C_27
REMARK   13  A    between atoms: C_28  and  C_40
REMARK   14  A    between atoms: C_32  and  O_39
REMARK   15  A    between atoms: C_34  and  O_38
REMARK   16  A    between atoms: C_42  and  O_47
REMARK   17  A    between atoms: C_43  and  O_46
REMARK   18  A    between atoms: O_48  and  C_49
REMARK   19  A    between atoms: C_51  and  O_63
REMARK   20  A    between atoms: C_53  and  O_62
REMARK   21  A    between atoms: C_55  and  O_61
REMARK   22  A    between atoms: C_57  and  C_60
REMARK                            x       y       z     vdW  Elec       q    Type
REMARK                         _______ _______ _______ _____ _____    ______ ____
ROOT
ATOM      1  C   UNL     1       3.327   0.551  26.976  0.00  0.00    +0.179 C 
ATOM      2  O   UNL     1       4.577   0.111  27.507  0.00  0.00    -0.331 OA
ATOM      3  C   UNL     1       5.134  -0.959  26.761  0.00  0.00    +0.340 C 
ATOM      4  C   UNL     1       4.245  -2.212  26.922  0.00  0.00    +0.221 C 
ATOM      5  C   UNL     1       2.795  -1.826  26.513  0.00  0.00    +0.180 C 
ATOM      6  C   UNL     1       2.309  -0.554  27.232  0.00  0.00    +0.177 C 
ENDROOT
BRANCH   6   7
ATOM      7  O   UNL     1       1.009  -0.209  26.748  0.00  0.00    -0.386 OA
ATOM      8  H   UNL     1       0.400  -0.323  27.503  0.00  0.00    +0.210 HD
ENDBRANCH   6   7
BRANCH   5   9
ATOM      9  O   UNL     1       1.879  -2.893  26.814  0.00  0.00    -0.386 OA
ATOM     10  H   UNL     1       1.417  -3.064  25.967  0.00  0.00    +0.210 HD
ENDBRANCH   5   9
BRANCH   4  11
ATOM     11  O   UNL     1       4.663  -3.295  26.057  0.00  0.00    -0.337 OA
BRANCH  11  12
ATOM     12  C   UNL     1       4.297  -3.149  24.690  0.00  0.00    +0.282 C 
ATOM     13  O   UNL     1       3.095  -3.876  24.391  0.00  0.00    -0.343 OA
ATOM     14  C   UNL     1       3.204  -5.289  24.583  0.00  0.00    +0.149 C 
ATOM     15  C   UNL     1       1.867  -5.895  24.163  0.00  0.00    +0.041 C 
ATOM     16  C   UNL     1       4.363  -5.908  23.776  0.00  0.00    +0.174 C 
ATOM     17  C   UNL     1       5.654  -5.104  24.002  0.00  0.00    +0.179 C 
ATOM     18  C   UNL     1       5.403  -3.611  23.726  0.00  0.00    +0.201 C 
BRANCH  18  19
ATOM     19  O   UNL     1       5.036  -3.348  22.361  0.00  0.00    -0.384 OA
ATOM     20  H   UNL     1       4.068  -3.209  22.352  0.00  0.00    +0.210 HD
ENDBRANCH  18  19
BRANCH  17  21
ATOM     21  O   UNL     1       6.719  -5.598  23.185  0.00  0.00    -0.386 OA
ATOM     22  H   UNL     1       6.548  -5.301  22.273  0.00  0.00    +0.210 HD
ENDBRANCH  17  21
BRANCH  16  23
ATOM     23  O   UNL     1       4.528  -7.282  24.146  0.00  0.00    -0.387 OA
ATOM     24  H   UNL     1       3.658  -7.715  24.103  0.00  0.00    +0.210 HD
ENDBRANCH  16  23
ENDBRANCH  11  12
ENDBRANCH   4  11
BRANCH   3  25
ATOM     25  O   UNL     1       6.508  -1.079  27.179  0.00  0.00    -0.453 OA
BRANCH  25  26
ATOM     26  C   UNL     1       7.449  -0.501  26.296  0.00  0.00    +0.214 A 
ATOM     27  C   UNL     1       7.622   1.007  26.233  0.00  0.00    +0.238 A 
ATOM     28  O   UNL     1       7.093   1.788  27.015  0.00  0.00    -0.283 OA
ATOM     29  C   UNL     1       8.472   1.591  25.219  0.00  0.00    +0.109 A 
ATOM     30  C   UNL     1       9.203   0.725  24.430  0.00  0.00    +0.147 A 
ATOM     31  C   UNL     1      10.051   1.242  23.452  0.00  0.00    +0.092 A 
ATOM     32  C   UNL     1      10.139   2.626  23.291  0.00  0.00    +0.124 A 
ATOM     33  C   UNL     1       9.418   3.509  24.090  0.00  0.00    +0.091 A 
ATOM     34  O   UNL     1       9.150  -0.633  24.576  0.00  0.00    -0.451 OA
ATOM     35  C   UNL     1       8.576   2.983  25.057  0.00  0.00    +0.135 A 
ATOM     36  C   UNL     1       8.274  -1.232  25.496  0.00  0.00    +0.181 A 
BRANCH  36  37
ATOM     37  C   UNL     1       8.470  -2.736  25.503  0.00  0.00    +0.025 A 
ATOM     38  C   UNL     1       9.270  -3.333  24.491  0.00  0.00    +0.015 A 
ATOM     39  C   UNL     1       9.670  -4.677  24.536  0.00  0.00    +0.050 A 
ATOM     40  C   UNL     1       9.249  -5.467  25.586  0.00  0.00    +0.158 A 
ATOM     41  C   UNL     1       8.359  -4.952  26.521  0.00  0.00    +0.159 A 
ATOM     42  C   UNL     1       7.979  -3.607  26.490  0.00  0.00    +0.060 A 
BRANCH  41  43
ATOM     43  O   UNL     1       7.882  -5.809  27.478  0.00  0.00    -0.503 OA
ATOM     44  H   UNL     1       6.958  -5.548  27.667  0.00  0.00    +0.292 HD
ENDBRANCH  41  43
BRANCH  40  45
ATOM     45  O   UNL     1       9.723  -6.742  25.695  0.00  0.00    -0.503 OA
ATOM     46  H   UNL     1      10.192  -6.760  26.552  0.00  0.00    +0.292 HD
ENDBRANCH  40  45
ENDBRANCH  36  37
BRANCH  35  47
ATOM     47  O   UNL     1       7.859   3.860  25.820  0.00  0.00    -0.506 OA
ATOM     48  H   UNL     1       7.707   3.504  26.709  0.00  0.00    +0.292 HD
ENDBRANCH  35  47
BRANCH  32  49
ATOM     49  O   UNL     1      10.951   3.194  22.354  0.00  0.00    -0.507 OA
ATOM     50  H   UNL     1      11.716   2.616  22.205  0.00  0.00    +0.292 HD
ENDBRANCH  32  49
ENDBRANCH  25  26
ENDBRANCH   3  25
BRANCH   1  51
ATOM     51  C   UNL     1       3.008   1.877  27.652  0.00  0.00    +0.197 C 
BRANCH  51  52
ATOM     52  O   UNL     1       2.207   2.644  26.760  0.00  0.00    -0.346 OA
BRANCH  52  56
ATOM     53  C   UNL     1       5.244   2.633  23.677  0.00  0.00    +0.041 C 
ATOM     54  C   UNL     1       4.555   3.866  24.250  0.00  0.00    +0.149 C 
ATOM     55  O   UNL     1       3.939   3.596  25.514  0.00  0.00    -0.343 OA
ATOM     56  C   UNL     1       2.780   2.767  25.462  0.00  0.00    +0.282 C 
ATOM     57  C   UNL     1       1.676   3.352  24.557  0.00  0.00    +0.201 C 
ATOM     58  C   UNL     1       2.231   3.764  23.188  0.00  0.00    +0.179 C 
ATOM     59  C   UNL     1       3.538   4.557  23.329  0.00  0.00    +0.174 C 
BRANCH  59  60
ATOM     60  O   UNL     1       3.229   5.840  23.902  0.00  0.00    -0.387 OA
ATOM     61  H   UNL     1       2.481   5.719  24.526  0.00  0.00    +0.210 HD
ENDBRANCH  59  60
BRANCH  58  62
ATOM     62  O   UNL     1       2.379   2.619  22.335  0.00  0.00    -0.386 OA
ATOM     63  H   UNL     1       3.299   2.308  22.349  0.00  0.00    +0.210 HD
ENDBRANCH  58  62
BRANCH  57  64
ATOM     64  O   UNL     1       0.613   2.395  24.395  0.00  0.00    -0.384 OA
ATOM     65  H   UNL     1       0.310   2.133  25.284  0.00  0.00    +0.210 HD
ENDBRANCH  57  64
ENDBRANCH  52  56
ENDBRANCH  51  52
ENDBRANCH   1  51
TORSDOF 20
ENDMDL
MODEL 8
REMARK VINA RESULT:      -7.1      2.278      8.745
REMARK  Name = 
REMARK  22 active torsions:
REMARK  status: ('A' for Active; 'I' for Inactive)
REMARK    1  A    between atoms: C_1  and  C_2
REMARK    2  A    between atoms: C_4  and  O_68
REMARK    3  A    between atoms: C_6  and  O_67
REMARK    4  A    between atoms: C_8  and  O_66
REMARK    5  A    between atoms: C_10  and  O_13
REMARK    6  A    between atoms: O_13  and  C_14
REMARK    7  A    between atoms: C_14  and  C_15
REMARK    8  A    between atoms: C_17  and  O_65
REMARK    9  A    between atoms: C_19  and  O_64
REMARK   10  A    between atoms: C_21  and  O_48
REMARK   11  A    between atoms: C_23  and  O_26
REMARK   12  A    between atoms: O_26  and  C_27
REMARK   13  A    between atoms: C_28  and  C_40
REMARK   14  A    between atoms: C_32  and  O_39
REMARK   15  A    between atoms: C_34  and  O_38
REMARK   16  A    between atoms: C_42  and  O_47
REMARK   17  A    between atoms: C_43  and  O_46
REMARK   18  A    between atoms: O_48  and  C_49
REMARK   19  A    between atoms: C_51  and  O_63
REMARK   20  A    between atoms: C_53  and  O_62
REMARK   21  A    between atoms: C_55  and  O_61
REMARK   22  A    between atoms: C_57  and  C_60
REMARK                            x       y       z     vdW  Elec       q    Type
REMARK                         _______ _______ _______ _____ _____    ______ ____
ROOT
ATOM      1  C   UNL     1       8.153  -1.129  22.843  0.00  0.00    +0.179 C 
ATOM      2  O   UNL     1       8.108  -0.692  24.200  0.00  0.00    -0.331 OA
ATOM      3  C   UNL     1       7.592   0.622  24.328  0.00  0.00    +0.340 C 
ATOM      4  C   UNL     1       8.582   1.623  23.691  0.00  0.00    +0.221 C 
ATOM      5  C   UNL     1       8.842   1.172  22.226  0.00  0.00    +0.180 C 
ATOM      6  C   UNL     1       9.233  -0.316  22.139  0.00  0.00    +0.177 C 
ENDROOT
BRANCH   6   7
ATOM      7  O   UNL     1       9.373  -0.685  20.764  0.00  0.00    -0.386 OA
ATOM      8  H   UNL     1       9.647  -1.622  20.762  0.00  0.00    +0.210 HD
ENDBRANCH   6   7
BRANCH   5   9
ATOM      9  O   UNL     1       9.895   1.951  21.632  0.00  0.00    -0.386 OA
ATOM     10  H   UNL     1      10.095   2.638  22.300  0.00  0.00    +0.210 HD
ENDBRANCH   5   9
BRANCH   4  11
ATOM     11  O   UNL     1       8.045   2.966  23.639  0.00  0.00    -0.337 OA
BRANCH  11  12
ATOM     12  C   UNL     1       8.970   3.998  23.962  0.00  0.00    +0.282 C 
ATOM     13  O   UNL     1       8.617   4.652  25.190  0.00  0.00    -0.343 OA
ATOM     14  C   UNL     1       7.346   5.308  25.158  0.00  0.00    +0.149 C 
ATOM     15  C   UNL     1       7.169   5.991  26.512  0.00  0.00    +0.041 C 
ATOM     16  C   UNL     1       7.239   6.333  24.010  0.00  0.00    +0.174 C 
ATOM     17  C   UNL     1       7.693   5.696  22.687  0.00  0.00    +0.179 C 
ATOM     18  C   UNL     1       9.084   5.061  22.854  0.00  0.00    +0.201 C 
BRANCH  18  19
ATOM     19  O   UNL     1      10.104   6.023  23.172  0.00  0.00    -0.384 OA
ATOM     20  H   UNL     1      10.473   6.333  22.320  0.00  0.00    +0.210 HD
ENDBRANCH  18  19
BRANCH  17  21
ATOM     21  O   UNL     1       7.699   6.656  21.627  0.00  0.00    -0.386 OA
ATOM     22  H   UNL     1       7.555   6.171  20.794  0.00  0.00    +0.210 HD
ENDBRANCH  17  21
BRANCH  16  23
ATOM     23  O   UNL     1       5.895   6.822  23.924  0.00  0.00    -0.387 OA
ATOM     24  H   UNL     1       5.318   6.212  24.416  0.00  0.00    +0.210 HD
ENDBRANCH  16  23
ENDBRANCH  11  12
ENDBRANCH   4  11
BRANCH   3  25
ATOM     25  O   UNL     1       7.287   0.810  25.725  0.00  0.00    -0.453 OA
BRANCH  25  26
ATOM     26  C   UNL     1       6.211   0.031  26.206  0.00  0.00    +0.214 A 
ATOM     27  C   UNL     1       6.456  -1.355  26.777  0.00  0.00    +0.238 A 
ATOM     28  O   UNL     1       7.570  -1.816  26.993  0.00  0.00    -0.283 OA
ATOM     29  C   UNL     1       5.334  -2.200  27.121  0.00  0.00    +0.109 A 
ATOM     30  C   UNL     1       4.073  -1.643  27.036  0.00  0.00    +0.147 A 
ATOM     31  C   UNL     1       2.961  -2.413  27.376  0.00  0.00    +0.092 A 
ATOM     32  C   UNL     1       3.150  -3.733  27.790  0.00  0.00    +0.124 A 
ATOM     33  C   UNL     1       4.417  -4.301  27.893  0.00  0.00    +0.091 A 
ATOM     34  O   UNL     1       3.859  -0.350  26.650  0.00  0.00    -0.451 OA
ATOM     35  C   UNL     1       5.513  -3.526  27.550  0.00  0.00    +0.135 A 
ATOM     36  C   UNL     1       4.921   0.469  26.233  0.00  0.00    +0.181 A 
BRANCH  36  37
ATOM     37  C   UNL     1       4.417   1.867  25.931  0.00  0.00    +0.025 A 
ATOM     38  C   UNL     1       3.900   2.660  26.992  0.00  0.00    +0.015 A 
ATOM     39  C   UNL     1       3.604   4.023  26.844  0.00  0.00    +0.050 A 
ATOM     40  C   UNL     1       3.789   4.621  25.615  0.00  0.00    +0.158 A 
ATOM     41  C   UNL     1       4.166   3.847  24.524  0.00  0.00    +0.159 A 
ATOM     42  C   UNL     1       4.483   2.494  24.675  0.00  0.00    +0.060 A 
BRANCH  41  43
ATOM     43  O   UNL     1       4.225   4.464  23.302  0.00  0.00    -0.503 OA
ATOM     44  H   UNL     1       5.102   4.261  22.916  0.00  0.00    +0.292 HD
ENDBRANCH  41  43
BRANCH  40  45
ATOM     45  O   UNL     1       3.609   5.967  25.492  0.00  0.00    -0.503 OA
ATOM     46  H   UNL     1       4.483   6.355  25.698  0.00  0.00    +0.292 HD
ENDBRANCH  40  45
ENDBRANCH  36  37
BRANCH  35  47
ATOM     47  O   UNL     1       6.749  -4.102  27.635  0.00  0.00    -0.506 OA
ATOM     48  H   UNL     1       7.443  -3.428  27.710  0.00  0.00    +0.292 HD
ENDBRANCH  35  47
BRANCH  32  49
ATOM     49  O   UNL     1       2.104  -4.537  28.138  0.00  0.00    -0.507 OA
ATOM     50  H   UNL     1       1.286  -4.016  28.124  0.00  0.00    +0.292 HD
ENDBRANCH  32  49
ENDBRANCH  25  26
ENDBRANCH   3  25
BRANCH   1  51
ATOM     51  C   UNL     1       8.408  -2.629  22.874  0.00  0.00    +0.197 C 
BRANCH  51  52
ATOM     52  O   UNL     1       7.615  -3.232  21.858  0.00  0.00    -0.346 OA
BRANCH  52  56
ATOM     53  C   UNL     1       3.787  -3.766  23.804  0.00  0.00    +0.041 C 
ATOM     54  C   UNL     1       5.143  -4.176  24.368  0.00  0.00    +0.149 C 
ATOM     55  O   UNL     1       6.222  -3.499  23.714  0.00  0.00    -0.343 OA
ATOM     56  C   UNL     1       6.470  -3.907  22.370  0.00  0.00    +0.282 C 
ATOM     57  C   UNL     1       6.772  -5.415  22.257  0.00  0.00    +0.201 C 
ATOM     58  C   UNL     1       5.724  -6.254  22.998  0.00  0.00    +0.179 C 
ATOM     59  C   UNL     1       5.432  -5.684  24.393  0.00  0.00    +0.174 C 
BRANCH  59  60
ATOM     60  O   UNL     1       6.592  -5.894  25.219  0.00  0.00    -0.387 OA
ATOM     61  H   UNL     1       6.739  -5.078  25.744  0.00  0.00    +0.210 HD
ENDBRANCH  59  60
BRANCH  58  62
ATOM     62  O   UNL     1       4.533  -6.392  22.207  0.00  0.00    -0.386 OA
ATOM     63  H   UNL     1       4.215  -7.309  22.236  0.00  0.00    +0.210 HD
ENDBRANCH  58  62
BRANCH  57  64
ATOM     64  O   UNL     1       6.832  -5.803  20.872  0.00  0.00    -0.384 OA
ATOM     65  H   UNL     1       7.609  -6.382  20.758  0.00  0.00    +0.210 HD
ENDBRANCH  57  64
ENDBRANCH  52  56
ENDBRANCH  51  52
ENDBRANCH   1  51
TORSDOF 20
ENDMDL
MODEL 9
REMARK VINA RESULT:      -7.1      2.001      7.933
REMARK  Name = 
REMARK  22 active torsions:
REMARK  status: ('A' for Active; 'I' for Inactive)
REMARK    1  A    between atoms: C_1  and  C_2
REMARK    2  A    between atoms: C_4  and  O_68
REMARK    3  A    between atoms: C_6  and  O_67
REMARK    4  A    between atoms: C_8  and  O_66
REMARK    5  A    between atoms: C_10  and  O_13
REMARK    6  A    between atoms: O_13  and  C_14
REMARK    7  A    between atoms: C_14  and  C_15
REMARK    8  A    between atoms: C_17  and  O_65
REMARK    9  A    between atoms: C_19  and  O_64
REMARK   10  A    between atoms: C_21  and  O_48
REMARK   11  A    between atoms: C_23  and  O_26
REMARK   12  A    between atoms: O_26  and  C_27
REMARK   13  A    between atoms: C_28  and  C_40
REMARK   14  A    between atoms: C_32  and  O_39
REMARK   15  A    between atoms: C_34  and  O_38
REMARK   16  A    between atoms: C_42  and  O_47
REMARK   17  A    between atoms: C_43  and  O_46
REMARK   18  A    between atoms: O_48  and  C_49
REMARK   19  A    between atoms: C_51  and  O_63
REMARK   20  A    between atoms: C_53  and  O_62
REMARK   21  A    between atoms: C_55  and  O_61
REMARK   22  A    between atoms: C_57  and  C_60
REMARK                            x       y       z     vdW  Elec       q    Type
REMARK                         _______ _______ _______ _____ _____    ______ ____
ROOT
ATOM      1  C   UNL     1       5.308  -2.713  27.380  0.00  0.00    +0.179 C 
ATOM      2  O   UNL     1       5.205  -2.024  26.135  0.00  0.00    -0.331 OA
ATOM      3  C   UNL     1       5.490  -0.640  26.259  0.00  0.00    +0.340 C 
ATOM      4  C   UNL     1       4.386   0.035  27.103  0.00  0.00    +0.221 C 
ATOM      5  C   UNL     1       4.286  -0.727  28.456  0.00  0.00    +0.180 C 
ATOM      6  C   UNL     1       4.150  -2.248  28.255  0.00  0.00    +0.177 C 
ENDROOT
BRANCH   6   7
ATOM      7  O   UNL     1       4.149  -2.892  29.532  0.00  0.00    -0.386 OA
ATOM      8  H   UNL     1       4.657  -3.718  29.419  0.00  0.00    +0.210 HD
ENDBRANCH   6   7
BRANCH   5   9
ATOM      9  O   UNL     1       3.155  -0.268  29.216  0.00  0.00    -0.386 OA
ATOM     10  H   UNL     1       2.378  -0.566  28.698  0.00  0.00    +0.210 HD
ENDBRANCH   5   9
BRANCH   4  11
ATOM     11  O   UNL     1       4.698   1.415  27.408  0.00  0.00    -0.337 OA
BRANCH  11  12
ATOM     12  C   UNL     1       5.511   1.609  28.561  0.00  0.00    +0.282 C 
ATOM     13  O   UNL     1       4.790   2.285  29.601  0.00  0.00    -0.343 OA
ATOM     14  C   UNL     1       4.352   3.601  29.248  0.00  0.00    +0.149 C 
ATOM     15  C   UNL     1       3.666   4.183  30.482  0.00  0.00    +0.041 C 
ATOM     16  C   UNL     1       5.512   4.507  28.788  0.00  0.00    +0.174 C 
ATOM     17  C   UNL     1       6.363   3.782  27.733  0.00  0.00    +0.179 C 
ATOM     18  C   UNL     1       6.794   2.401  28.256  0.00  0.00    +0.201 C 
BRANCH  18  19
ATOM     19  O   UNL     1       7.635   2.481  29.419  0.00  0.00    -0.384 OA
ATOM     20  H   UNL     1       8.559   2.419  29.103  0.00  0.00    +0.210 HD
ENDBRANCH  18  19
BRANCH  17  21
ATOM     21  O   UNL     1       7.503   4.563  27.365  0.00  0.00    -0.386 OA
ATOM     22  H   UNL     1       7.727   4.337  26.444  0.00  0.00    +0.210 HD
ENDBRANCH  17  21
BRANCH  16  23
ATOM     23  O   UNL     1       4.989   5.742  28.284  0.00  0.00    -0.387 OA
ATOM     24  H   UNL     1       5.648   6.127  27.682  0.00  0.00    +0.210 HD
ENDBRANCH  16  23
ENDBRANCH  11  12
ENDBRANCH   4  11
BRANCH   3  25
ATOM     25  O   UNL     1       5.682  -0.139  24.920  0.00  0.00    -0.453 OA
BRANCH  25  26
ATOM     26  C   UNL     1       6.948   0.442  24.681  0.00  0.00    +0.214 A 
ATOM     27  C   UNL     1       7.113   1.952  24.672  0.00  0.00    +0.238 A 
ATOM     28  O   UNL     1       6.234   2.737  25.005  0.00  0.00    -0.283 OA
ATOM     29  C   UNL     1       8.376   2.534  24.273  0.00  0.00    +0.109 A 
ATOM     30  C   UNL     1       9.428   1.669  24.046  0.00  0.00    +0.147 A 
ATOM     31  C   UNL     1      10.670   2.185  23.679  0.00  0.00    +0.092 A 
ATOM     32  C   UNL     1      10.819   3.567  23.545  0.00  0.00    +0.124 A 
ATOM     33  C   UNL     1       9.770   4.449  23.785  0.00  0.00    +0.091 A 
ATOM     34  O   UNL     1       9.316   0.314  24.186  0.00  0.00    -0.451 OA
ATOM     35  C   UNL     1       8.540   3.924  24.147  0.00  0.00    +0.135 A 
ATOM     36  C   UNL     1       8.084  -0.286  24.492  0.00  0.00    +0.181 A 
BRANCH  36  37
ATOM     37  C   UNL     1       8.257  -1.783  24.658  0.00  0.00    +0.025 A 
ATOM     38  C   UNL     1       8.089  -2.628  23.528  0.00  0.00    +0.015 A 
ATOM     39  C   UNL     1       8.426  -3.990  23.542  0.00  0.00    +0.050 A 
ATOM     40  C   UNL     1       8.913  -4.548  24.705  0.00  0.00    +0.158 A 
ATOM     41  C   UNL     1       8.966  -3.783  25.865  0.00  0.00    +0.159 A 
ATOM     42  C   UNL     1       8.652  -2.421  25.846  0.00  0.00    +0.060 A 
BRANCH  41  43
ATOM     43  O   UNL     1       9.349  -4.413  27.020  0.00  0.00    -0.503 OA
ATOM     44  H   UNL     1       8.534  -4.631  27.517  0.00  0.00    +0.292 HD
ENDBRANCH  41  43
BRANCH  40  45
ATOM     45  O   UNL     1       9.347  -5.841  24.696  0.00  0.00    -0.503 OA
ATOM     46  H   UNL     1       9.447  -6.063  23.749  0.00  0.00    +0.292 HD
ENDBRANCH  40  45
ENDBRANCH  36  37
BRANCH  35  47
ATOM     47  O   UNL     1       7.513   4.799  24.358  0.00  0.00    -0.506 OA
ATOM     48  H   UNL     1       6.704   4.332  24.618  0.00  0.00    +0.292 HD
ENDBRANCH  35  47
BRANCH  32  49
ATOM     49  O   UNL     1      12.009   4.133  23.191  0.00  0.00    -0.507 OA
ATOM     50  H   UNL     1      12.719   3.485  23.317  0.00  0.00    +0.292 HD
ENDBRANCH  32  49
ENDBRANCH  25  26
ENDBRANCH   3  25
BRANCH   1  51
ATOM     51  C   UNL     1       5.301  -4.201  27.057  0.00  0.00    +0.197 C 
BRANCH  51  52
ATOM     52  O   UNL     1       3.982  -4.559  26.660  0.00  0.00    -0.346 OA
BRANCH  52  56
ATOM     53  C   UNL     1       4.973  -5.753  22.621  0.00  0.00    +0.041 C 
ATOM     54  C   UNL     1       3.668  -5.103  23.068  0.00  0.00    +0.149 C 
ATOM     55  O   UNL     1       3.802  -4.448  24.334  0.00  0.00    -0.343 OA
ATOM     56  C   UNL     1       3.948  -5.317  25.455  0.00  0.00    +0.282 C 
ATOM     57  C   UNL     1       2.769  -6.301  25.598  0.00  0.00    +0.201 C 
ATOM     58  C   UNL     1       2.467  -7.011  24.273  0.00  0.00    +0.179 C 
ATOM     59  C   UNL     1       2.436  -6.021  23.100  0.00  0.00    +0.174 C 
BRANCH  59  60
ATOM     60  O   UNL     1       1.272  -5.187  23.241  0.00  0.00    -0.387 OA
ATOM     61  H   UNL     1       0.887  -5.356  24.129  0.00  0.00    +0.210 HD
ENDBRANCH  59  60
BRANCH  58  62
ATOM     62  O   UNL     1       3.391  -8.088  24.052  0.00  0.00    -0.386 OA
ATOM     63  H   UNL     1       4.255  -7.872  24.440  0.00  0.00    +0.210 HD
ENDBRANCH  58  62
BRANCH  57  64
ATOM     64  O   UNL     1       3.054  -7.267  26.626  0.00  0.00    -0.384 OA
ATOM     65  H   UNL     1       2.917  -6.833  27.489  0.00  0.00    +0.210 HD
ENDBRANCH  57  64
ENDBRANCH  52  56
ENDBRANCH  51  52
ENDBRANCH   1  51
TORSDOF 20
ENDMDL
