MODEL 1
REMARK VINA RESULT:      -6.2      0.000      0.000
REMARK  Name = 
REMARK  18 active torsions:
REMARK  status: ('A' for Active; 'I' for Inactive)
REMARK    1  A    between atoms: C_1  and  C_2
REMARK    2  A    between atoms: C_2  and  C_3
REMARK    3  A    between atoms: C_3  and  O_4
REMARK    4  A    between atoms: O_4  and  C_5
REMARK    5  A    between atoms: C_6  and  C_21
REMARK    6  A    between atoms: C_10  and  O_17
REMARK    7  A    between atoms: C_12  and  O_16
REMARK    8  A    between atoms: O_17  and  C_18
REMARK    9  A    between atoms: C_18  and  C_19
REMARK   10  A    between atoms: C_19  and  C_20
REMARK   11  A    between atoms: C_23  and  O_31
REMARK   12  A    between atoms: C_24  and  O_27
REMARK   13  A    between atoms: O_27  and  C_28
REMARK   14  A    between atoms: C_28  and  C_29
REMARK   15  A    between atoms: C_29  and  C_30
REMARK   16  A    between atoms: O_31  and  C_32
REMARK   17  A    between atoms: C_32  and  C_33
REMARK   18  A    between atoms: C_33  and  C_34
REMARK                            x       y       z     vdW  Elec       q    Type
REMARK                         _______ _______ _______ _____ _____    ______ ____
ROOT
ATOM      1  C   UNL     1       8.850  -1.354  23.743  0.00  0.00    +0.234 C 
ATOM      2  C   UNL     1       9.439  -2.683  24.213  0.00  0.00    +0.203 C 
ATOM      3  O   UNL     1      10.522  -3.120  23.847  0.00  0.00    -0.289 OA
ATOM      4  C   UNL     1       8.625  -3.411  25.201  0.00  0.00    +0.103 A 
ATOM      5  C   UNL     1       7.733  -2.672  25.980  0.00  0.00    +0.139 A 
ATOM      6  C   UNL     1       6.972  -3.313  26.967  0.00  0.00    +0.092 A 
ATOM      7  C   UNL     1       7.117  -4.686  27.182  0.00  0.00    +0.127 A 
ATOM      8  C   UNL     1       8.004  -5.421  26.396  0.00  0.00    +0.092 A 
ATOM      9  O   UNL     1       7.526  -1.323  25.834  0.00  0.00    -0.480 OA
ATOM     10  C   UNL     1       8.743  -4.792  25.397  0.00  0.00    +0.134 A 
ATOM     11  C   UNL     1       8.515  -0.610  25.052  0.00  0.00    +0.240 C 
ENDROOT
BRANCH  11  12
ATOM     12  C   UNL     1       7.958   0.798  24.849  0.00  0.00    -0.001 A 
ATOM     13  C   UNL     1       6.594   1.021  24.628  0.00  0.00    +0.011 A 
ATOM     14  C   UNL     1       6.091   2.324  24.528  0.00  0.00    +0.050 A 
ATOM     15  C   UNL     1       6.936   3.428  24.678  0.00  0.00    +0.162 A 
ATOM     16  C   UNL     1       8.319   3.228  24.833  0.00  0.00    +0.162 A 
ATOM     17  C   UNL     1       8.815   1.916  24.923  0.00  0.00    +0.056 A 
BRANCH  15  18
ATOM     18  O   UNL     1       6.484   4.729  24.668  0.00  0.00    -0.488 OA
BRANCH  18  19
ATOM     19  C   UNL     1       5.768   5.129  23.495  0.00  0.00    +0.229 C 
BRANCH  19  20
ATOM     20  C   UNL     1       6.760   5.318  22.350  0.00  0.00    +0.038 C 
ATOM     21  C   UNL     1       6.921   6.785  21.987  0.00  0.00    +0.007 C 
ENDBRANCH  19  20
ENDBRANCH  18  19
ENDBRANCH  15  18
BRANCH  16  22
ATOM     22  O   UNL     1       9.091   4.362  24.912  0.00  0.00    -0.488 OA
BRANCH  22  23
ATOM     23  C   UNL     1      10.009   4.610  23.849  0.00  0.00    +0.229 C 
BRANCH  23  24
ATOM     24  C   UNL     1      10.212   6.117  23.711  0.00  0.00    +0.038 C 
ATOM     25  C   UNL     1       9.428   6.880  24.767  0.00  0.00    +0.007 C 
ENDBRANCH  23  24
ENDBRANCH  22  23
ENDBRANCH  16  22
ENDBRANCH  11  12
BRANCH  10  26
ATOM     26  O   UNL     1       9.541  -5.548  24.590  0.00  0.00    -0.506 OA
ATOM     27  H   UNL     1      10.471  -5.441  24.846  0.00  0.00    +0.292 HD
ENDBRANCH  10  26
BRANCH   1  28
ATOM     28  O   UNL     1       9.752  -0.588  22.942  0.00  0.00    -0.365 OA
BRANCH  28  29
ATOM     29  C   UNL     1       9.222  -0.269  21.653  0.00  0.00    +0.160 C 
BRANCH  29  31
ATOM     30  C   UNL     1       7.939   1.882  21.340  0.00  0.00    +0.006 C 
ATOM     31  C   UNL     1       9.311   1.234  21.419  0.00  0.00    +0.025 C 
ENDBRANCH  29  31
ENDBRANCH  28  29
ENDBRANCH   1  28
BRANCH   7  32
ATOM     32  O   UNL     1       6.496  -5.416  28.155  0.00  0.00    -0.492 OA
BRANCH  32  33
ATOM     33  C   UNL     1       5.081  -5.567  28.036  0.00  0.00    +0.229 C 
BRANCH  33  34
ATOM     34  C   UNL     1       4.821  -6.933  27.405  0.00  0.00    +0.038 C 
ATOM     35  C   UNL     1       4.308  -6.807  25.983  0.00  0.00    +0.007 C 
ENDBRANCH  33  34
ENDBRANCH  32  33
ENDBRANCH   7  32
TORSDOF 14
ENDMDL
MODEL 2
REMARK VINA RESULT:      -6.0      2.242      9.060
REMARK  Name = 
REMARK  18 active torsions:
REMARK  status: ('A' for Active; 'I' for Inactive)
REMARK    1  A    between atoms: C_1  and  C_2
REMARK    2  A    between atoms: C_2  and  C_3
REMARK    3  A    between atoms: C_3  and  O_4
REMARK    4  A    between atoms: O_4  and  C_5
REMARK    5  A    between atoms: C_6  and  C_21
REMARK    6  A    between atoms: C_10  and  O_17
REMARK    7  A    between atoms: C_12  and  O_16
REMARK    8  A    between atoms: O_17  and  C_18
REMARK    9  A    between atoms: C_18  and  C_19
REMARK   10  A    between atoms: C_19  and  C_20
REMARK   11  A    between atoms: C_23  and  O_31
REMARK   12  A    between atoms: C_24  and  O_27
REMARK   13  A    between atoms: O_27  and  C_28
REMARK   14  A    between atoms: C_28  and  C_29
REMARK   15  A    between atoms: C_29  and  C_30
REMARK   16  A    between atoms: O_31  and  C_32
REMARK   17  A    between atoms: C_32  and  C_33
REMARK   18  A    between atoms: C_33  and  C_34
REMARK                            x       y       z     vdW  Elec       q    Type
REMARK                         _______ _______ _______ _____ _____    ______ ____
ROOT
ATOM      1  C   UNL     1       6.778   0.926  25.784  0.00  0.00    +0.234 C 
ATOM      2  C   UNL     1       7.203   2.209  26.496  0.00  0.00    +0.203 C 
ATOM      3  O   UNL     1       6.986   2.440  27.678  0.00  0.00    -0.289 OA
ATOM      4  C   UNL     1       7.956   3.164  25.665  0.00  0.00    +0.103 A 
ATOM      5  C   UNL     1       8.640   2.662  24.557  0.00  0.00    +0.139 A 
ATOM      6  C   UNL     1       9.410   3.523  23.763  0.00  0.00    +0.092 A 
ATOM      7  C   UNL     1       9.504   4.880  24.090  0.00  0.00    +0.127 A 
ATOM      8  C   UNL     1       8.812   5.377  25.194  0.00  0.00    +0.092 A 
ATOM      9  O   UNL     1       8.601   1.348  24.163  0.00  0.00    -0.480 OA
ATOM     10  C   UNL     1       8.026   4.528  25.969  0.00  0.00    +0.134 A 
ATOM     11  C   UNL     1       8.078   0.410  25.135  0.00  0.00    +0.240 C 
ENDROOT
BRANCH  11  12
ATOM     12  C   UNL     1       7.929  -0.921  24.400  0.00  0.00    -0.001 A 
ATOM     13  C   UNL     1       7.076  -1.057  23.298  0.00  0.00    +0.011 A 
ATOM     14  C   UNL     1       7.016  -2.261  22.586  0.00  0.00    +0.050 A 
ATOM     15  C   UNL     1       7.828  -3.342  22.944  0.00  0.00    +0.162 A 
ATOM     16  C   UNL     1       8.641  -3.251  24.088  0.00  0.00    +0.162 A 
ATOM     17  C   UNL     1       8.688  -2.041  24.800  0.00  0.00    +0.056 A 
BRANCH  15  18
ATOM     18  O   UNL     1       7.868  -4.521  22.234  0.00  0.00    -0.488 OA
BRANCH  18  19
ATOM     19  C   UNL     1       6.633  -4.930  21.639  0.00  0.00    +0.229 C 
BRANCH  19  20
ATOM     20  C   UNL     1       6.143  -6.197  22.335  0.00  0.00    +0.038 C 
ATOM     21  C   UNL     1       5.145  -5.879  23.437  0.00  0.00    +0.007 C 
ENDBRANCH  19  20
ENDBRANCH  18  19
ENDBRANCH  15  18
BRANCH  16  22
ATOM     22  O   UNL     1       9.364  -4.375  24.410  0.00  0.00    -0.488 OA
BRANCH  22  23
ATOM     23  C   UNL     1       9.282  -4.849  25.753  0.00  0.00    +0.229 C 
BRANCH  23  24
ATOM     24  C   UNL     1       7.888  -5.422  25.991  0.00  0.00    +0.038 C 
ATOM     25  C   UNL     1       7.177  -4.698  27.123  0.00  0.00    +0.007 C 
ENDBRANCH  23  24
ENDBRANCH  22  23
ENDBRANCH  16  22
ENDBRANCH  11  12
BRANCH  10  26
ATOM     26  O   UNL     1       7.295   5.056  26.993  0.00  0.00    -0.506 OA
ATOM     27  H   UNL     1       7.370   4.494  27.780  0.00  0.00    +0.292 HD
ENDBRANCH  10  26
BRANCH   1  28
ATOM     28  O   UNL     1       6.227  -0.055  26.665  0.00  0.00    -0.365 OA
BRANCH  28  29
ATOM     29  C   UNL     1       4.876  -0.397  26.347  0.00  0.00    +0.160 C 
BRANCH  29  31
ATOM     30  C   UNL     1       4.488  -2.656  25.291  0.00  0.00    +0.006 C 
ATOM     31  C   UNL     1       4.654  -1.885  26.589  0.00  0.00    +0.025 C 
ENDBRANCH  29  31
ENDBRANCH  28  29
ENDBRANCH   1  28
BRANCH   7  32
ATOM     32  O   UNL     1      10.276   5.807  23.449  0.00  0.00    -0.492 OA
BRANCH  32  33
ATOM     33  C   UNL     1      11.624   5.940  23.901  0.00  0.00    +0.229 C 
BRANCH  33  34
ATOM     34  C   UNL     1      12.470   4.950  23.104  0.00  0.00    +0.038 C 
ATOM     35  C   UNL     1      13.365   5.654  22.102  0.00  0.00    +0.007 C 
ENDBRANCH  33  34
ENDBRANCH  32  33
ENDBRANCH   7  32
TORSDOF 14
ENDMDL
MODEL 3
REMARK VINA RESULT:      -5.9      2.602      9.054
REMARK  Name = 
REMARK  18 active torsions:
REMARK  status: ('A' for Active; 'I' for Inactive)
REMARK    1  A    between atoms: C_1  and  C_2
REMARK    2  A    between atoms: C_2  and  C_3
REMARK    3  A    between atoms: C_3  and  O_4
REMARK    4  A    between atoms: O_4  and  C_5
REMARK    5  A    between atoms: C_6  and  C_21
REMARK    6  A    between atoms: C_10  and  O_17
REMARK    7  A    between atoms: C_12  and  O_16
REMARK    8  A    between atoms: O_17  and  C_18
REMARK    9  A    between atoms: C_18  and  C_19
REMARK   10  A    between atoms: C_19  and  C_20
REMARK   11  A    between atoms: C_23  and  O_31
REMARK   12  A    between atoms: C_24  and  O_27
REMARK   13  A    between atoms: O_27  and  C_28
REMARK   14  A    between atoms: C_28  and  C_29
REMARK   15  A    between atoms: C_29  and  C_30
REMARK   16  A    between atoms: O_31  and  C_32
REMARK   17  A    between atoms: C_32  and  C_33
REMARK   18  A    between atoms: C_33  and  C_34
REMARK                            x       y       z     vdW  Elec       q    Type
REMARK                         _______ _______ _______ _____ _____    ______ ____
ROOT
ATOM      1  C   UNL     1       8.599  -1.912  23.992  0.00  0.00    +0.234 C 
ATOM      2  C   UNL     1       9.572  -0.779  23.672  0.00  0.00    +0.203 C 
ATOM      3  O   UNL     1      10.791  -0.896  23.693  0.00  0.00    -0.289 OA
ATOM      4  C   UNL     1       8.941   0.492  23.277  0.00  0.00    +0.103 A 
ATOM      5  C   UNL     1       7.653   0.440  22.743  0.00  0.00    +0.139 A 
ATOM      6  C   UNL     1       7.030   1.617  22.307  0.00  0.00    +0.092 A 
ATOM      7  C   UNL     1       7.703   2.839  22.394  0.00  0.00    +0.127 A 
ATOM      8  C   UNL     1       8.987   2.887  22.936  0.00  0.00    +0.092 A 
ATOM      9  O   UNL     1       6.920  -0.714  22.623  0.00  0.00    -0.480 OA
ATOM     10  C   UNL     1       9.598   1.723  23.394  0.00  0.00    +0.134 A 
ATOM     11  C   UNL     1       7.658  -1.953  22.771  0.00  0.00    +0.240 C 
ENDROOT
BRANCH  11  12
ATOM     12  C   UNL     1       6.611  -3.064  22.821  0.00  0.00    -0.001 A 
ATOM     13  C   UNL     1       6.801  -4.278  22.150  0.00  0.00    +0.011 A 
ATOM     14  C   UNL     1       5.869  -5.317  22.276  0.00  0.00    +0.050 A 
ATOM     15  C   UNL     1       4.747  -5.172  23.098  0.00  0.00    +0.162 A 
ATOM     16  C   UNL     1       4.502  -3.939  23.727  0.00  0.00    +0.162 A 
ATOM     17  C   UNL     1       5.439  -2.901  23.588  0.00  0.00    +0.056 A 
BRANCH  15  18
ATOM     18  O   UNL     1       3.842  -6.185  23.321  0.00  0.00    -0.488 OA
BRANCH  18  19
ATOM     19  C   UNL     1       4.207  -7.134  24.328  0.00  0.00    +0.229 C 
BRANCH  19  20
ATOM     20  C   UNL     1       2.952  -7.555  25.089  0.00  0.00    +0.038 C 
ATOM     21  C   UNL     1       1.696  -6.980  24.456  0.00  0.00    +0.007 C 
ENDBRANCH  19  20
ENDBRANCH  18  19
ENDBRANCH  15  18
BRANCH  16  22
ATOM     22  O   UNL     1       3.348  -3.855  24.470  0.00  0.00    -0.488 OA
BRANCH  22  23
ATOM     23  C   UNL     1       3.429  -3.221  25.745  0.00  0.00    +0.229 C 
BRANCH  23  24
ATOM     24  C   UNL     1       3.704  -4.283  26.808  0.00  0.00    +0.038 C 
ATOM     25  C   UNL     1       2.427  -4.692  27.524  0.00  0.00    +0.007 C 
ENDBRANCH  23  24
ENDBRANCH  22  23
ENDBRANCH  16  22
ENDBRANCH  11  12
BRANCH  10  26
ATOM     26  O   UNL     1      10.820   1.810  23.994  0.00  0.00    -0.506 OA
ATOM     27  H   UNL     1      11.244   2.653  23.767  0.00  0.00    +0.292 HD
ENDBRANCH  10  26
BRANCH   1  28
ATOM     28  O   UNL     1       9.243  -3.175  24.178  0.00  0.00    -0.365 OA
BRANCH  28  29
ATOM     29  C   UNL     1       9.002  -3.740  25.468  0.00  0.00    +0.160 C 
BRANCH  29  31
ATOM     30  C   UNL     1       7.163  -5.387  25.989  0.00  0.00    +0.006 C 
ATOM     31  C   UNL     1       8.508  -5.173  25.316  0.00  0.00    +0.025 C 
ENDBRANCH  29  31
ENDBRANCH  28  29
ENDBRANCH   1  28
BRANCH   7  32
ATOM     32  O   UNL     1       7.242   4.042  21.939  0.00  0.00    -0.492 OA
BRANCH  32  33
ATOM     33  C   UNL     1       6.976   5.040  22.926  0.00  0.00    +0.229 C 
BRANCH  33  34
ATOM     34  C   UNL     1       7.693   6.315  22.488  0.00  0.00    +0.038 C 
ATOM     35  C   UNL     1       8.930   6.581  23.323  0.00  0.00    +0.007 C 
ENDBRANCH  33  34
ENDBRANCH  32  33
ENDBRANCH   7  32
TORSDOF 14
ENDMDL
MODEL 4
REMARK VINA RESULT:      -5.9      2.444      3.198
REMARK  Name = 
REMARK  18 active torsions:
REMARK  status: ('A' for Active; 'I' for Inactive)
REMARK    1  A    between atoms: C_1  and  C_2
REMARK    2  A    between atoms: C_2  and  C_3
REMARK    3  A    between atoms: C_3  and  O_4
REMARK    4  A    between atoms: O_4  and  C_5
REMARK    5  A    between atoms: C_6  and  C_21
REMARK    6  A    between atoms: C_10  and  O_17
REMARK    7  A    between atoms: C_12  and  O_16
REMARK    8  A    between atoms: O_17  and  C_18
REMARK    9  A    between atoms: C_18  and  C_19
REMARK   10  A    between atoms: C_19  and  C_20
REMARK   11  A    between atoms: C_23  and  O_31
REMARK   12  A    between atoms: C_24  and  O_27
REMARK   13  A    between atoms: O_27  and  C_28
REMARK   14  A    between atoms: C_28  and  C_29
REMARK   15  A    between atoms: C_29  and  C_30
REMARK   16  A    between atoms: O_31  and  C_32
REMARK   17  A    between atoms: C_32  and  C_33
REMARK   18  A    between atoms: C_33  and  C_34
REMARK                            x       y       z     vdW  Elec       q    Type
REMARK                         _______ _______ _______ _____ _____    ______ ____
ROOT
ATOM      1  C   UNL     1       8.760  -1.241  23.647  0.00  0.00    +0.234 C 
ATOM      2  C   UNL     1       8.680  -2.689  24.126  0.00  0.00    +0.203 C 
ATOM      3  O   UNL     1       9.462  -3.190  24.925  0.00  0.00    -0.289 OA
ATOM      4  C   UNL     1       7.546  -3.462  23.593  0.00  0.00    +0.103 A 
ATOM      5  C   UNL     1       6.422  -2.754  23.165  0.00  0.00    +0.139 A 
ATOM      6  C   UNL     1       5.298  -3.446  22.695  0.00  0.00    +0.092 A 
ATOM      7  C   UNL     1       5.297  -4.844  22.670  0.00  0.00    +0.127 A 
ATOM      8  C   UNL     1       6.425  -5.546  23.092  0.00  0.00    +0.092 A 
ATOM      9  O   UNL     1       6.339  -1.384  23.153  0.00  0.00    -0.480 OA
ATOM     10  C   UNL     1       7.553  -4.860  23.535  0.00  0.00    +0.134 A 
ATOM     11  C   UNL     1       7.349  -0.680  23.916  0.00  0.00    +0.240 C 
ENDROOT
BRANCH  11  12
ATOM     12  C   UNL     1       7.185   0.799  23.572  0.00  0.00    -0.001 A 
ATOM     13  C   UNL     1       7.160   1.243  22.244  0.00  0.00    +0.011 A 
ATOM     14  C   UNL     1       6.925   2.592  21.947  0.00  0.00    +0.050 A 
ATOM     15  C   UNL     1       6.680   3.515  22.968  0.00  0.00    +0.162 A 
ATOM     16  C   UNL     1       6.767   3.104  24.310  0.00  0.00    +0.162 A 
ATOM     17  C   UNL     1       7.012   1.751  24.598  0.00  0.00    +0.056 A 
BRANCH  15  18
ATOM     18  O   UNL     1       6.365   4.834  22.731  0.00  0.00    -0.488 OA
BRANCH  18  19
ATOM     19  C   UNL     1       7.398   5.620  22.129  0.00  0.00    +0.229 C 
BRANCH  19  20
ATOM     20  C   UNL     1       7.916   6.626  23.154  0.00  0.00    +0.038 C 
ATOM     21  C   UNL     1       9.388   6.401  23.463  0.00  0.00    +0.007 C 
ENDBRANCH  19  20
ENDBRANCH  18  19
ENDBRANCH  15  18
BRANCH  16  22
ATOM     22  O   UNL     1       6.573   4.082  25.257  0.00  0.00    -0.488 OA
BRANCH  22  23
ATOM     23  C   UNL     1       7.605   4.276  26.223  0.00  0.00    +0.229 C 
BRANCH  23  24
ATOM     24  C   UNL     1       6.964   4.550  27.582  0.00  0.00    +0.038 C 
ATOM     25  C   UNL     1       6.120   3.373  28.043  0.00  0.00    +0.007 C 
ENDBRANCH  23  24
ENDBRANCH  22  23
ENDBRANCH  16  22
ENDBRANCH  11  12
BRANCH  10  26
ATOM     26  O   UNL     1       8.671  -5.569  23.865  0.00  0.00    -0.506 OA
ATOM     27  H   UNL     1       9.288  -5.007  24.359  0.00  0.00    +0.292 HD
ENDBRANCH  10  26
BRANCH   1  28
ATOM     28  O   UNL     1       9.751  -0.471  24.332  0.00  0.00    -0.365 OA
BRANCH  28  29
ATOM     29  C   UNL     1      10.548   0.324  23.451  0.00  0.00    +0.160 C 
BRANCH  29  31
ATOM     30  C   UNL     1      10.471   2.825  23.130  0.00  0.00    +0.006 C 
ATOM     31  C   UNL     1      10.802   1.687  24.081  0.00  0.00    +0.025 C 
ENDBRANCH  29  31
ENDBRANCH  28  29
ENDBRANCH   1  28
BRANCH   7  32
ATOM     32  O   UNL     1       4.246  -5.639  22.310  0.00  0.00    -0.492 OA
BRANCH  32  33
ATOM     33  C   UNL     1       3.424  -6.132  23.368  0.00  0.00    +0.229 C 
BRANCH  33  34
ATOM     34  C   UNL     1       2.142  -5.302  23.373  0.00  0.00    +0.038 C 
ATOM     35  C   UNL     1       2.048  -4.419  24.603  0.00  0.00    +0.007 C 
ENDBRANCH  33  34
ENDBRANCH  32  33
ENDBRANCH   7  32
TORSDOF 14
ENDMDL
MODEL 5
REMARK VINA RESULT:      -5.7      2.507      8.797
REMARK  Name = 
REMARK  18 active torsions:
REMARK  status: ('A' for Active; 'I' for Inactive)
REMARK    1  A    between atoms: C_1  and  C_2
REMARK    2  A    between atoms: C_2  and  C_3
REMARK    3  A    between atoms: C_3  and  O_4
REMARK    4  A    between atoms: O_4  and  C_5
REMARK    5  A    between atoms: C_6  and  C_21
REMARK    6  A    between atoms: C_10  and  O_17
REMARK    7  A    between atoms: C_12  and  O_16
REMARK    8  A    between atoms: O_17  and  C_18
REMARK    9  A    between atoms: C_18  and  C_19
REMARK   10  A    between atoms: C_19  and  C_20
REMARK   11  A    between atoms: C_23  and  O_31
REMARK   12  A    between atoms: C_24  and  O_27
REMARK   13  A    between atoms: O_27  and  C_28
REMARK   14  A    between atoms: C_28  and  C_29
REMARK   15  A    between atoms: C_29  and  C_30
REMARK   16  A    between atoms: O_31  and  C_32
REMARK   17  A    between atoms: C_32  and  C_33
REMARK   18  A    between atoms: C_33  and  C_34
REMARK                            x       y       z     vdW  Elec       q    Type
REMARK                         _______ _______ _______ _____ _____    ______ ____
ROOT
ATOM      1  C   UNL     1       8.660  -1.283  24.225  0.00  0.00    +0.234 C 
ATOM      2  C   UNL     1       9.540  -0.165  23.668  0.00  0.00    +0.203 C 
ATOM      3  O   UNL     1      10.546  -0.357  22.996  0.00  0.00    -0.289 OA
ATOM      4  C   UNL     1       9.070   1.201  23.952  0.00  0.00    +0.103 A 
ATOM      5  C   UNL     1       7.711   1.380  24.210  0.00  0.00    +0.139 A 
ATOM      6  C   UNL     1       7.207   2.667  24.438  0.00  0.00    +0.092 A 
ATOM      7  C   UNL     1       8.062   3.772  24.393  0.00  0.00    +0.127 A 
ATOM      8  C   UNL     1       9.422   3.587  24.143  0.00  0.00    +0.092 A 
ATOM      9  O   UNL     1       6.802   0.353  24.275  0.00  0.00    -0.480 OA
ATOM     10  C   UNL     1       9.929   2.306  23.942  0.00  0.00    +0.134 A 
ATOM     11  C   UNL     1       7.243  -0.919  23.739  0.00  0.00    +0.240 C 
ENDROOT
BRANCH  11  12
ATOM     12  C   UNL     1       6.167  -1.934  24.121  0.00  0.00    -0.001 A 
ATOM     13  C   UNL     1       5.574  -1.929  25.390  0.00  0.00    +0.011 A 
ATOM     14  C   UNL     1       4.531  -2.813  25.693  0.00  0.00    +0.050 A 
ATOM     15  C   UNL     1       4.042  -3.698  24.727  0.00  0.00    +0.162 A 
ATOM     16  C   UNL     1       4.668  -3.767  23.470  0.00  0.00    +0.162 A 
ATOM     17  C   UNL     1       5.718  -2.881  23.178  0.00  0.00    +0.056 A 
BRANCH  15  18
ATOM     18  O   UNL     1       2.970  -4.533  24.945  0.00  0.00    -0.488 OA
BRANCH  18  19
ATOM     19  C   UNL     1       3.009  -5.290  26.159  0.00  0.00    +0.229 C 
BRANCH  19  20
ATOM     20  C   UNL     1       3.767  -6.591  25.905  0.00  0.00    +0.038 C 
ATOM     21  C   UNL     1       4.871  -6.803  26.929  0.00  0.00    +0.007 C 
ENDBRANCH  19  20
ENDBRANCH  18  19
ENDBRANCH  15  18
BRANCH  16  22
ATOM     22  O   UNL     1       4.169  -4.703  22.595  0.00  0.00    -0.488 OA
BRANCH  22  23
ATOM     23  C   UNL     1       4.929  -5.895  22.403  0.00  0.00    +0.229 C 
BRANCH  23  24
ATOM     24  C   UNL     1       5.977  -5.645  21.321  0.00  0.00    +0.038 C 
ATOM     25  C   UNL     1       7.346  -6.146  21.750  0.00  0.00    +0.007 C 
ENDBRANCH  23  24
ENDBRANCH  22  23
ENDBRANCH  16  22
ENDBRANCH  11  12
BRANCH  10  26
ATOM     26  O   UNL     1      11.275   2.146  23.780  0.00  0.00    -0.506 OA
ATOM     27  H   UNL     1      11.520   2.304  22.855  0.00  0.00    +0.292 HD
ENDBRANCH  10  26
BRANCH   1  28
ATOM     28  O   UNL     1       9.036  -2.582  23.765  0.00  0.00    -0.365 OA
BRANCH  28  29
ATOM     29  C   UNL     1       9.423  -3.460  24.825  0.00  0.00    +0.160 C 
BRANCH  29  31
ATOM     30  C   UNL     1       7.751  -4.982  25.946  0.00  0.00    +0.006 C 
ATOM     31  C   UNL     1       8.633  -4.759  24.729  0.00  0.00    +0.025 C 
ENDBRANCH  29  31
ENDBRANCH  28  29
ENDBRANCH   1  28
BRANCH   7  32
ATOM     32  O   UNL     1       7.690   5.080  24.522  0.00  0.00    -0.492 OA
BRANCH  32  33
ATOM     33  C   UNL     1       6.727   5.566  23.586  0.00  0.00    +0.229 C 
BRANCH  33  34
ATOM     34  C   UNL     1       7.494   6.094  22.376  0.00  0.00    +0.038 C 
ATOM     35  C   UNL     1       6.677   7.099  21.587  0.00  0.00    +0.007 C 
ENDBRANCH  33  34
ENDBRANCH  32  33
ENDBRANCH   7  32
TORSDOF 14
ENDMDL
MODEL 6
REMARK VINA RESULT:      -5.6      2.471      3.437
REMARK  Name = 
REMARK  18 active torsions:
REMARK  status: ('A' for Active; 'I' for Inactive)
REMARK    1  A    between atoms: C_1  and  C_2
REMARK    2  A    between atoms: C_2  and  C_3
REMARK    3  A    between atoms: C_3  and  O_4
REMARK    4  A    between atoms: O_4  and  C_5
REMARK    5  A    between atoms: C_6  and  C_21
REMARK    6  A    between atoms: C_10  and  O_17
REMARK    7  A    between atoms: C_12  and  O_16
REMARK    8  A    between atoms: O_17  and  C_18
REMARK    9  A    between atoms: C_18  and  C_19
REMARK   10  A    between atoms: C_19  and  C_20
REMARK   11  A    between atoms: C_23  and  O_31
REMARK   12  A    between atoms: C_24  and  O_27
REMARK   13  A    between atoms: O_27  and  C_28
REMARK   14  A    between atoms: C_28  and  C_29
REMARK   15  A    between atoms: C_29  and  C_30
REMARK   16  A    between atoms: O_31  and  C_32
REMARK   17  A    between atoms: C_32  and  C_33
REMARK   18  A    between atoms: C_33  and  C_34
REMARK                            x       y       z     vdW  Elec       q    Type
REMARK                         _______ _______ _______ _____ _____    ______ ____
ROOT
ATOM      1  C   UNL     1       8.617  -1.549  23.624  0.00  0.00    +0.234 C 
ATOM      2  C   UNL     1       8.555  -3.064  23.808  0.00  0.00    +0.203 C 
ATOM      3  O   UNL     1       9.482  -3.740  24.236  0.00  0.00    -0.289 OA
ATOM      4  C   UNL     1       7.260  -3.681  23.475  0.00  0.00    +0.103 A 
ATOM      5  C   UNL     1       6.123  -2.874  23.533  0.00  0.00    +0.139 A 
ATOM      6  C   UNL     1       4.861  -3.427  23.272  0.00  0.00    +0.092 A 
ATOM      7  C   UNL     1       4.741  -4.787  22.971  0.00  0.00    +0.127 A 
ATOM      8  C   UNL     1       5.882  -5.586  22.908  0.00  0.00    +0.092 A 
ATOM      9  O   UNL     1       6.149  -1.532  23.818  0.00  0.00    -0.480 OA
ATOM     10  C   UNL     1       7.139  -5.034  23.140  0.00  0.00    +0.134 A 
ATOM     11  C   UNL     1       7.382  -1.029  24.388  0.00  0.00    +0.240 C 
ENDROOT
BRANCH  11  12
ATOM     12  C   UNL     1       7.250   0.493  24.406  0.00  0.00    -0.001 A 
ATOM     13  C   UNL     1       7.892   1.272  25.376  0.00  0.00    +0.011 A 
ATOM     14  C   UNL     1       7.827   2.670  25.326  0.00  0.00    +0.050 A 
ATOM     15  C   UNL     1       7.144   3.316  24.290  0.00  0.00    +0.162 A 
ATOM     16  C   UNL     1       6.435   2.553  23.345  0.00  0.00    +0.162 A 
ATOM     17  C   UNL     1       6.500   1.151  23.409  0.00  0.00    +0.056 A 
BRANCH  15  18
ATOM     18  O   UNL     1       7.113   4.685  24.148  0.00  0.00    -0.488 OA
BRANCH  18  19
ATOM     19  C   UNL     1       8.337   5.367  24.435  0.00  0.00    +0.229 C 
BRANCH  19  20
ATOM     20  C   UNL     1       8.745   6.187  23.213  0.00  0.00    +0.038 C 
ATOM     21  C   UNL     1       7.578   6.386  22.259  0.00  0.00    +0.007 C 
ENDBRANCH  19  20
ENDBRANCH  18  19
ENDBRANCH  15  18
BRANCH  16  22
ATOM     22  O   UNL     1       5.739   3.261  22.394  0.00  0.00    -0.488 OA
BRANCH  22  23
ATOM     23  C   UNL     1       4.325   3.363  22.552  0.00  0.00    +0.229 C 
BRANCH  23  24
ATOM     24  C   UNL     1       3.934   4.838  22.567  0.00  0.00    +0.038 C 
ATOM     25  C   UNL     1       2.465   5.026  22.225  0.00  0.00    +0.007 C 
ENDBRANCH  23  24
ENDBRANCH  22  23
ENDBRANCH  16  22
ENDBRANCH  11  12
BRANCH  10  26
ATOM     26  O   UNL     1       8.244  -5.821  22.992  0.00  0.00    -0.506 OA
ATOM     27  H   UNL     1       9.003  -5.417  23.441  0.00  0.00    +0.292 HD
ENDBRANCH  10  26
BRANCH   1  28
ATOM     28  O   UNL     1       9.815  -0.964  24.139  0.00  0.00    -0.365 OA
BRANCH  28  29
ATOM     29  C   UNL     1      10.674  -0.457  23.116  0.00  0.00    +0.160 C 
BRANCH  29  31
ATOM     30  C   UNL     1       9.907   1.664  21.984  0.00  0.00    +0.006 C 
ATOM     31  C   UNL     1       9.836   0.146  21.995  0.00  0.00    +0.025 C 
ENDBRANCH  29  31
ENDBRANCH  28  29
ENDBRANCH   1  28
BRANCH   7  32
ATOM     32  O   UNL     1       3.571  -5.464  22.772  0.00  0.00    -0.492 OA
BRANCH  32  33
ATOM     33  C   UNL     1       3.196  -6.402  23.781  0.00  0.00    +0.229 C 
BRANCH  33  34
ATOM     34  C   UNL     1       1.693  -6.255  24.003  0.00  0.00    +0.038 C 
ATOM     35  C   UNL     1       0.970  -5.875  22.725  0.00  0.00    +0.007 C 
ENDBRANCH  33  34
ENDBRANCH  32  33
ENDBRANCH   7  32
TORSDOF 14
ENDMDL
MODEL 7
REMARK VINA RESULT:      -5.6      2.590      3.415
REMARK  Name = 
REMARK  18 active torsions:
REMARK  status: ('A' for Active; 'I' for Inactive)
REMARK    1  A    between atoms: C_1  and  C_2
REMARK    2  A    between atoms: C_2  and  C_3
REMARK    3  A    between atoms: C_3  and  O_4
REMARK    4  A    between atoms: O_4  and  C_5
REMARK    5  A    between atoms: C_6  and  C_21
REMARK    6  A    between atoms: C_10  and  O_17
REMARK    7  A    between atoms: C_12  and  O_16
REMARK    8  A    between atoms: O_17  and  C_18
REMARK    9  A    between atoms: C_18  and  C_19
REMARK   10  A    between atoms: C_19  and  C_20
REMARK   11  A    between atoms: C_23  and  O_31
REMARK   12  A    between atoms: C_24  and  O_27
REMARK   13  A    between atoms: O_27  and  C_28
REMARK   14  A    between atoms: C_28  and  C_29
REMARK   15  A    between atoms: C_29  and  C_30
REMARK   16  A    between atoms: O_31  and  C_32
REMARK   17  A    between atoms: C_32  and  C_33
REMARK   18  A    between atoms: C_33  and  C_34
REMARK                            x       y       z     vdW  Elec       q    Type
REMARK                         _______ _______ _______ _____ _____    ______ ____
ROOT
ATOM      1  C   UNL     1       8.441  -1.898  24.074  0.00  0.00    +0.234 C 
ATOM      2  C   UNL     1       8.452  -3.425  24.018  0.00  0.00    +0.203 C 
ATOM      3  O   UNL     1       9.416  -4.114  24.327  0.00  0.00    -0.289 OA
ATOM      4  C   UNL     1       7.181  -4.043  23.604  0.00  0.00    +0.103 A 
ATOM      5  C   UNL     1       6.009  -3.312  23.797  0.00  0.00    +0.139 A 
ATOM      6  C   UNL     1       4.770  -3.877  23.464  0.00  0.00    +0.092 A 
ATOM      7  C   UNL     1       4.709  -5.177  22.953  0.00  0.00    +0.127 A 
ATOM      8  C   UNL     1       5.884  -5.900  22.755  0.00  0.00    +0.092 A 
ATOM      9  O   UNL     1       5.978  -2.031  24.290  0.00  0.00    -0.480 OA
ATOM     10  C   UNL     1       7.118  -5.332  23.060  0.00  0.00    +0.134 A 
ATOM     11  C   UNL     1       7.196  -1.565  24.921  0.00  0.00    +0.240 C 
ENDROOT
BRANCH  11  12
ATOM     12  C   UNL     1       6.993  -0.073  25.180  0.00  0.00    -0.001 A 
ATOM     13  C   UNL     1       7.381   0.520  26.388  0.00  0.00    +0.011 A 
ATOM     14  C   UNL     1       7.265   1.903  26.574  0.00  0.00    +0.050 A 
ATOM     15  C   UNL     1       6.785   2.723  25.547  0.00  0.00    +0.162 A 
ATOM     16  C   UNL     1       6.326   2.141  24.352  0.00  0.00    +0.162 A 
ATOM     17  C   UNL     1       6.440   0.752  24.179  0.00  0.00    +0.056 A 
BRANCH  15  18
ATOM     18  O   UNL     1       6.722   4.094  25.646  0.00  0.00    -0.488 OA
BRANCH  18  19
ATOM     19  C   UNL     1       6.945   4.633  26.953  0.00  0.00    +0.229 C 
BRANCH  19  20
ATOM     20  C   UNL     1       7.890   5.828  26.841  0.00  0.00    +0.038 C 
ATOM     21  C   UNL     1       8.739   5.752  25.582  0.00  0.00    +0.007 C 
ENDBRANCH  19  20
ENDBRANCH  18  19
ENDBRANCH  15  18
BRANCH  16  22
ATOM     22  O   UNL     1       5.813   3.006  23.415  0.00  0.00    -0.488 OA
BRANCH  22  23
ATOM     23  C   UNL     1       6.530   3.152  22.191  0.00  0.00    +0.229 C 
BRANCH  23  24
ATOM     24  C   UNL     1       7.349   4.440  22.248  0.00  0.00    +0.038 C 
ATOM     25  C   UNL     1       6.468   5.645  22.534  0.00  0.00    +0.007 C 
ENDBRANCH  23  24
ENDBRANCH  22  23
ENDBRANCH  16  22
ENDBRANCH  11  12
BRANCH  10  26
ATOM     26  O   UNL     1       8.255  -6.031  22.780  0.00  0.00    -0.506 OA
ATOM     27  H   UNL     1       8.894  -5.460  22.325  0.00  0.00    +0.292 HD
ENDBRANCH  10  26
BRANCH   1  28
ATOM     28  O   UNL     1       9.618  -1.345  24.665  0.00  0.00    -0.365 OA
BRANCH  28  29
ATOM     29  C   UNL     1      10.321  -0.461  23.789  0.00  0.00    +0.160 C 
BRANCH  29  31
ATOM     30  C   UNL     1       9.988   2.040  23.833  0.00  0.00    +0.006 C 
ATOM     31  C   UNL     1      10.628   0.843  24.515  0.00  0.00    +0.025 C 
ENDBRANCH  29  31
ENDBRANCH  28  29
ENDBRANCH   1  28
BRANCH   7  32
ATOM     32  O   UNL     1       3.569  -5.870  22.660  0.00  0.00    -0.492 OA
BRANCH  32  33
ATOM     33  C   UNL     1       2.424  -5.589  23.467  0.00  0.00    +0.229 C 
BRANCH  33  34
ATOM     34  C   UNL     1       1.192  -6.013  22.672  0.00  0.00    +0.038 C 
ATOM     35  C   UNL     1       1.238  -7.484  22.304  0.00  0.00    +0.007 C 
ENDBRANCH  33  34
ENDBRANCH  32  33
ENDBRANCH   7  32
TORSDOF 14
ENDMDL
MODEL 8
REMARK VINA RESULT:      -5.3      2.544      9.266
REMARK  Name = 
REMARK  18 active torsions:
REMARK  status: ('A' for Active; 'I' for Inactive)
REMARK    1  A    between atoms: C_1  and  C_2
REMARK    2  A    between atoms: C_2  and  C_3
REMARK    3  A    between atoms: C_3  and  O_4
REMARK    4  A    between atoms: O_4  and  C_5
REMARK    5  A    between atoms: C_6  and  C_21
REMARK    6  A    between atoms: C_10  and  O_17
REMARK    7  A    between atoms: C_12  and  O_16
REMARK    8  A    between atoms: O_17  and  C_18
REMARK    9  A    between atoms: C_18  and  C_19
REMARK   10  A    between atoms: C_19  and  C_20
REMARK   11  A    between atoms: C_23  and  O_31
REMARK   12  A    between atoms: C_24  and  O_27
REMARK   13  A    between atoms: O_27  and  C_28
REMARK   14  A    between atoms: C_28  and  C_29
REMARK   15  A    between atoms: C_29  and  C_30
REMARK   16  A    between atoms: O_31  and  C_32
REMARK   17  A    between atoms: C_32  and  C_33
REMARK   18  A    between atoms: C_33  and  C_34
REMARK                            x       y       z     vdW  Elec       q    Type
REMARK                         _______ _______ _______ _____ _____    ______ ____
ROOT
ATOM      1  C   UNL     1       6.454   0.695  26.077  0.00  0.00    +0.234 C 
ATOM      2  C   UNL     1       7.017   2.080  26.388  0.00  0.00    +0.203 C 
ATOM      3  O   UNL     1       6.682   2.754  27.355  0.00  0.00    -0.289 OA
ATOM      4  C   UNL     1       8.053   2.557  25.457  0.00  0.00    +0.103 A 
ATOM      5  C   UNL     1       8.777   1.599  24.746  0.00  0.00    +0.139 A 
ATOM      6  C   UNL     1       9.807   2.001  23.884  0.00  0.00    +0.092 A 
ATOM      7  C   UNL     1      10.118   3.357  23.750  0.00  0.00    +0.127 A 
ATOM      8  C   UNL     1       9.387   4.310  24.457  0.00  0.00    +0.092 A 
ATOM      9  O   UNL     1       8.537   0.250  24.816  0.00  0.00    -0.480 OA
ATOM     10  C   UNL     1       8.346   3.916  25.294  0.00  0.00    +0.134 A 
ATOM     11  C   UNL     1       7.707  -0.191  25.918  0.00  0.00    +0.240 C 
ENDROOT
BRANCH  11  12
ATOM     12  C   UNL     1       7.405  -1.665  25.658  0.00  0.00    -0.001 A 
ATOM     13  C   UNL     1       7.762  -2.659  26.577  0.00  0.00    +0.011 A 
ATOM     14  C   UNL     1       7.402  -3.995  26.360  0.00  0.00    +0.050 A 
ATOM     15  C   UNL     1       6.655  -4.358  25.235  0.00  0.00    +0.162 A 
ATOM     16  C   UNL     1       6.345  -3.389  24.265  0.00  0.00    +0.162 A 
ATOM     17  C   UNL     1       6.718  -2.053  24.489  0.00  0.00    +0.056 A 
BRANCH  15  18
ATOM     18  O   UNL     1       6.208  -5.641  25.011  0.00  0.00    -0.488 OA
BRANCH  18  19
ATOM     19  C   UNL     1       5.021  -6.017  25.717  0.00  0.00    +0.229 C 
BRANCH  19  20
ATOM     20  C   UNL     1       4.254  -7.042  24.884  0.00  0.00    +0.038 C 
ATOM     21  C   UNL     1       3.454  -6.374  23.776  0.00  0.00    +0.007 C 
ENDBRANCH  19  20
ENDBRANCH  18  19
ENDBRANCH  15  18
BRANCH  16  22
ATOM     22  O   UNL     1       5.661  -3.835  23.159  0.00  0.00    -0.488 OA
BRANCH  22  23
ATOM     23  C   UNL     1       6.358  -3.846  21.914  0.00  0.00    +0.229 C 
BRANCH  23  24
ATOM     24  C   UNL     1       6.228  -5.232  21.287  0.00  0.00    +0.038 C 
ATOM     25  C   UNL     1       7.220  -6.210  21.895  0.00  0.00    +0.007 C 
ENDBRANCH  23  24
ENDBRANCH  22  23
ENDBRANCH  16  22
ENDBRANCH  11  12
BRANCH  10  26
ATOM     26  O   UNL     1       7.595   4.873  25.911  0.00  0.00    -0.506 OA
ATOM     27  H   UNL     1       6.666   4.595  25.949  0.00  0.00    +0.292 HD
ENDBRANCH  10  26
BRANCH   1  28
ATOM     28  O   UNL     1       5.601   0.186  27.104  0.00  0.00    -0.365 OA
BRANCH  28  29
ATOM     29  C   UNL     1       4.310  -0.195  26.621  0.00  0.00    +0.160 C 
BRANCH  29  31
ATOM     30  C   UNL     1       3.477  -2.554  26.294  0.00  0.00    +0.006 C 
ATOM     31  C   UNL     1       3.869  -1.486  27.300  0.00  0.00    +0.025 C 
ENDBRANCH  29  31
ENDBRANCH  28  29
ENDBRANCH   1  28
BRANCH   7  32
ATOM     32  O   UNL     1      11.141   3.875  23.007  0.00  0.00    -0.492 OA
BRANCH  32  33
ATOM     33  C   UNL     1      11.675   5.127  23.438  0.00  0.00    +0.229 C 
BRANCH  33  34
ATOM     34  C   UNL     1      13.175   5.103  23.159  0.00  0.00    +0.038 C 
ATOM     35  C   UNL     1      13.523   5.846  21.884  0.00  0.00    +0.007 C 
ENDBRANCH  33  34
ENDBRANCH  32  33
ENDBRANCH   7  32
TORSDOF 14
ENDMDL
MODEL 9
REMARK VINA RESULT:      -5.3      2.576      9.258
REMARK  Name = 
REMARK  18 active torsions:
REMARK  status: ('A' for Active; 'I' for Inactive)
REMARK    1  A    between atoms: C_1  and  C_2
REMARK    2  A    between atoms: C_2  and  C_3
REMARK    3  A    between atoms: C_3  and  O_4
REMARK    4  A    between atoms: O_4  and  C_5
REMARK    5  A    between atoms: C_6  and  C_21
REMARK    6  A    between atoms: C_10  and  O_17
REMARK    7  A    between atoms: C_12  and  O_16
REMARK    8  A    between atoms: O_17  and  C_18
REMARK    9  A    between atoms: C_18  and  C_19
REMARK   10  A    between atoms: C_19  and  C_20
REMARK   11  A    between atoms: C_23  and  O_31
REMARK   12  A    between atoms: C_24  and  O_27
REMARK   13  A    between atoms: O_27  and  C_28
REMARK   14  A    between atoms: C_28  and  C_29
REMARK   15  A    between atoms: C_29  and  C_30
REMARK   16  A    between atoms: O_31  and  C_32
REMARK   17  A    between atoms: C_32  and  C_33
REMARK   18  A    between atoms: C_33  and  C_34
REMARK                            x       y       z     vdW  Elec       q    Type
REMARK                         _______ _______ _______ _____ _____    ______ ____
ROOT
ATOM      1  C   UNL     1       6.317   2.230  26.000  0.00  0.00    +0.234 C 
ATOM      2  C   UNL     1       6.964   3.476  26.600  0.00  0.00    +0.203 C 
ATOM      3  O   UNL     1       6.731   3.893  27.728  0.00  0.00    -0.289 OA
ATOM      4  C   UNL     1       7.951   4.145  25.736  0.00  0.00    +0.103 A 
ATOM      5  C   UNL     1       8.577   3.379  24.752  0.00  0.00    +0.139 A 
ATOM      6  C   UNL     1       9.558   3.958  23.936  0.00  0.00    +0.092 A 
ATOM      7  C   UNL     1       9.921   5.296  24.118  0.00  0.00    +0.127 A 
ATOM      8  C   UNL     1       9.287   6.058  25.099  0.00  0.00    +0.092 A 
ATOM      9  O   UNL     1       8.281   2.062  24.502  0.00  0.00    -0.480 OA
ATOM     10  C   UNL     1       8.293   5.493  25.893  0.00  0.00    +0.134 A 
ATOM     11  C   UNL     1       7.513   1.380  25.524  0.00  0.00    +0.240 C 
ENDROOT
BRANCH  11  12
ATOM     12  C   UNL     1       7.126   0.027  24.930  0.00  0.00    -0.001 A 
ATOM     13  C   UNL     1       6.874  -0.126  23.561  0.00  0.00    +0.011 A 
ATOM     14  C   UNL     1       6.603  -1.390  23.022  0.00  0.00    +0.050 A 
ATOM     15  C   UNL     1       6.608  -2.527  23.836  0.00  0.00    +0.162 A 
ATOM     16  C   UNL     1       6.791  -2.388  25.223  0.00  0.00    +0.162 A 
ATOM     17  C   UNL     1       7.054  -1.115  25.754  0.00  0.00    +0.056 A 
BRANCH  15  18
ATOM     18  O   UNL     1       6.426  -3.802  23.348  0.00  0.00    -0.488 OA
BRANCH  18  19
ATOM     19  C   UNL     1       7.458  -4.290  22.485  0.00  0.00    +0.229 C 
BRANCH  19  20
ATOM     20  C   UNL     1       7.175  -5.754  22.154  0.00  0.00    +0.038 C 
ATOM     21  C   UNL     1       6.160  -5.886  21.030  0.00  0.00    +0.007 C 
ENDBRANCH  19  20
ENDBRANCH  18  19
ENDBRANCH  15  18
BRANCH  16  22
ATOM     22  O   UNL     1       6.722  -3.545  25.963  0.00  0.00    -0.488 OA
BRANCH  22  23
ATOM     23  C   UNL     1       7.882  -3.926  26.699  0.00  0.00    +0.229 C 
BRANCH  23  24
ATOM     24  C   UNL     1       8.408  -5.248  26.144  0.00  0.00    +0.038 C 
ATOM     25  C   UNL     1       9.694  -5.047  25.359  0.00  0.00    +0.007 C 
ENDBRANCH  23  24
ENDBRANCH  22  23
ENDBRANCH  16  22
ENDBRANCH  11  12
BRANCH  10  26
ATOM     26  O   UNL     1       7.633   6.284  26.788  0.00  0.00    -0.506 OA
ATOM     27  H   UNL     1       8.016   6.177  27.673  0.00  0.00    +0.292 HD
ENDBRANCH  10  26
BRANCH   1  28
ATOM     28  O   UNL     1       5.518   1.501  26.935  0.00  0.00    -0.365 OA
BRANCH  28  29
ATOM     29  C   UNL     1       4.116   1.618  26.683  0.00  0.00    +0.160 C 
BRANCH  29  31
ATOM     30  C   UNL     1       3.739  -0.836  27.129  0.00  0.00    +0.006 C 
ATOM     31  C   UNL     1       3.358   0.585  27.507  0.00  0.00    +0.025 C 
ENDBRANCH  29  31
ENDBRANCH  28  29
ENDBRANCH   1  28
BRANCH   7  32
ATOM     32  O   UNL     1      10.910   5.957  23.447  0.00  0.00    -0.492 OA
BRANCH  32  33
ATOM     33  C   UNL     1      12.199   5.974  24.061  0.00  0.00    +0.229 C 
BRANCH  33  34
ATOM     34  C   UNL     1      13.112   5.079  23.227  0.00  0.00    +0.038 C 
ATOM     35  C   UNL     1      13.337   5.642  21.837  0.00  0.00    +0.007 C 
ENDBRANCH  33  34
ENDBRANCH  32  33
ENDBRANCH   7  32
TORSDOF 14
ENDMDL
