MODEL 1
REMARK VINA RESULT:      -7.2      0.000      0.000
REMARK  Name = 
REMARK  23 active torsions:
REMARK  status: ('A' for Active; 'I' for Inactive)
REMARK    1  A    between atoms: C_1  and  C_2
REMARK    2  A    between atoms: C_4  and  O_69
REMARK    3  A    between atoms: C_6  and  O_68
REMARK    4  A    between atoms: C_8  and  O_67
REMARK    5  A    between atoms: C_10  and  O_13
REMARK    6  A    between atoms: O_13  and  C_14
REMARK    7  A    between atoms: C_16  and  O_66
REMARK    8  A    between atoms: C_21  and  C_58
REMARK    9  A    between atoms: C_22  and  O_25
REMARK   10  A    between atoms: O_25  and  C_26
REMARK   11  A    between atoms: C_28  and  O_41
REMARK   12  A    between atoms: C_30  and  O_40
REMARK   13  A    between atoms: C_32  and  O_39
REMARK   14  A    between atoms: C_34  and  C_37
REMARK   15  A    between atoms: C_37  and  O_38
REMARK   16  A    between atoms: O_41  and  C_42
REMARK   17  A    between atoms: C_44  and  O_57
REMARK   18  A    between atoms: C_46  and  O_56
REMARK   19  A    between atoms: C_48  and  O_55
REMARK   20  A    between atoms: C_50  and  C_53
REMARK   21  A    between atoms: C_53  and  O_54
REMARK   22  A    between atoms: C_60  and  O_65
REMARK   23  A    between atoms: C_61  and  O_64
REMARK                            x       y       z     vdW  Elec       q    Type
REMARK                         _______ _______ _______ _____ _____    ______ ____
ROOT
ATOM      1  C   UNL     1       5.305  -5.834  25.998  0.00  0.00    +0.131 A 
ATOM      2  C   UNL     1       5.248  -4.616  26.677  0.00  0.00    +0.093 A 
ATOM      3  C   UNL     1       6.178  -3.610  26.382  0.00  0.00    +0.147 A 
ATOM      4  O   UNL     1       6.096  -2.422  27.069  0.00  0.00    -0.451 OA
ATOM      5  C   UNL     1       6.881  -1.353  26.633  0.00  0.00    +0.181 A 
ATOM      6  C   UNL     1       7.917  -1.456  25.765  0.00  0.00    +0.214 A 
ATOM      7  C   UNL     1       8.260  -2.861  25.409  0.00  0.00    +0.238 A 
ATOM      8  O   UNL     1       9.435  -3.181  25.215  0.00  0.00    -0.283 OA
ATOM      9  C   UNL     1       7.187  -3.850  25.454  0.00  0.00    +0.109 A 
ATOM     10  C   UNL     1       7.181  -5.038  24.714  0.00  0.00    +0.135 A 
ATOM     11  C   UNL     1       6.242  -6.022  24.979  0.00  0.00    +0.092 A 
ENDROOT
BRANCH   5  12
ATOM     12  C   UNL     1       6.534  -0.084  27.296  0.00  0.00    +0.025 A 
ATOM     13  C   UNL     1       5.297   0.534  27.061  0.00  0.00    +0.015 A 
ATOM     14  C   UNL     1       4.980   1.741  27.696  0.00  0.00    +0.050 A 
ATOM     15  C   UNL     1       5.893   2.310  28.569  0.00  0.00    +0.158 A 
ATOM     16  C   UNL     1       7.111   1.690  28.831  0.00  0.00    +0.159 A 
ATOM     17  C   UNL     1       7.444   0.497  28.194  0.00  0.00    +0.060 A 
BRANCH  16  18
ATOM     18  O   UNL     1       7.945   2.288  29.734  0.00  0.00    -0.503 OA
ATOM     19  H   UNL     1       7.412   2.857  30.316  0.00  0.00    +0.292 HD
ENDBRANCH  16  18
BRANCH  15  20
ATOM     20  O   UNL     1       5.584   3.490  29.185  0.00  0.00    -0.503 OA
ATOM     21  H   UNL     1       4.903   3.895  28.611  0.00  0.00    +0.292 HD
ENDBRANCH  15  20
ENDBRANCH   5  12
BRANCH  10  22
ATOM     22  O   UNL     1       8.100  -5.243  23.731  0.00  0.00    -0.506 OA
ATOM     23  H   UNL     1       9.005  -5.277  24.095  0.00  0.00    +0.292 HD
ENDBRANCH  10  22
BRANCH   6  24
ATOM     24  O   UNL     1       8.715  -0.378  25.368  0.00  0.00    -0.453 OA
BRANCH  24  25
ATOM     25  C   UNL     1       8.053   0.511  24.442  0.00  0.00    +0.340 C 
ATOM     26  O   UNL     1       7.809  -0.040  23.148  0.00  0.00    -0.331 OA
ATOM     27  C   UNL     1       8.884  -0.150  22.218  0.00  0.00    +0.179 C 
ATOM     28  C   UNL     1       9.860   1.041  22.162  0.00  0.00    +0.177 C 
ATOM     29  C   UNL     1       9.991   1.826  23.475  0.00  0.00    +0.180 C 
ATOM     30  C   UNL     1       8.720   1.891  24.351  0.00  0.00    +0.221 C 
BRANCH  29  31
ATOM     31  O   UNL     1      11.083   1.292  24.242  0.00  0.00    -0.386 OA
ATOM     32  H   UNL     1      11.925   1.483  23.774  0.00  0.00    +0.210 HD
ENDBRANCH  29  31
BRANCH  28  33
ATOM     33  O   UNL     1       9.458   1.937  21.110  0.00  0.00    -0.386 OA
ATOM     34  H   UNL     1       9.326   1.389  20.314  0.00  0.00    +0.210 HD
ENDBRANCH  28  33
BRANCH  30  35
ATOM     35  O   UNL     1       7.748   2.853  23.832  0.00  0.00    -0.337 OA
BRANCH  35  36
ATOM     36  C   UNL     1       7.211   3.705  24.870  0.00  0.00    +0.282 C 
ATOM     37  O   UNL     1       6.141   4.551  24.443  0.00  0.00    -0.341 OA
ATOM     38  C   UNL     1       6.423   5.846  23.871  0.00  0.00    +0.178 C 
ATOM     39  C   UNL     1       7.579   6.608  24.532  0.00  0.00    +0.177 C 
ATOM     40  C   UNL     1       8.781   5.681  24.740  0.00  0.00    +0.179 C 
ATOM     41  C   UNL     1       8.344   4.472  25.577  0.00  0.00    +0.201 C 
BRANCH  41  42
ATOM     42  O   UNL     1       7.908   4.895  26.880  0.00  0.00    -0.384 OA
ATOM     43  H   UNL     1       8.216   5.828  26.991  0.00  0.00    +0.210 HD
ENDBRANCH  41  42
BRANCH  40  44
ATOM     44  O   UNL     1       9.371   5.318  23.493  0.00  0.00    -0.386 OA
ATOM     45  H   UNL     1      10.286   5.665  23.451  0.00  0.00    +0.210 HD
ENDBRANCH  40  44
BRANCH  39  46
ATOM     46  O   UNL     1       7.126   7.108  25.808  0.00  0.00    -0.386 OA
ATOM     47  H   UNL     1       6.618   6.389  26.228  0.00  0.00    +0.210 HD
ENDBRANCH  39  46
BRANCH  38  48
ATOM     48  C   UNL     1       6.557   5.844  22.338  0.00  0.00    +0.190 C 
BRANCH  48  49
ATOM     49  O   UNL     1       6.899   4.537  21.872  0.00  0.00    -0.392 OA
ATOM     50  H   UNL     1       6.179   4.240  21.286  0.00  0.00    +0.210 HD
ENDBRANCH  48  49
ENDBRANCH  38  48
ENDBRANCH  35  36
ENDBRANCH  30  35
BRANCH  27  51
ATOM     51  C   UNL     1       9.608  -1.485  22.415  0.00  0.00    +0.190 C 
BRANCH  51  52
ATOM     52  O   UNL     1       8.714  -2.581  22.244  0.00  0.00    -0.392 OA
ATOM     53  H   UNL     1       7.821  -2.208  22.403  0.00  0.00    +0.210 HD
ENDBRANCH  51  52
ENDBRANCH  27  51
ENDBRANCH  24  25
ENDBRANCH   6  24
BRANCH   1  54
ATOM     54  O   UNL     1       4.542  -6.943  26.233  0.00  0.00    -0.461 OA
BRANCH  54  58
ATOM     55  C   UNL     1       0.453  -5.580  26.686  0.00  0.00    +0.041 C 
ATOM     56  C   UNL     1       0.967  -6.965  27.067  0.00  0.00    +0.150 C 
ATOM     57  O   UNL     1       2.393  -6.982  27.210  0.00  0.00    -0.334 OA
ATOM     58  C   UNL     1       3.131  -6.873  25.988  0.00  0.00    +0.339 C 
ATOM     59  C   UNL     1       2.788  -8.040  25.033  0.00  0.00    +0.214 C 
ATOM     60  C   UNL     1       1.273  -8.159  24.826  0.00  0.00    +0.180 C 
ATOM     61  C   UNL     1       0.515  -8.115  26.159  0.00  0.00    +0.174 C 
BRANCH  61  62
ATOM     62  O   UNL     1       0.759  -9.352  26.850  0.00  0.00    -0.387 OA
ATOM     63  H   UNL     1       0.444 -10.083  26.285  0.00  0.00    +0.210 HD
ENDBRANCH  61  62
BRANCH  60  64
ATOM     64  O   UNL     1       0.811  -7.162  23.899  0.00  0.00    -0.386 OA
ATOM     65  H   UNL     1       1.554  -6.771  23.413  0.00  0.00    +0.210 HD
ENDBRANCH  60  64
BRANCH  59  66
ATOM     66  O   UNL     1       3.440  -7.873  23.762  0.00  0.00    -0.383 OA
ATOM     67  H   UNL     1       4.363  -7.610  23.935  0.00  0.00    +0.210 HD
ENDBRANCH  59  66
ENDBRANCH  54  58
ENDBRANCH   1  54
TORSDOF 22
ENDMDL
MODEL 2
REMARK VINA RESULT:      -6.9      1.369      2.014
REMARK  Name = 
REMARK  23 active torsions:
REMARK  status: ('A' for Active; 'I' for Inactive)
REMARK    1  A    between atoms: C_1  and  C_2
REMARK    2  A    between atoms: C_4  and  O_69
REMARK    3  A    between atoms: C_6  and  O_68
REMARK    4  A    between atoms: C_8  and  O_67
REMARK    5  A    between atoms: C_10  and  O_13
REMARK    6  A    between atoms: O_13  and  C_14
REMARK    7  A    between atoms: C_16  and  O_66
REMARK    8  A    between atoms: C_21  and  C_58
REMARK    9  A    between atoms: C_22  and  O_25
REMARK   10  A    between atoms: O_25  and  C_26
REMARK   11  A    between atoms: C_28  and  O_41
REMARK   12  A    between atoms: C_30  and  O_40
REMARK   13  A    between atoms: C_32  and  O_39
REMARK   14  A    between atoms: C_34  and  C_37
REMARK   15  A    between atoms: C_37  and  O_38
REMARK   16  A    between atoms: O_41  and  C_42
REMARK   17  A    between atoms: C_44  and  O_57
REMARK   18  A    between atoms: C_46  and  O_56
REMARK   19  A    between atoms: C_48  and  O_55
REMARK   20  A    between atoms: C_50  and  C_53
REMARK   21  A    between atoms: C_53  and  O_54
REMARK   22  A    between atoms: C_60  and  O_65
REMARK   23  A    between atoms: C_61  and  O_64
REMARK                            x       y       z     vdW  Elec       q    Type
REMARK                         _______ _______ _______ _____ _____    ______ ____
ROOT
ATOM      1  C   UNL     1       5.290  -6.348  24.162  0.00  0.00    +0.131 A 
ATOM      2  C   UNL     1       5.198  -5.323  25.106  0.00  0.00    +0.093 A 
ATOM      3  C   UNL     1       6.113  -4.261  25.074  0.00  0.00    +0.147 A 
ATOM      4  O   UNL     1       5.995  -3.268  26.016  0.00  0.00    -0.451 OA
ATOM      5  C   UNL     1       6.766  -2.115  25.859  0.00  0.00    +0.181 A 
ATOM      6  C   UNL     1       7.819  -1.997  25.012  0.00  0.00    +0.214 A 
ATOM      7  C   UNL     1       8.195  -3.274  24.344  0.00  0.00    +0.238 A 
ATOM      8  O   UNL     1       9.379  -3.522  24.106  0.00  0.00    -0.283 OA
ATOM      9  C   UNL     1       7.141  -4.263  24.135  0.00  0.00    +0.109 A 
ATOM     10  C   UNL     1       7.170  -5.244  23.139  0.00  0.00    +0.135 A 
ATOM     11  C   UNL     1       6.247  -6.278  23.147  0.00  0.00    +0.092 A 
ENDROOT
BRANCH   5  12
ATOM     12  C   UNL     1       6.383  -1.042  26.792  0.00  0.00    +0.025 A 
ATOM     13  C   UNL     1       5.034  -0.720  27.002  0.00  0.00    +0.015 A 
ATOM     14  C   UNL     1       4.684   0.303  27.890  0.00  0.00    +0.050 A 
ATOM     15  C   UNL     1       5.681   0.984  28.571  0.00  0.00    +0.158 A 
ATOM     16  C   UNL     1       7.021   0.653  28.392  0.00  0.00    +0.159 A 
ATOM     17  C   UNL     1       7.383  -0.353  27.500  0.00  0.00    +0.060 A 
BRANCH  16  18
ATOM     18  O   UNL     1       7.947   1.339  29.127  0.00  0.00    -0.503 OA
ATOM     19  H   UNL     1       8.824   0.956  28.953  0.00  0.00    +0.292 HD
ENDBRANCH  16  18
BRANCH  15  20
ATOM     20  O   UNL     1       5.337   1.985  29.435  0.00  0.00    -0.503 OA
ATOM     21  H   UNL     1       4.382   1.852  29.598  0.00  0.00    +0.292 HD
ENDBRANCH  15  20
ENDBRANCH   5  12
BRANCH  10  22
ATOM     22  O   UNL     1       8.110  -5.200  22.154  0.00  0.00    -0.506 OA
ATOM     23  H   UNL     1       8.934  -5.642  22.432  0.00  0.00    +0.292 HD
ENDBRANCH  10  22
BRANCH   6  24
ATOM     24  O   UNL     1       8.601  -0.843  24.895  0.00  0.00    -0.453 OA
BRANCH  24  25
ATOM     25  C   UNL     1       8.044   0.135  23.990  0.00  0.00    +0.340 C 
ATOM     26  O   UNL     1       8.206  -0.165  22.604  0.00  0.00    -0.331 OA
ATOM     27  C   UNL     1       9.475   0.039  21.985  0.00  0.00    +0.179 C 
ATOM     28  C   UNL     1      10.230   1.320  22.390  0.00  0.00    +0.177 C 
ATOM     29  C   UNL     1       9.917   1.830  23.803  0.00  0.00    +0.180 C 
ATOM     30  C   UNL     1       8.482   1.571  24.311  0.00  0.00    +0.221 C 
BRANCH  29  31
ATOM     31  O   UNL     1      10.868   1.278  24.730  0.00  0.00    -0.386 OA
ATOM     32  H   UNL     1      11.290   2.011  25.229  0.00  0.00    +0.210 HD
ENDBRANCH  29  31
BRANCH  28  33
ATOM     33  O   UNL     1       9.951   2.359  21.436  0.00  0.00    -0.386 OA
ATOM     34  H   UNL     1      10.806   2.776  21.220  0.00  0.00    +0.210 HD
ENDBRANCH  28  33
BRANCH  30  35
ATOM     35  O   UNL     1       7.518   2.502  23.724  0.00  0.00    -0.337 OA
BRANCH  35  36
ATOM     36  C   UNL     1       7.910   3.882  23.902  0.00  0.00    +0.282 C 
ATOM     37  O   UNL     1       7.516   4.451  25.153  0.00  0.00    -0.341 OA
ATOM     38  C   UNL     1       6.216   5.061  25.296  0.00  0.00    +0.178 C 
ATOM     39  C   UNL     1       5.743   5.869  24.080  0.00  0.00    +0.177 C 
ATOM     40  C   UNL     1       5.985   5.084  22.788  0.00  0.00    +0.179 C 
ATOM     41  C   UNL     1       7.474   4.726  22.690  0.00  0.00    +0.201 C 
BRANCH  41  42
ATOM     42  O   UNL     1       8.272   5.919  22.613  0.00  0.00    -0.384 OA
ATOM     43  H   UNL     1       8.298   6.180  21.660  0.00  0.00    +0.210 HD
ENDBRANCH  41  42
BRANCH  40  44
ATOM     44  O   UNL     1       5.128   3.946  22.710  0.00  0.00    -0.386 OA
ATOM     45  H   UNL     1       4.312   4.185  22.224  0.00  0.00    +0.210 HD
ENDBRANCH  40  44
BRANCH  39  46
ATOM     46  O   UNL     1       6.481   7.108  24.041  0.00  0.00    -0.386 OA
ATOM     47  H   UNL     1       7.034   7.132  24.845  0.00  0.00    +0.210 HD
ENDBRANCH  39  46
BRANCH  38  48
ATOM     48  C   UNL     1       5.119   4.102  25.793  0.00  0.00    +0.190 C 
BRANCH  48  49
ATOM     49  O   UNL     1       5.375   2.774  25.332  0.00  0.00    -0.392 OA
ATOM     50  H   UNL     1       5.795   2.847  24.455  0.00  0.00    +0.210 HD
ENDBRANCH  48  49
ENDBRANCH  38  48
ENDBRANCH  35  36
ENDBRANCH  30  35
BRANCH  27  51
ATOM     51  C   UNL     1      10.337  -1.218  22.138  0.00  0.00    +0.190 C 
BRANCH  51  52
ATOM     52  O   UNL     1       9.691  -2.352  21.568  0.00  0.00    -0.392 OA
ATOM     53  H   UNL     1      10.281  -2.643  20.842  0.00  0.00    +0.210 HD
ENDBRANCH  51  52
ENDBRANCH  27  51
ENDBRANCH  24  25
ENDBRANCH   6  24
BRANCH   1  54
ATOM     54  O   UNL     1       4.545  -7.492  24.117  0.00  0.00    -0.461 OA
BRANCH  54  58
ATOM     55  C   UNL     1       0.909  -7.924  26.433  0.00  0.00    +0.041 C 
ATOM     56  C   UNL     1       1.250  -8.715  25.174  0.00  0.00    +0.150 C 
ATOM     57  O   UNL     1       2.653  -8.676  24.885  0.00  0.00    -0.334 OA
ATOM     58  C   UNL     1       3.145  -7.416  24.416  0.00  0.00    +0.339 C 
ATOM     59  C   UNL     1       2.433  -6.999  23.108  0.00  0.00    +0.214 C 
ATOM     60  C   UNL     1       0.909  -7.040  23.271  0.00  0.00    +0.180 C 
ATOM     61  C   UNL     1       0.444  -8.349  23.921  0.00  0.00    +0.174 C 
BRANCH  61  62
ATOM     62  O   UNL     1       0.609  -9.406  22.960  0.00  0.00    -0.387 OA
ATOM     63  H   UNL     1      -0.254  -9.846  22.841  0.00  0.00    +0.210 HD
ENDBRANCH  61  62
BRANCH  60  64
ATOM     64  O   UNL     1       0.447  -5.879  23.983  0.00  0.00    -0.386 OA
ATOM     65  H   UNL     1       0.218  -6.103  24.898  0.00  0.00    +0.210 HD
ENDBRANCH  60  64
BRANCH  59  66
ATOM     66  O   UNL     1       2.842  -5.685  22.696  0.00  0.00    -0.383 OA
ATOM     67  H   UNL     1       2.073  -5.251  22.281  0.00  0.00    +0.210 HD
ENDBRANCH  59  66
ENDBRANCH  54  58
ENDBRANCH   1  54
TORSDOF 22
ENDMDL
MODEL 3
REMARK VINA RESULT:      -6.9      2.098      2.843
REMARK  Name = 
REMARK  23 active torsions:
REMARK  status: ('A' for Active; 'I' for Inactive)
REMARK    1  A    between atoms: C_1  and  C_2
REMARK    2  A    between atoms: C_4  and  O_69
REMARK    3  A    between atoms: C_6  and  O_68
REMARK    4  A    between atoms: C_8  and  O_67
REMARK    5  A    between atoms: C_10  and  O_13
REMARK    6  A    between atoms: O_13  and  C_14
REMARK    7  A    between atoms: C_16  and  O_66
REMARK    8  A    between atoms: C_21  and  C_58
REMARK    9  A    between atoms: C_22  and  O_25
REMARK   10  A    between atoms: O_25  and  C_26
REMARK   11  A    between atoms: C_28  and  O_41
REMARK   12  A    between atoms: C_30  and  O_40
REMARK   13  A    between atoms: C_32  and  O_39
REMARK   14  A    between atoms: C_34  and  C_37
REMARK   15  A    between atoms: C_37  and  O_38
REMARK   16  A    between atoms: O_41  and  C_42
REMARK   17  A    between atoms: C_44  and  O_57
REMARK   18  A    between atoms: C_46  and  O_56
REMARK   19  A    between atoms: C_48  and  O_55
REMARK   20  A    between atoms: C_50  and  C_53
REMARK   21  A    between atoms: C_53  and  O_54
REMARK   22  A    between atoms: C_60  and  O_65
REMARK   23  A    between atoms: C_61  and  O_64
REMARK                            x       y       z     vdW  Elec       q    Type
REMARK                         _______ _______ _______ _____ _____    ______ ____
ROOT
ATOM      1  C   UNL     1       5.263  -6.033  24.461  0.00  0.00    +0.131 A 
ATOM      2  C   UNL     1       5.290  -4.981  25.378  0.00  0.00    +0.093 A 
ATOM      3  C   UNL     1       6.031  -3.827  25.093  0.00  0.00    +0.147 A 
ATOM      4  O   UNL     1       6.038  -2.809  26.016  0.00  0.00    -0.451 OA
ATOM      5  C   UNL     1       6.598  -1.585  25.645  0.00  0.00    +0.181 A 
ATOM      6  C   UNL     1       7.378  -1.390  24.554  0.00  0.00    +0.214 A 
ATOM      7  C   UNL     1       7.725  -2.647  23.834  0.00  0.00    +0.238 A 
ATOM      8  O   UNL     1       8.830  -2.771  23.302  0.00  0.00    -0.283 OA
ATOM      9  C   UNL     1       6.779  -3.757  23.921  0.00  0.00    +0.109 A 
ATOM     10  C   UNL     1       6.674  -4.776  22.968  0.00  0.00    +0.135 A 
ATOM     11  C   UNL     1       5.915  -5.905  23.232  0.00  0.00    +0.092 A 
ENDROOT
BRANCH   5  12
ATOM     12  C   UNL     1       6.338  -0.519  26.627  0.00  0.00    +0.025 A 
ATOM     13  C   UNL     1       5.069   0.073  26.726  0.00  0.00    +0.015 A 
ATOM     14  C   UNL     1       4.836   1.087  27.662  0.00  0.00    +0.050 A 
ATOM     15  C   UNL     1       5.864   1.490  28.499  0.00  0.00    +0.158 A 
ATOM     16  C   UNL     1       7.118   0.890  28.428  0.00  0.00    +0.159 A 
ATOM     17  C   UNL     1       7.367  -0.110  27.491  0.00  0.00    +0.060 A 
BRANCH  16  18
ATOM     18  O   UNL     1       8.072   1.310  29.313  0.00  0.00    -0.503 OA
ATOM     19  H   UNL     1       8.831   0.705  29.257  0.00  0.00    +0.292 HD
ENDBRANCH  16  18
BRANCH  15  20
ATOM     20  O   UNL     1       5.635   2.483  29.409  0.00  0.00    -0.503 OA
ATOM     21  H   UNL     1       6.516   2.682  29.783  0.00  0.00    +0.292 HD
ENDBRANCH  15  20
ENDBRANCH   5  12
BRANCH  10  22
ATOM     22  O   UNL     1       7.320  -4.673  21.773  0.00  0.00    -0.506 OA
ATOM     23  H   UNL     1       6.902  -5.239  21.096  0.00  0.00    +0.292 HD
ENDBRANCH  10  22
BRANCH   6  24
ATOM     24  O   UNL     1       7.959  -0.162  24.218  0.00  0.00    -0.453 OA
BRANCH  24  25
ATOM     25  C   UNL     1       7.126   0.649  23.362  0.00  0.00    +0.340 C 
ATOM     26  O   UNL     1       7.683   0.941  22.081  0.00  0.00    -0.331 OA
ATOM     27  C   UNL     1       8.702   1.932  21.967  0.00  0.00    +0.179 C 
ATOM     28  C   UNL     1       8.510   3.204  22.815  0.00  0.00    +0.177 C 
ATOM     29  C   UNL     1       7.708   2.999  24.108  0.00  0.00    +0.180 C 
ATOM     30  C   UNL     1       6.607   1.917  24.054  0.00  0.00    +0.221 C 
BRANCH  29  31
ATOM     31  O   UNL     1       8.613   2.718  25.190  0.00  0.00    -0.386 OA
ATOM     32  H   UNL     1       8.094   2.556  26.007  0.00  0.00    +0.210 HD
ENDBRANCH  29  31
BRANCH  28  33
ATOM     33  O   UNL     1       7.875   4.217  22.016  0.00  0.00    -0.386 OA
ATOM     34  H   UNL     1       6.951   3.932  21.888  0.00  0.00    +0.210 HD
ENDBRANCH  28  33
BRANCH  30  35
ATOM     35  O   UNL     1       5.415   2.387  23.348  0.00  0.00    -0.337 OA
BRANCH  35  36
ATOM     36  C   UNL     1       4.410   2.903  24.250  0.00  0.00    +0.282 C 
ATOM     37  O   UNL     1       3.065   2.732  23.795  0.00  0.00    -0.341 OA
ATOM     38  C   UNL     1       2.454   3.724  22.944  0.00  0.00    +0.178 C 
ATOM     39  C   UNL     1       2.802   5.178  23.291  0.00  0.00    +0.177 C 
ATOM     40  C   UNL     1       4.307   5.325  23.533  0.00  0.00    +0.179 C 
ATOM     41  C   UNL     1       4.734   4.356  24.643  0.00  0.00    +0.201 C 
BRANCH  41  42
ATOM     42  O   UNL     1       4.076   4.686  25.878  0.00  0.00    -0.384 OA
ATOM     43  H   UNL     1       4.609   4.273  26.601  0.00  0.00    +0.210 HD
ENDBRANCH  41  42
BRANCH  40  44
ATOM     44  O   UNL     1       5.042   5.150  22.322  0.00  0.00    -0.386 OA
ATOM     45  H   UNL     1       5.941   5.520  22.430  0.00  0.00    +0.210 HD
ENDBRANCH  40  44
BRANCH  39  46
ATOM     46  O   UNL     1       2.081   5.546  24.485  0.00  0.00    -0.386 OA
ATOM     47  H   UNL     1       2.211   4.824  25.128  0.00  0.00    +0.210 HD
ENDBRANCH  39  46
BRANCH  38  48
ATOM     48  C   UNL     1       2.620   3.452  21.437  0.00  0.00    +0.190 C 
BRANCH  48  49
ATOM     49  O   UNL     1       2.579   4.679  20.705  0.00  0.00    -0.392 OA
ATOM     50  H   UNL     1       2.387   5.391  21.343  0.00  0.00    +0.210 HD
ENDBRANCH  48  49
ENDBRANCH  38  48
ENDBRANCH  35  36
ENDBRANCH  30  35
BRANCH  27  51
ATOM     51  C   UNL     1      10.077   1.292  22.181  0.00  0.00    +0.190 C 
BRANCH  51  52
ATOM     52  O   UNL     1      10.015  -0.120  22.005  0.00  0.00    -0.392 OA
ATOM     53  H   UNL     1       9.065  -0.346  22.084  0.00  0.00    +0.210 HD
ENDBRANCH  51  52
ENDBRANCH  27  51
ENDBRANCH  24  25
ENDBRANCH   6  24
BRANCH   1  54
ATOM     54  O   UNL     1       4.675  -7.255  24.629  0.00  0.00    -0.461 OA
BRANCH  54  58
ATOM     55  C   UNL     1       1.123  -7.985  22.258  0.00  0.00    +0.041 C 
ATOM     56  C   UNL     1       1.519  -6.640  22.858  0.00  0.00    +0.150 C 
ATOM     57  O   UNL     1       2.909  -6.601  23.205  0.00  0.00    -0.334 OA
ATOM     58  C   UNL     1       3.278  -7.394  24.339  0.00  0.00    +0.339 C 
ATOM     59  C   UNL     1       2.514  -6.933  25.603  0.00  0.00    +0.214 C 
ATOM     60  C   UNL     1       1.003  -6.890  25.351  0.00  0.00    +0.180 C 
ATOM     61  C   UNL     1       0.668  -6.163  24.042  0.00  0.00    +0.174 C 
BRANCH  61  62
ATOM     62  O   UNL     1       0.918  -4.761  24.235  0.00  0.00    -0.387 OA
ATOM     63  H   UNL     1       0.317  -4.262  23.649  0.00  0.00    +0.210 HD
ENDBRANCH  61  62
BRANCH  60  64
ATOM     64  O   UNL     1       0.445  -8.214  25.402  0.00  0.00    -0.386 OA
ATOM     65  H   UNL     1       1.048  -8.859  25.003  0.00  0.00    +0.210 HD
ENDBRANCH  60  64
BRANCH  59  66
ATOM     66  O   UNL     1       2.796  -7.797  26.717  0.00  0.00    -0.383 OA
ATOM     67  H   UNL     1       3.554  -8.361  26.471  0.00  0.00    +0.210 HD
ENDBRANCH  59  66
ENDBRANCH  54  58
ENDBRANCH   1  54
TORSDOF 22
ENDMDL
MODEL 4
REMARK VINA RESULT:      -6.9      2.440      9.291
REMARK  Name = 
REMARK  23 active torsions:
REMARK  status: ('A' for Active; 'I' for Inactive)
REMARK    1  A    between atoms: C_1  and  C_2
REMARK    2  A    between atoms: C_4  and  O_69
REMARK    3  A    between atoms: C_6  and  O_68
REMARK    4  A    between atoms: C_8  and  O_67
REMARK    5  A    between atoms: C_10  and  O_13
REMARK    6  A    between atoms: O_13  and  C_14
REMARK    7  A    between atoms: C_16  and  O_66
REMARK    8  A    between atoms: C_21  and  C_58
REMARK    9  A    between atoms: C_22  and  O_25
REMARK   10  A    between atoms: O_25  and  C_26
REMARK   11  A    between atoms: C_28  and  O_41
REMARK   12  A    between atoms: C_30  and  O_40
REMARK   13  A    between atoms: C_32  and  O_39
REMARK   14  A    between atoms: C_34  and  C_37
REMARK   15  A    between atoms: C_37  and  O_38
REMARK   16  A    between atoms: O_41  and  C_42
REMARK   17  A    between atoms: C_44  and  O_57
REMARK   18  A    between atoms: C_46  and  O_56
REMARK   19  A    between atoms: C_48  and  O_55
REMARK   20  A    between atoms: C_50  and  C_53
REMARK   21  A    between atoms: C_53  and  O_54
REMARK   22  A    between atoms: C_60  and  O_65
REMARK   23  A    between atoms: C_61  and  O_64
REMARK                            x       y       z     vdW  Elec       q    Type
REMARK                         _______ _______ _______ _____ _____    ______ ____
ROOT
ATOM      1  C   UNL     1       9.116   0.080  23.679  0.00  0.00    +0.131 A 
ATOM      2  C   UNL     1       8.283  -0.959  23.257  0.00  0.00    +0.093 A 
ATOM      3  C   UNL     1       7.832  -1.910  24.182  0.00  0.00    +0.147 A 
ATOM      4  O   UNL     1       7.014  -2.920  23.735  0.00  0.00    -0.451 OA
ATOM      5  C   UNL     1       6.399  -3.739  24.684  0.00  0.00    +0.181 A 
ATOM      6  C   UNL     1       6.745  -3.802  25.993  0.00  0.00    +0.214 A 
ATOM      7  C   UNL     1       7.964  -3.015  26.328  0.00  0.00    +0.238 A 
ATOM      8  O   UNL     1       8.751  -3.426  27.184  0.00  0.00    -0.283 OA
ATOM      9  C   UNL     1       8.259  -1.844  25.505  0.00  0.00    +0.109 A 
ATOM     10  C   UNL     1       9.017  -0.751  25.937  0.00  0.00    +0.135 A 
ATOM     11  C   UNL     1       9.438   0.209  25.032  0.00  0.00    +0.092 A 
ENDROOT
BRANCH   5  12
ATOM     12  C   UNL     1       5.378  -4.623  24.096  0.00  0.00    +0.025 A 
ATOM     13  C   UNL     1       5.716  -5.905  23.637  0.00  0.00    +0.015 A 
ATOM     14  C   UNL     1       4.737  -6.735  23.079  0.00  0.00    +0.050 A 
ATOM     15  C   UNL     1       3.429  -6.284  22.998  0.00  0.00    +0.158 A 
ATOM     16  C   UNL     1       3.078  -5.025  23.476  0.00  0.00    +0.159 A 
ATOM     17  C   UNL     1       4.046  -4.185  24.020  0.00  0.00    +0.060 A 
BRANCH  16  18
ATOM     18  O   UNL     1       1.761  -4.663  23.401  0.00  0.00    -0.503 OA
ATOM     19  H   UNL     1       1.529  -4.541  22.464  0.00  0.00    +0.292 HD
ENDBRANCH  16  18
BRANCH  15  20
ATOM     20  O   UNL     1       2.475  -7.094  22.449  0.00  0.00    -0.503 OA
ATOM     21  H   UNL     1       2.962  -7.645  21.804  0.00  0.00    +0.292 HD
ENDBRANCH  15  20
ENDBRANCH   5  12
BRANCH  10  22
ATOM     22  O   UNL     1       9.356  -0.621  27.250  0.00  0.00    -0.506 OA
ATOM     23  H   UNL     1       8.599  -0.828  27.832  0.00  0.00    +0.292 HD
ENDBRANCH  10  22
BRANCH   6  24
ATOM     24  O   UNL     1       6.139  -4.656  26.921  0.00  0.00    -0.453 OA
BRANCH  24  25
ATOM     25  C   UNL     1       5.201  -3.983  27.789  0.00  0.00    +0.340 C 
ATOM     26  O   UNL     1       5.308  -4.323  29.171  0.00  0.00    -0.331 OA
ATOM     27  C   UNL     1       4.783  -5.568  29.630  0.00  0.00    +0.179 C 
ATOM     28  C   UNL     1       3.429  -5.995  29.034  0.00  0.00    +0.177 C 
ATOM     29  C   UNL     1       3.150  -5.461  27.622  0.00  0.00    +0.180 C 
ATOM     30  C   UNL     1       3.750  -4.076  27.296  0.00  0.00    +0.221 C 
BRANCH  29  31
ATOM     31  O   UNL     1       3.596  -6.425  26.652  0.00  0.00    -0.386 OA
ATOM     32  H   UNL     1       3.516  -6.035  25.755  0.00  0.00    +0.210 HD
ENDBRANCH  29  31
BRANCH  28  33
ATOM     33  O   UNL     1       2.370  -5.584  29.916  0.00  0.00    -0.386 OA
ATOM     34  H   UNL     1       2.774  -5.452  30.794  0.00  0.00    +0.210 HD
ENDBRANCH  28  33
BRANCH  30  35
ATOM     35  O   UNL     1       2.976  -2.990  27.897  0.00  0.00    -0.337 OA
BRANCH  35  36
ATOM     36  C   UNL     1       2.560  -2.007  26.921  0.00  0.00    +0.282 C 
ATOM     37  O   UNL     1       3.638  -1.375  26.225  0.00  0.00    -0.341 OA
ATOM     38  C   UNL     1       4.268  -0.199  26.775  0.00  0.00    +0.178 C 
ATOM     39  C   UNL     1       3.310   0.793  27.450  0.00  0.00    +0.177 C 
ATOM     40  C   UNL     1       2.334   0.053  28.369  0.00  0.00    +0.179 C 
ATOM     41  C   UNL     1       1.578  -1.003  27.553  0.00  0.00    +0.201 C 
BRANCH  41  42
ATOM     42  O   UNL     1       0.793  -0.375  26.524  0.00  0.00    -0.384 OA
ATOM     43  H   UNL     1       0.594  -1.075  25.855  0.00  0.00    +0.210 HD
ENDBRANCH  41  42
BRANCH  40  44
ATOM     44  O   UNL     1       3.008  -0.490  29.503  0.00  0.00    -0.386 OA
ATOM     45  H   UNL     1       3.282  -1.410  29.311  0.00  0.00    +0.210 HD
ENDBRANCH  40  44
BRANCH  39  46
ATOM     46  O   UNL     1       2.575   1.488  26.421  0.00  0.00    -0.386 OA
ATOM     47  H   UNL     1       3.234   1.850  25.799  0.00  0.00    +0.210 HD
ENDBRANCH  39  46
BRANCH  38  48
ATOM     48  C   UNL     1       5.488  -0.493  27.665  0.00  0.00    +0.190 C 
BRANCH  48  49
ATOM     49  O   UNL     1       5.727   0.598  28.556  0.00  0.00    -0.392 OA
ATOM     50  H   UNL     1       5.422   1.409  28.110  0.00  0.00    +0.210 HD
ENDBRANCH  48  49
ENDBRANCH  38  48
ENDBRANCH  35  36
ENDBRANCH  30  35
BRANCH  27  51
ATOM     51  C   UNL     1       5.848  -6.661  29.498  0.00  0.00    +0.190 C 
BRANCH  51  52
ATOM     52  O   UNL     1       5.574  -7.509  28.387  0.00  0.00    -0.392 OA
ATOM     53  H   UNL     1       5.788  -8.414  28.698  0.00  0.00    +0.210 HD
ENDBRANCH  51  52
ENDBRANCH  27  51
ENDBRANCH  24  25
ENDBRANCH   6  24
BRANCH   1  54
ATOM     54  O   UNL     1       9.716   1.022  22.893  0.00  0.00    -0.461 OA
BRANCH  54  58
ATOM     55  C   UNL     1       9.845   5.226  23.936  0.00  0.00    +0.041 C 
ATOM     56  C   UNL     1       8.887   4.200  24.534  0.00  0.00    +0.150 C 
ATOM     57  O   UNL     1       9.351   2.858  24.331  0.00  0.00    -0.334 OA
ATOM     58  C   UNL     1       9.270   2.382  22.983  0.00  0.00    +0.339 C 
ATOM     59  C   UNL     1       7.808   2.404  22.480  0.00  0.00    +0.214 C 
ATOM     60  C   UNL     1       7.174   3.786  22.680  0.00  0.00    +0.180 C 
ATOM     61  C   UNL     1       7.422   4.322  24.095  0.00  0.00    +0.174 C 
BRANCH  61  62
ATOM     62  O   UNL     1       6.618   3.556  25.009  0.00  0.00    -0.387 OA
ATOM     63  H   UNL     1       6.912   2.626  24.967  0.00  0.00    +0.210 HD
ENDBRANCH  61  62
BRANCH  60  64
ATOM     64  O   UNL     1       7.620   4.697  21.662  0.00  0.00    -0.386 OA
ATOM     65  H   UNL     1       6.872   5.180  21.278  0.00  0.00    +0.210 HD
ENDBRANCH  60  64
BRANCH  59  66
ATOM     66  O   UNL     1       7.736   2.033  21.092  0.00  0.00    -0.383 OA
ATOM     67  H   UNL     1       6.946   1.473  20.975  0.00  0.00    +0.210 HD
ENDBRANCH  59  66
ENDBRANCH  54  58
ENDBRANCH   1  54
TORSDOF 22
ENDMDL
MODEL 5
REMARK VINA RESULT:      -6.4      2.336      3.508
REMARK  Name = 
REMARK  23 active torsions:
REMARK  status: ('A' for Active; 'I' for Inactive)
REMARK    1  A    between atoms: C_1  and  C_2
REMARK    2  A    between atoms: C_4  and  O_69
REMARK    3  A    between atoms: C_6  and  O_68
REMARK    4  A    between atoms: C_8  and  O_67
REMARK    5  A    between atoms: C_10  and  O_13
REMARK    6  A    between atoms: O_13  and  C_14
REMARK    7  A    between atoms: C_16  and  O_66
REMARK    8  A    between atoms: C_21  and  C_58
REMARK    9  A    between atoms: C_22  and  O_25
REMARK   10  A    between atoms: O_25  and  C_26
REMARK   11  A    between atoms: C_28  and  O_41
REMARK   12  A    between atoms: C_30  and  O_40
REMARK   13  A    between atoms: C_32  and  O_39
REMARK   14  A    between atoms: C_34  and  C_37
REMARK   15  A    between atoms: C_37  and  O_38
REMARK   16  A    between atoms: O_41  and  C_42
REMARK   17  A    between atoms: C_44  and  O_57
REMARK   18  A    between atoms: C_46  and  O_56
REMARK   19  A    between atoms: C_48  and  O_55
REMARK   20  A    between atoms: C_50  and  C_53
REMARK   21  A    between atoms: C_53  and  O_54
REMARK   22  A    between atoms: C_60  and  O_65
REMARK   23  A    between atoms: C_61  and  O_64
REMARK                            x       y       z     vdW  Elec       q    Type
REMARK                         _______ _______ _______ _____ _____    ______ ____
ROOT
ATOM      1  C   UNL     1       5.983  -5.385  25.623  0.00  0.00    +0.131 A 
ATOM      2  C   UNL     1       5.942  -4.268  26.458  0.00  0.00    +0.093 A 
ATOM      3  C   UNL     1       6.490  -3.053  26.024  0.00  0.00    +0.147 A 
ATOM      4  O   UNL     1       6.434  -1.971  26.870  0.00  0.00    -0.451 OA
ATOM      5  C   UNL     1       6.787  -0.719  26.364  0.00  0.00    +0.181 A 
ATOM      6  C   UNL     1       7.439  -0.513  25.193  0.00  0.00    +0.214 A 
ATOM      7  C   UNL     1       7.893  -1.768  24.533  0.00  0.00    +0.238 A 
ATOM      8  O   UNL     1       8.957  -1.790  23.909  0.00  0.00    -0.283 OA
ATOM      9  C   UNL     1       7.120  -2.982  24.785  0.00  0.00    +0.109 A 
ATOM     10  C   UNL     1       7.077  -4.080  23.920  0.00  0.00    +0.135 A 
ATOM     11  C   UNL     1       6.505  -5.273  24.332  0.00  0.00    +0.092 A 
ENDROOT
BRANCH   5  12
ATOM     12  C   UNL     1       6.466   0.381  27.289  0.00  0.00    +0.025 A 
ATOM     13  C   UNL     1       5.183   0.946  27.314  0.00  0.00    +0.015 A 
ATOM     14  C   UNL     1       4.891   1.993  28.197  0.00  0.00    +0.050 A 
ATOM     15  C   UNL     1       5.877   2.453  29.056  0.00  0.00    +0.158 A 
ATOM     16  C   UNL     1       7.145   1.879  29.058  0.00  0.00    +0.159 A 
ATOM     17  C   UNL     1       7.452   0.848  28.174  0.00  0.00    +0.060 A 
BRANCH  16  18
ATOM     18  O   UNL     1       8.055   2.358  29.961  0.00  0.00    -0.503 OA
ATOM     19  H   UNL     1       8.333   3.245  29.677  0.00  0.00    +0.292 HD
ENDBRANCH  16  18
BRANCH  15  20
ATOM     20  O   UNL     1       5.591   3.477  29.914  0.00  0.00    -0.503 OA
ATOM     21  H   UNL     1       4.623   3.430  30.040  0.00  0.00    +0.292 HD
ENDBRANCH  15  20
ENDBRANCH   5  12
BRANCH  10  22
ATOM     22  O   UNL     1       7.599  -3.992  22.665  0.00  0.00    -0.506 OA
ATOM     23  H   UNL     1       7.044  -4.465  22.017  0.00  0.00    +0.292 HD
ENDBRANCH  10  22
BRANCH   6  24
ATOM     24  O   UNL     1       7.815   0.748  24.720  0.00  0.00    -0.453 OA
BRANCH  24  25
ATOM     25  C   UNL     1       6.877   1.307  23.775  0.00  0.00    +0.340 C 
ATOM     26  O   UNL     1       7.337   1.354  22.425  0.00  0.00    -0.331 OA
ATOM     27  C   UNL     1       8.271   2.359  22.035  0.00  0.00    +0.179 C 
ATOM     28  C   UNL     1       8.034   3.767  22.612  0.00  0.00    +0.177 C 
ATOM     29  C   UNL     1       7.324   3.793  23.973  0.00  0.00    +0.180 C 
ATOM     30  C   UNL     1       6.305   2.660  24.223  0.00  0.00    +0.221 C 
BRANCH  29  31
ATOM     31  O   UNL     1       8.307   3.804  25.022  0.00  0.00    -0.386 OA
ATOM     32  H   UNL     1       8.683   2.902  25.117  0.00  0.00    +0.210 HD
ENDBRANCH  29  31
BRANCH  28  33
ATOM     33  O   UNL     1       7.281   4.548  21.667  0.00  0.00    -0.386 OA
ATOM     34  H   UNL     1       7.289   4.052  20.827  0.00  0.00    +0.210 HD
ENDBRANCH  28  33
BRANCH  30  35
ATOM     35  O   UNL     1       5.043   2.895  23.521  0.00  0.00    -0.337 OA
BRANCH  35  36
ATOM     36  C   UNL     1       4.532   4.230  23.742  0.00  0.00    +0.282 C 
ATOM     37  O   UNL     1       3.904   4.417  25.013  0.00  0.00    -0.341 OA
ATOM     38  C   UNL     1       2.502   4.121  25.181  0.00  0.00    +0.178 C 
ATOM     39  C   UNL     1       1.611   4.512  23.994  0.00  0.00    +0.177 C 
ATOM     40  C   UNL     1       2.247   4.062  22.676  0.00  0.00    +0.179 C 
ATOM     41  C   UNL     1       3.649   4.672  22.561  0.00  0.00    +0.201 C 
BRANCH  41  42
ATOM     42  O   UNL     1       3.571   6.107  22.520  0.00  0.00    -0.384 OA
ATOM     43  H   UNL     1       4.431   6.426  22.155  0.00  0.00    +0.210 HD
ENDBRANCH  41  42
BRANCH  40  44
ATOM     44  O   UNL     1       2.242   2.639  22.563  0.00  0.00    -0.386 OA
ATOM     45  H   UNL     1       3.089   2.282  22.900  0.00  0.00    +0.210 HD
ENDBRANCH  40  44
BRANCH  39  46
ATOM     46  O   UNL     1       1.458   5.947  23.993  0.00  0.00    -0.386 OA
ATOM     47  H   UNL     1       0.756   6.156  24.638  0.00  0.00    +0.210 HD
ENDBRANCH  39  46
BRANCH  38  48
ATOM     48  C   UNL     1       2.211   2.683  25.650  0.00  0.00    +0.190 C 
BRANCH  48  49
ATOM     49  O   UNL     1       0.915   2.272  25.212  0.00  0.00    -0.392 OA
ATOM     50  H   UNL     1       0.283   2.505  25.916  0.00  0.00    +0.210 HD
ENDBRANCH  48  49
ENDBRANCH  38  48
ENDBRANCH  35  36
ENDBRANCH  30  35
BRANCH  27  51
ATOM     51  C   UNL     1       9.700   1.863  22.279  0.00  0.00    +0.190 C 
BRANCH  51  52
ATOM     52  O   UNL     1       9.756   0.440  22.267  0.00  0.00    -0.392 OA
ATOM     53  H   UNL     1       8.837   0.147  22.442  0.00  0.00    +0.210 HD
ENDBRANCH  51  52
ENDBRANCH  27  51
ENDBRANCH  24  25
ENDBRANCH   6  24
BRANCH   1  54
ATOM     54  O   UNL     1       5.585  -6.656  25.930  0.00  0.00    -0.461 OA
BRANCH  54  58
ATOM     55  C   UNL     1       1.357  -7.196  26.709  0.00  0.00    +0.041 C 
ATOM     56  C   UNL     1       2.167  -5.955  27.070  0.00  0.00    +0.150 C 
ATOM     57  O   UNL     1       3.390  -5.883  26.326  0.00  0.00    -0.334 OA
ATOM     58  C   UNL     1       4.390  -6.837  26.701  0.00  0.00    +0.339 C 
ATOM     59  C   UNL     1       4.788  -6.661  28.185  0.00  0.00    +0.214 C 
ATOM     60  C   UNL     1       3.553  -6.678  29.094  0.00  0.00    +0.180 C 
ATOM     61  C   UNL     1       2.448  -5.755  28.565  0.00  0.00    +0.174 C 
BRANCH  61  62
ATOM     62  O   UNL     1       2.870  -4.396  28.761  0.00  0.00    -0.387 OA
ATOM     63  H   UNL     1       2.872  -4.213  29.721  0.00  0.00    +0.210 HD
ENDBRANCH  61  62
BRANCH  60  64
ATOM     64  O   UNL     1       3.094  -8.025  29.297  0.00  0.00    -0.386 OA
ATOM     65  H   UNL     1       3.454  -8.394  30.118  0.00  0.00    +0.210 HD
ENDBRANCH  60  64
BRANCH  59  66
ATOM     66  O   UNL     1       5.707  -7.687  28.595  0.00  0.00    -0.383 OA
ATOM     67  H   UNL     1       5.236  -8.541  28.556  0.00  0.00    +0.210 HD
ENDBRANCH  59  66
ENDBRANCH  54  58
ENDBRANCH   1  54
TORSDOF 22
ENDMDL
MODEL 6
REMARK VINA RESULT:      -6.2      2.234      5.029
REMARK  Name = 
REMARK  23 active torsions:
REMARK  status: ('A' for Active; 'I' for Inactive)
REMARK    1  A    between atoms: C_1  and  C_2
REMARK    2  A    between atoms: C_4  and  O_69
REMARK    3  A    between atoms: C_6  and  O_68
REMARK    4  A    between atoms: C_8  and  O_67
REMARK    5  A    between atoms: C_10  and  O_13
REMARK    6  A    between atoms: O_13  and  C_14
REMARK    7  A    between atoms: C_16  and  O_66
REMARK    8  A    between atoms: C_21  and  C_58
REMARK    9  A    between atoms: C_22  and  O_25
REMARK   10  A    between atoms: O_25  and  C_26
REMARK   11  A    between atoms: C_28  and  O_41
REMARK   12  A    between atoms: C_30  and  O_40
REMARK   13  A    between atoms: C_32  and  O_39
REMARK   14  A    between atoms: C_34  and  C_37
REMARK   15  A    between atoms: C_37  and  O_38
REMARK   16  A    between atoms: O_41  and  C_42
REMARK   17  A    between atoms: C_44  and  O_57
REMARK   18  A    between atoms: C_46  and  O_56
REMARK   19  A    between atoms: C_48  and  O_55
REMARK   20  A    between atoms: C_50  and  C_53
REMARK   21  A    between atoms: C_53  and  O_54
REMARK   22  A    between atoms: C_60  and  O_65
REMARK   23  A    between atoms: C_61  and  O_64
REMARK                            x       y       z     vdW  Elec       q    Type
REMARK                         _______ _______ _______ _____ _____    ______ ____
ROOT
ATOM      1  C   UNL     1       4.227  -3.354  27.089  0.00  0.00    +0.131 A 
ATOM      2  C   UNL     1       3.568  -2.133  27.243  0.00  0.00    +0.093 A 
ATOM      3  C   UNL     1       4.290  -0.935  27.147  0.00  0.00    +0.147 A 
ATOM      4  O   UNL     1       3.612   0.251  27.303  0.00  0.00    -0.451 OA
ATOM      5  C   UNL     1       4.282   1.437  27.002  0.00  0.00    +0.181 A 
ATOM      6  C   UNL     1       5.623   1.548  26.828  0.00  0.00    +0.214 A 
ATOM      7  C   UNL     1       6.370   0.297  27.135  0.00  0.00    +0.238 A 
ATOM      8  O   UNL     1       7.490   0.354  27.647  0.00  0.00    -0.283 OA
ATOM      9  C   UNL     1       5.667  -0.971  26.952  0.00  0.00    +0.109 A 
ATOM     10  C   UNL     1       6.303  -2.193  26.709  0.00  0.00    +0.135 A 
ATOM     11  C   UNL     1       5.587  -3.378  26.770  0.00  0.00    +0.092 A 
ENDROOT
BRANCH   5  12
ATOM     12  C   UNL     1       3.388   2.608  26.985  0.00  0.00    +0.025 A 
ATOM     13  C   UNL     1       3.540   3.641  27.922  0.00  0.00    +0.015 A 
ATOM     14  C   UNL     1       2.682   4.747  27.898  0.00  0.00    +0.050 A 
ATOM     15  C   UNL     1       1.693   4.818  26.930  0.00  0.00    +0.158 A 
ATOM     16  C   UNL     1       1.552   3.812  25.979  0.00  0.00    +0.159 A 
ATOM     17  C   UNL     1       2.389   2.700  26.002  0.00  0.00    +0.060 A 
BRANCH  16  18
ATOM     18  O   UNL     1       0.579   3.970  25.030  0.00  0.00    -0.503 OA
ATOM     19  H   UNL     1      -0.287   3.948  25.471  0.00  0.00    +0.292 HD
ENDBRANCH  16  18
BRANCH  15  20
ATOM     20  O   UNL     1       0.854   5.897  26.910  0.00  0.00    -0.503 OA
ATOM     21  H   UNL     1       0.463   5.921  27.806  0.00  0.00    +0.292 HD
ENDBRANCH  15  20
ENDBRANCH   5  12
BRANCH  10  22
ATOM     22  O   UNL     1       7.632  -2.234  26.415  0.00  0.00    -0.506 OA
ATOM     23  H   UNL     1       8.056  -3.022  26.806  0.00  0.00    +0.292 HD
ENDBRANCH  10  22
BRANCH   6  24
ATOM     24  O   UNL     1       6.279   2.754  26.561  0.00  0.00    -0.453 OA
BRANCH  24  25
ATOM     25  C   UNL     1       7.311   2.632  25.559  0.00  0.00    +0.340 C 
ATOM     26  O   UNL     1       8.219   3.732  25.492  0.00  0.00    -0.331 OA
ATOM     27  C   UNL     1       7.806   4.946  24.868  0.00  0.00    +0.179 C 
ATOM     28  C   UNL     1       6.983   4.800  23.574  0.00  0.00    +0.177 C 
ATOM     29  C   UNL     1       6.155   3.510  23.482  0.00  0.00    +0.180 C 
ATOM     30  C   UNL     1       6.763   2.269  24.171  0.00  0.00    +0.221 C 
BRANCH  29  31
ATOM     31  O   UNL     1       4.835   3.754  23.995  0.00  0.00    -0.386 OA
ATOM     32  H   UNL     1       4.906   4.068  24.923  0.00  0.00    +0.210 HD
ENDBRANCH  29  31
BRANCH  28  33
ATOM     33  O   UNL     1       7.862   4.884  22.438  0.00  0.00    -0.386 OA
ATOM     34  H   UNL     1       8.749   5.093  22.788  0.00  0.00    +0.210 HD
ENDBRANCH  28  33
BRANCH  30  35
ATOM     35  O   UNL     1       7.840   1.676  23.378  0.00  0.00    -0.337 OA
BRANCH  35  36
ATOM     36  C   UNL     1       7.932   0.244  23.561  0.00  0.00    +0.282 C 
ATOM     37  O   UNL     1       8.864  -0.162  24.566  0.00  0.00    -0.341 OA
ATOM     38  C   UNL     1      10.252  -0.366  24.231  0.00  0.00    +0.178 C 
ATOM     39  C   UNL     1      10.499  -1.023  22.866  0.00  0.00    +0.177 C 
ATOM     40  C   UNL     1       9.629  -0.366  21.790  0.00  0.00    +0.179 C 
ATOM     41  C   UNL     1       8.157  -0.458  22.209  0.00  0.00    +0.201 C 
BRANCH  41  42
ATOM     42  O   UNL     1       7.746  -1.833  22.299  0.00  0.00    -0.384 OA
ATOM     43  H   UNL     1       6.818  -1.872  21.961  0.00  0.00    +0.210 HD
ENDBRANCH  41  42
BRANCH  40  44
ATOM     44  O   UNL     1      10.057   0.970  21.530  0.00  0.00    -0.386 OA
ATOM     45  H   UNL     1      10.814   1.190  22.111  0.00  0.00    +0.210 HD
ENDBRANCH  40  44
BRANCH  39  46
ATOM     46  O   UNL     1      10.167  -2.424  22.969  0.00  0.00    -0.386 OA
ATOM     47  H   UNL     1       9.647  -2.650  22.175  0.00  0.00    +0.210 HD
ENDBRANCH  39  46
BRANCH  38  48
ATOM     48  C   UNL     1      11.138   0.879  24.421  0.00  0.00    +0.190 C 
BRANCH  48  49
ATOM     49  O   UNL     1      10.397   2.064  24.123  0.00  0.00    -0.392 OA
ATOM     50  H   UNL     1       9.743   2.185  24.835  0.00  0.00    +0.210 HD
ENDBRANCH  48  49
ENDBRANCH  38  48
ENDBRANCH  35  36
ENDBRANCH  30  35
BRANCH  27  51
ATOM     51  C   UNL     1       7.120   5.852  25.895  0.00  0.00    +0.190 C 
BRANCH  51  52
ATOM     52  O   UNL     1       5.711   5.642  25.900  0.00  0.00    -0.392 OA
ATOM     53  H   UNL     1       5.536   5.065  25.126  0.00  0.00    +0.210 HD
ENDBRANCH  51  52
ENDBRANCH  27  51
ENDBRANCH  24  25
ENDBRANCH   6  24
BRANCH   1  54
ATOM     54  O   UNL     1       3.693  -4.601  27.250  0.00  0.00    -0.461 OA
BRANCH  54  58
ATOM     55  C   UNL     1       1.967  -5.452  23.367  0.00  0.00    +0.041 C 
ATOM     56  C   UNL     1       1.518  -6.074  24.686  0.00  0.00    +0.150 C 
ATOM     57  O   UNL     1       1.958  -5.306  25.814  0.00  0.00    -0.334 OA
ATOM     58  C   UNL     1       3.363  -5.366  26.083  0.00  0.00    +0.339 C 
ATOM     59  C   UNL     1       3.808  -6.820  26.363  0.00  0.00    +0.214 C 
ATOM     60  C   UNL     1       3.358  -7.763  25.240  0.00  0.00    +0.180 C 
ATOM     61  C   UNL     1       1.882  -7.552  24.882  0.00  0.00    +0.174 C 
BRANCH  61  62
ATOM     62  O   UNL     1       1.084  -8.068  25.960  0.00  0.00    -0.387 OA
ATOM     63  H   UNL     1       0.945  -9.022  25.805  0.00  0.00    +0.210 HD
ENDBRANCH  61  62
BRANCH  60  64
ATOM     64  O   UNL     1       4.224  -7.636  24.100  0.00  0.00    -0.386 OA
ATOM     65  H   UNL     1       5.104  -7.995  24.291  0.00  0.00    +0.210 HD
ENDBRANCH  60  64
BRANCH  59  66
ATOM     66  O   UNL     1       5.234  -6.900  26.523  0.00  0.00    -0.383 OA
ATOM     67  H   UNL     1       5.558  -6.007  26.749  0.00  0.00    +0.210 HD
ENDBRANCH  59  66
ENDBRANCH  54  58
ENDBRANCH   1  54
TORSDOF 22
ENDMDL
MODEL 7
REMARK VINA RESULT:      -6.2      2.487      9.376
REMARK  Name = 
REMARK  23 active torsions:
REMARK  status: ('A' for Active; 'I' for Inactive)
REMARK    1  A    between atoms: C_1  and  C_2
REMARK    2  A    between atoms: C_4  and  O_69
REMARK    3  A    between atoms: C_6  and  O_68
REMARK    4  A    between atoms: C_8  and  O_67
REMARK    5  A    between atoms: C_10  and  O_13
REMARK    6  A    between atoms: O_13  and  C_14
REMARK    7  A    between atoms: C_16  and  O_66
REMARK    8  A    between atoms: C_21  and  C_58
REMARK    9  A    between atoms: C_22  and  O_25
REMARK   10  A    between atoms: O_25  and  C_26
REMARK   11  A    between atoms: C_28  and  O_41
REMARK   12  A    between atoms: C_30  and  O_40
REMARK   13  A    between atoms: C_32  and  O_39
REMARK   14  A    between atoms: C_34  and  C_37
REMARK   15  A    between atoms: C_37  and  O_38
REMARK   16  A    between atoms: O_41  and  C_42
REMARK   17  A    between atoms: C_44  and  O_57
REMARK   18  A    between atoms: C_46  and  O_56
REMARK   19  A    between atoms: C_48  and  O_55
REMARK   20  A    between atoms: C_50  and  C_53
REMARK   21  A    between atoms: C_53  and  O_54
REMARK   22  A    between atoms: C_60  and  O_65
REMARK   23  A    between atoms: C_61  and  O_64
REMARK                            x       y       z     vdW  Elec       q    Type
REMARK                         _______ _______ _______ _____ _____    ______ ____
ROOT
ATOM      1  C   UNL     1       8.920  -2.751  23.575  0.00  0.00    +0.131 A 
ATOM      2  C   UNL     1       7.820  -3.538  23.229  0.00  0.00    +0.093 A 
ATOM      3  C   UNL     1       7.065  -4.162  24.232  0.00  0.00    +0.147 A 
ATOM      4  O   UNL     1       5.989  -4.930  23.858  0.00  0.00    -0.451 OA
ATOM      5  C   UNL     1       5.119  -5.376  24.855  0.00  0.00    +0.181 A 
ATOM      6  C   UNL     1       5.386  -5.349  26.184  0.00  0.00    +0.214 A 
ATOM      7  C   UNL     1       6.778  -4.928  26.507  0.00  0.00    +0.238 A 
ATOM      8  O   UNL     1       7.369  -5.429  27.465  0.00  0.00    -0.283 OA
ATOM      9  C   UNL     1       7.448  -4.036  25.564  0.00  0.00    +0.109 A 
ATOM     10  C   UNL     1       8.495  -3.174  25.907  0.00  0.00    +0.135 A 
ATOM     11  C   UNL     1       9.223  -2.529  24.920  0.00  0.00    +0.092 A 
ENDROOT
BRANCH   5  12
ATOM     12  C   UNL     1       3.893  -5.985  24.311  0.00  0.00    +0.025 A 
ATOM     13  C   UNL     1       3.037  -5.251  23.477  0.00  0.00    +0.015 A 
ATOM     14  C   UNL     1       1.874  -5.841  22.968  0.00  0.00    +0.050 A 
ATOM     15  C   UNL     1       1.586  -7.159  23.284  0.00  0.00    +0.158 A 
ATOM     16  C   UNL     1       2.443  -7.904  24.087  0.00  0.00    +0.159 A 
ATOM     17  C   UNL     1       3.595  -7.324  24.612  0.00  0.00    +0.060 A 
BRANCH  16  18
ATOM     18  O   UNL     1       2.115  -9.210  24.324  0.00  0.00    -0.503 OA
ATOM     19  H   UNL     1       2.157  -9.370  25.282  0.00  0.00    +0.292 HD
ENDBRANCH  16  18
BRANCH  15  20
ATOM     20  O   UNL     1       0.448  -7.732  22.789  0.00  0.00    -0.503 OA
ATOM     21  H   UNL     1      -0.171  -6.984  22.665  0.00  0.00    +0.292 HD
ENDBRANCH  15  20
ENDBRANCH   5  12
BRANCH  10  22
ATOM     22  O   UNL     1       8.814  -2.962  27.215  0.00  0.00    -0.506 OA
ATOM     23  H   UNL     1       9.766  -3.108  27.374  0.00  0.00    +0.292 HD
ENDBRANCH  10  22
BRANCH   6  24
ATOM     24  O   UNL     1       4.514  -5.833  27.166  0.00  0.00    -0.453 OA
BRANCH  24  25
ATOM     25  C   UNL     1       4.085  -4.818  28.099  0.00  0.00    +0.340 C 
ATOM     26  O   UNL     1       3.880  -5.276  29.435  0.00  0.00    -0.331 OA
ATOM     27  C   UNL     1       2.702  -6.014  29.752  0.00  0.00    +0.179 C 
ATOM     28  C   UNL     1       1.394  -5.517  29.108  0.00  0.00    +0.177 C 
ATOM     29  C   UNL     1       1.574  -4.799  27.762  0.00  0.00    +0.180 C 
ATOM     30  C   UNL     1       2.886  -4.003  27.593  0.00  0.00    +0.221 C 
BRANCH  29  31
ATOM     31  O   UNL     1       1.442  -5.753  26.694  0.00  0.00    -0.386 OA
ATOM     32  H   UNL     1       0.524  -5.717  26.346  0.00  0.00    +0.210 HD
ENDBRANCH  29  31
BRANCH  28  33
ATOM     33  O   UNL     1       0.714  -4.643  30.026  0.00  0.00    -0.386 OA
ATOM     34  H   UNL     1       0.835  -5.025  30.915  0.00  0.00    +0.210 HD
ENDBRANCH  28  33
BRANCH  30  35
ATOM     35  O   UNL     1       2.847  -2.727  28.307  0.00  0.00    -0.337 OA
BRANCH  35  36
ATOM     36  C   UNL     1       4.162  -2.150  28.474  0.00  0.00    +0.282 C 
ATOM     37  O   UNL     1       4.289  -1.290  29.609  0.00  0.00    -0.341 OA
ATOM     38  C   UNL     1       3.960   0.111  29.500  0.00  0.00    +0.178 C 
ATOM     39  C   UNL     1       4.380   0.773  28.180  0.00  0.00    +0.177 C 
ATOM     40  C   UNL     1       3.992  -0.110  26.991  0.00  0.00    +0.179 C 
ATOM     41  C   UNL     1       4.632  -1.493  27.163  0.00  0.00    +0.201 C 
BRANCH  41  42
ATOM     42  O   UNL     1       6.066  -1.386  27.157  0.00  0.00    -0.384 OA
ATOM     43  H   UNL     1       6.403  -2.083  27.771  0.00  0.00    +0.210 HD
ENDBRANCH  41  42
BRANCH  40  44
ATOM     44  O   UNL     1       2.575  -0.163  26.831  0.00  0.00    -0.386 OA
ATOM     45  H   UNL     1       2.160  -0.425  27.678  0.00  0.00    +0.210 HD
ENDBRANCH  40  44
BRANCH  39  46
ATOM     46  O   UNL     1       5.810   0.961  28.199  0.00  0.00    -0.386 OA
ATOM     47  H   UNL     1       6.161   0.384  28.904  0.00  0.00    +0.210 HD
ENDBRANCH  39  46
BRANCH  38  48
ATOM     48  C   UNL     1       2.501   0.448  29.857  0.00  0.00    +0.190 C 
BRANCH  48  49
ATOM     49  O   UNL     1       1.670  -0.701  29.680  0.00  0.00    -0.392 OA
ATOM     50  H   UNL     1       1.369  -0.702  28.753  0.00  0.00    +0.210 HD
ENDBRANCH  48  49
ENDBRANCH  38  48
ENDBRANCH  35  36
ENDBRANCH  30  35
BRANCH  27  51
ATOM     51  C   UNL     1       2.941  -7.507  29.505  0.00  0.00    +0.190 C 
BRANCH  51  52
ATOM     52  O   UNL     1       1.998  -8.027  28.573  0.00  0.00    -0.392 OA
ATOM     53  H   UNL     1       2.493  -8.699  28.058  0.00  0.00    +0.210 HD
ENDBRANCH  51  52
ENDBRANCH  27  51
ENDBRANCH  24  25
ENDBRANCH   6  24
BRANCH   1  54
ATOM     54  O   UNL     1       9.809  -2.161  22.722  0.00  0.00    -0.461 OA
BRANCH  54  58
ATOM     55  C   UNL     1      11.515   1.546  24.179  0.00  0.00    +0.041 C 
ATOM     56  C   UNL     1      10.068   1.106  24.376  0.00  0.00    +0.150 C 
ATOM     57  O   UNL     1       9.909  -0.305  24.177  0.00  0.00    -0.334 OA
ATOM     58  C   UNL     1      10.024  -0.747  22.820  0.00  0.00    +0.339 C 
ATOM     59  C   UNL     1       8.954  -0.072  21.930  0.00  0.00    +0.214 C 
ATOM     60  C   UNL     1       8.989   1.453  22.083  0.00  0.00    +0.180 C 
ATOM     61  C   UNL     1       9.022   1.873  23.557  0.00  0.00    +0.174 C 
BRANCH  61  62
ATOM     62  O   UNL     1       7.728   1.607  24.125  0.00  0.00    -0.387 OA
ATOM     63  H   UNL     1       7.586   0.641  24.117  0.00  0.00    +0.210 HD
ENDBRANCH  61  62
BRANCH  60  64
ATOM     64  O   UNL     1      10.079   2.010  21.329  0.00  0.00    -0.386 OA
ATOM     65  H   UNL     1      10.821   1.388  21.282  0.00  0.00    +0.210 HD
ENDBRANCH  60  64
BRANCH  59  66
ATOM     66  O   UNL     1       9.137  -0.426  20.549  0.00  0.00    -0.383 OA
ATOM     67  H   UNL     1       8.905   0.353  20.009  0.00  0.00    +0.210 HD
ENDBRANCH  59  66
ENDBRANCH  54  58
ENDBRANCH   1  54
TORSDOF 22
ENDMDL
MODEL 8
REMARK VINA RESULT:      -5.8      2.641      5.154
REMARK  Name = 
REMARK  23 active torsions:
REMARK  status: ('A' for Active; 'I' for Inactive)
REMARK    1  A    between atoms: C_1  and  C_2
REMARK    2  A    between atoms: C_4  and  O_69
REMARK    3  A    between atoms: C_6  and  O_68
REMARK    4  A    between atoms: C_8  and  O_67
REMARK    5  A    between atoms: C_10  and  O_13
REMARK    6  A    between atoms: O_13  and  C_14
REMARK    7  A    between atoms: C_16  and  O_66
REMARK    8  A    between atoms: C_21  and  C_58
REMARK    9  A    between atoms: C_22  and  O_25
REMARK   10  A    between atoms: O_25  and  C_26
REMARK   11  A    between atoms: C_28  and  O_41
REMARK   12  A    between atoms: C_30  and  O_40
REMARK   13  A    between atoms: C_32  and  O_39
REMARK   14  A    between atoms: C_34  and  C_37
REMARK   15  A    between atoms: C_37  and  O_38
REMARK   16  A    between atoms: O_41  and  C_42
REMARK   17  A    between atoms: C_44  and  O_57
REMARK   18  A    between atoms: C_46  and  O_56
REMARK   19  A    between atoms: C_48  and  O_55
REMARK   20  A    between atoms: C_50  and  C_53
REMARK   21  A    between atoms: C_53  and  O_54
REMARK   22  A    between atoms: C_60  and  O_65
REMARK   23  A    between atoms: C_61  and  O_64
REMARK                            x       y       z     vdW  Elec       q    Type
REMARK                         _______ _______ _______ _____ _____    ______ ____
ROOT
ATOM      1  C   UNL     1       5.023  -4.569  26.074  0.00  0.00    +0.131 A 
ATOM      2  C   UNL     1       5.765  -3.748  25.222  0.00  0.00    +0.093 A 
ATOM      3  C   UNL     1       5.841  -2.371  25.472  0.00  0.00    +0.147 A 
ATOM      4  O   UNL     1       6.578  -1.591  24.614  0.00  0.00    -0.451 OA
ATOM      5  C   UNL     1       6.826  -0.266  24.977  0.00  0.00    +0.181 A 
ATOM      6  C   UNL     1       6.179   0.401  25.965  0.00  0.00    +0.214 A 
ATOM      7  C   UNL     1       5.048  -0.364  26.561  0.00  0.00    +0.238 A 
ATOM      8  O   UNL     1       4.031   0.225  26.934  0.00  0.00    -0.283 OA
ATOM      9  C   UNL     1       5.132  -1.822  26.536  0.00  0.00    +0.109 A 
ATOM     10  C   UNL     1       4.468  -2.662  27.436  0.00  0.00    +0.135 A 
ATOM     11  C   UNL     1       4.418  -4.028  27.211  0.00  0.00    +0.092 A 
ENDROOT
BRANCH   5  12
ATOM     12  C   UNL     1       7.811   0.390  24.100  0.00  0.00    +0.025 A 
ATOM     13  C   UNL     1       9.142   0.554  24.511  0.00  0.00    +0.015 A 
ATOM     14  C   UNL     1      10.067   1.181  23.668  0.00  0.00    +0.050 A 
ATOM     15  C   UNL     1       9.660   1.624  22.420  0.00  0.00    +0.158 A 
ATOM     16  C   UNL     1       8.348   1.442  21.992  0.00  0.00    +0.159 A 
ATOM     17  C   UNL     1       7.415   0.833  22.826  0.00  0.00    +0.060 A 
BRANCH  16  18
ATOM     18  O   UNL     1       8.028   1.868  20.733  0.00  0.00    -0.503 OA
ATOM     19  H   UNL     1       8.386   1.230  20.091  0.00  0.00    +0.292 HD
ENDBRANCH  16  18
BRANCH  15  20
ATOM     20  O   UNL     1      10.564   2.240  21.601  0.00  0.00    -0.503 OA
ATOM     21  H   UNL     1      11.256   2.574  22.206  0.00  0.00    +0.292 HD
ENDBRANCH  15  20
ENDBRANCH   5  12
BRANCH  10  22
ATOM     22  O   UNL     1       3.856  -2.147  28.539  0.00  0.00    -0.506 OA
ATOM     23  H   UNL     1       4.494  -1.674  29.107  0.00  0.00    +0.292 HD
ENDBRANCH  10  22
BRANCH   6  24
ATOM     24  O   UNL     1       6.418   1.740  26.289  0.00  0.00    -0.453 OA
BRANCH  24  25
ATOM     25  C   UNL     1       5.569   2.662  25.570  0.00  0.00    +0.340 C 
ATOM     26  O   UNL     1       6.240   3.468  24.602  0.00  0.00    -0.331 OA
ATOM     27  C   UNL     1       7.020   4.581  25.034  0.00  0.00    +0.179 C 
ATOM     28  C   UNL     1       6.424   5.427  26.175  0.00  0.00    +0.177 C 
ATOM     29  C   UNL     1       5.496   4.659  27.127  0.00  0.00    +0.180 C 
ATOM     30  C   UNL     1       4.683   3.509  26.494  0.00  0.00    +0.221 C 
BRANCH  29  31
ATOM     31  O   UNL     1       6.262   4.159  28.237  0.00  0.00    -0.386 OA
ATOM     32  H   UNL     1       5.652   3.948  28.976  0.00  0.00    +0.210 HD
ENDBRANCH  29  31
BRANCH  28  33
ATOM     33  O   UNL     1       5.712   6.545  25.616  0.00  0.00    -0.386 OA
ATOM     34  H   UNL     1       6.327   7.303  25.631  0.00  0.00    +0.210 HD
ENDBRANCH  28  33
BRANCH  30  35
ATOM     35  O   UNL     1       3.540   4.007  25.727  0.00  0.00    -0.337 OA
BRANCH  35  36
ATOM     36  C   UNL     1       2.811   2.941  25.075  0.00  0.00    +0.282 C 
ATOM     37  O   UNL     1       3.241   2.664  23.740  0.00  0.00    -0.341 OA
ATOM     38  C   UNL     1       2.678   3.393  22.629  0.00  0.00    +0.178 C 
ATOM     39  C   UNL     1       1.175   3.683  22.741  0.00  0.00    +0.177 C 
ATOM     40  C   UNL     1       0.833   4.206  24.139  0.00  0.00    +0.179 C 
ATOM     41  C   UNL     1       1.294   3.182  25.184  0.00  0.00    +0.201 C 
BRANCH  41  42
ATOM     42  O   UNL     1       0.589   1.940  25.015  0.00  0.00    -0.384 OA
ATOM     43  H   UNL     1       0.720   1.668  24.074  0.00  0.00    +0.210 HD
ENDBRANCH  41  42
BRANCH  40  44
ATOM     44  O   UNL     1       1.378   5.508  24.348  0.00  0.00    -0.386 OA
ATOM     45  H   UNL     1       0.677   6.179  24.223  0.00  0.00    +0.210 HD
ENDBRANCH  40  44
BRANCH  39  46
ATOM     46  O   UNL     1       0.454   2.458  22.491  0.00  0.00    -0.386 OA
ATOM     47  H   UNL     1      -0.438   2.573  22.868  0.00  0.00    +0.210 HD
ENDBRANCH  39  46
BRANCH  38  48
ATOM     48  C   UNL     1       3.465   4.657  22.238  0.00  0.00    +0.190 C 
BRANCH  48  49
ATOM     49  O   UNL     1       4.129   5.200  23.381  0.00  0.00    -0.392 OA
ATOM     50  H   UNL     1       3.448   5.605  23.948  0.00  0.00    +0.210 HD
ENDBRANCH  48  49
ENDBRANCH  38  48
ENDBRANCH  35  36
ENDBRANCH  30  35
BRANCH  27  51
ATOM     51  C   UNL     1       8.452   4.127  25.333  0.00  0.00    +0.190 C 
BRANCH  51  52
ATOM     52  O   UNL     1       9.354   4.592  24.334  0.00  0.00    -0.392 OA
ATOM     53  H   UNL     1       8.898   5.350  23.911  0.00  0.00    +0.210 HD
ENDBRANCH  51  52
ENDBRANCH  27  51
ENDBRANCH  24  25
ENDBRANCH   6  24
BRANCH   1  54
ATOM     54  O   UNL     1       4.771  -5.902  25.916  0.00  0.00    -0.461 OA
BRANCH  54  58
ATOM     55  C   UNL     1       0.474  -6.443  26.071  0.00  0.00    +0.041 C 
ATOM     56  C   UNL     1       1.506  -7.565  26.136  0.00  0.00    +0.150 C 
ATOM     57  O   UNL     1       2.804  -7.074  26.492  0.00  0.00    -0.334 OA
ATOM     58  C   UNL     1       3.468  -6.310  25.479  0.00  0.00    +0.339 C 
ATOM     59  C   UNL     1       3.672  -7.155  24.200  0.00  0.00    +0.214 C 
ATOM     60  C   UNL     1       2.352  -7.779  23.731  0.00  0.00    +0.180 C 
ATOM     61  C   UNL     1       1.603  -8.452  24.888  0.00  0.00    +0.174 C 
BRANCH  61  62
ATOM     62  O   UNL     1       2.318  -9.648  25.245  0.00  0.00    -0.387 OA
ATOM     63  H   UNL     1       3.013  -9.798  24.576  0.00  0.00    +0.210 HD
ENDBRANCH  61  62
BRANCH  60  64
ATOM     64  O   UNL     1       1.547  -6.802  23.051  0.00  0.00    -0.386 OA
ATOM     65  H   UNL     1       1.975  -5.932  23.062  0.00  0.00    +0.210 HD
ENDBRANCH  60  64
BRANCH  59  66
ATOM     66  O   UNL     1       4.236  -6.359  23.143  0.00  0.00    -0.383 OA
ATOM     67  H   UNL     1       3.696  -6.504  22.343  0.00  0.00    +0.210 HD
ENDBRANCH  59  66
ENDBRANCH  54  58
ENDBRANCH   1  54
TORSDOF 22
ENDMDL
MODEL 9
REMARK VINA RESULT:      -5.7      2.320      5.150
REMARK  Name = 
REMARK  23 active torsions:
REMARK  status: ('A' for Active; 'I' for Inactive)
REMARK    1  A    between atoms: C_1  and  C_2
REMARK    2  A    between atoms: C_4  and  O_69
REMARK    3  A    between atoms: C_6  and  O_68
REMARK    4  A    between atoms: C_8  and  O_67
REMARK    5  A    between atoms: C_10  and  O_13
REMARK    6  A    between atoms: O_13  and  C_14
REMARK    7  A    between atoms: C_16  and  O_66
REMARK    8  A    between atoms: C_21  and  C_58
REMARK    9  A    between atoms: C_22  and  O_25
REMARK   10  A    between atoms: O_25  and  C_26
REMARK   11  A    between atoms: C_28  and  O_41
REMARK   12  A    between atoms: C_30  and  O_40
REMARK   13  A    between atoms: C_32  and  O_39
REMARK   14  A    between atoms: C_34  and  C_37
REMARK   15  A    between atoms: C_37  and  O_38
REMARK   16  A    between atoms: O_41  and  C_42
REMARK   17  A    between atoms: C_44  and  O_57
REMARK   18  A    between atoms: C_46  and  O_56
REMARK   19  A    between atoms: C_48  and  O_55
REMARK   20  A    between atoms: C_50  and  C_53
REMARK   21  A    between atoms: C_53  and  O_54
REMARK   22  A    between atoms: C_60  and  O_65
REMARK   23  A    between atoms: C_61  and  O_64
REMARK                            x       y       z     vdW  Elec       q    Type
REMARK                         _______ _______ _______ _____ _____    ______ ____
ROOT
ATOM      1  C   UNL     1       4.962  -3.908  23.367  0.00  0.00    +0.131 A 
ATOM      2  C   UNL     1       5.780  -2.814  23.082  0.00  0.00    +0.093 A 
ATOM      3  C   UNL     1       5.949  -1.802  24.037  0.00  0.00    +0.147 A 
ATOM      4  O   UNL     1       6.761  -0.738  23.725  0.00  0.00    -0.451 OA
ATOM      5  C   UNL     1       7.094   0.157  24.744  0.00  0.00    +0.181 A 
ATOM      6  C   UNL     1       6.473   0.227  25.947  0.00  0.00    +0.214 A 
ATOM      7  C   UNL     1       5.276  -0.653  26.055  0.00  0.00    +0.238 A 
ATOM      8  O   UNL     1       4.296  -0.287  26.706  0.00  0.00    -0.283 OA
ATOM      9  C   UNL     1       5.256  -1.867  25.243  0.00  0.00    +0.109 A 
ATOM     10  C   UNL     1       4.512  -3.009  25.555  0.00  0.00    +0.135 A 
ATOM     11  C   UNL     1       4.370  -4.027  24.627  0.00  0.00    +0.092 A 
ENDROOT
BRANCH   5  12
ATOM     12  C   UNL     1       8.144   1.110  24.343  0.00  0.00    +0.025 A 
ATOM     13  C   UNL     1       9.493   0.854  24.631  0.00  0.00    +0.015 A 
ATOM     14  C   UNL     1      10.481   1.768  24.247  0.00  0.00    +0.050 A 
ATOM     15  C   UNL     1      10.115   2.919  23.568  0.00  0.00    +0.158 A 
ATOM     16  C   UNL     1       8.783   3.169  23.253  0.00  0.00    +0.159 A 
ATOM     17  C   UNL     1       7.789   2.274  23.642  0.00  0.00    +0.060 A 
BRANCH  16  18
ATOM     18  O   UNL     1       8.501   4.304  22.545  0.00  0.00    -0.503 OA
ATOM     19  H   UNL     1       9.327   4.637  22.154  0.00  0.00    +0.292 HD
ENDBRANCH  16  18
BRANCH  15  20
ATOM     20  O   UNL     1      11.081   3.812  23.197  0.00  0.00    -0.503 OA
ATOM     21  H   UNL     1      11.294   3.575  22.273  0.00  0.00    +0.292 HD
ENDBRANCH  15  20
ENDBRANCH   5  12
BRANCH  10  22
ATOM     22  O   UNL     1       3.913  -3.131  26.773  0.00  0.00    -0.506 OA
ATOM     23  H   UNL     1       3.306  -2.385  26.944  0.00  0.00    +0.292 HD
ENDBRANCH  10  22
BRANCH   6  24
ATOM     24  O   UNL     1       6.799   1.156  26.941  0.00  0.00    -0.453 OA
BRANCH  24  25
ATOM     25  C   UNL     1       6.600   2.526  26.530  0.00  0.00    +0.340 C 
ATOM     26  O   UNL     1       7.289   3.497  27.317  0.00  0.00    -0.331 OA
ATOM     27  C   UNL     1       6.781   3.848  28.603  0.00  0.00    +0.179 C 
ATOM     28  C   UNL     1       5.251   3.998  28.712  0.00  0.00    +0.177 C 
ATOM     29  C   UNL     1       4.450   3.142  27.720  0.00  0.00    +0.180 C 
ATOM     30  C   UNL     1       5.120   2.892  26.351  0.00  0.00    +0.221 C 
BRANCH  29  31
ATOM     31  O   UNL     1       4.118   1.886  28.336  0.00  0.00    -0.386 OA
ATOM     32  H   UNL     1       4.873   1.267  28.228  0.00  0.00    +0.210 HD
ENDBRANCH  29  31
BRANCH  28  33
ATOM     33  O   UNL     1       4.895   5.381  28.542  0.00  0.00    -0.386 OA
ATOM     34  H   UNL     1       4.890   5.778  29.433  0.00  0.00    +0.210 HD
ENDBRANCH  28  33
BRANCH  30  35
ATOM     35  O   UNL     1       5.024   4.059  25.475  0.00  0.00    -0.337 OA
BRANCH  35  36
ATOM     36  C   UNL     1       4.747   3.694  24.103  0.00  0.00    +0.282 C 
ATOM     37  O   UNL     1       5.402   4.514  23.132  0.00  0.00    -0.341 OA
ATOM     38  C   UNL     1       4.781   5.733  22.672  0.00  0.00    +0.178 C 
ATOM     39  C   UNL     1       3.261   5.652  22.479  0.00  0.00    +0.177 C 
ATOM     40  C   UNL     1       2.605   4.967  23.682  0.00  0.00    +0.179 C 
ATOM     41  C   UNL     1       3.229   3.579  23.872  0.00  0.00    +0.201 C 
BRANCH  41  42
ATOM     42  O   UNL     1       2.971   2.752  22.725  0.00  0.00    -0.384 OA
ATOM     43  H   UNL     1       2.054   2.965  22.424  0.00  0.00    +0.210 HD
ENDBRANCH  41  42
BRANCH  40  44
ATOM     44  O   UNL     1       2.689   5.786  24.848  0.00  0.00    -0.386 OA
ATOM     45  H   UNL     1       1.787   5.997  25.164  0.00  0.00    +0.210 HD
ENDBRANCH  40  44
BRANCH  39  46
ATOM     46  O   UNL     1       2.993   4.892  21.282  0.00  0.00    -0.386 OA
ATOM     47  H   UNL     1       3.475   5.330  20.556  0.00  0.00    +0.210 HD
ENDBRANCH  39  46
BRANCH  38  48
ATOM     48  C   UNL     1       5.179   6.986  23.473  0.00  0.00    +0.190 C 
BRANCH  48  49
ATOM     49  O   UNL     1       5.600   6.620  24.789  0.00  0.00    -0.392 OA
ATOM     50  H   UNL     1       5.754   5.658  24.787  0.00  0.00    +0.210 HD
ENDBRANCH  48  49
ENDBRANCH  38  48
ENDBRANCH  35  36
ENDBRANCH  30  35
BRANCH  27  51
ATOM     51  C   UNL     1       7.349   2.899  29.663  0.00  0.00    +0.190 C 
BRANCH  51  52
ATOM     52  O   UNL     1       6.496   1.774  29.851  0.00  0.00    -0.392 OA
ATOM     53  H   UNL     1       5.599   2.151  29.972  0.00  0.00    +0.210 HD
ENDBRANCH  51  52
ENDBRANCH  27  51
ENDBRANCH  24  25
ENDBRANCH   6  24
BRANCH   1  54
ATOM     54  O   UNL     1       4.618  -4.921  22.517  0.00  0.00    -0.461 OA
BRANCH  54  58
ATOM     55  C   UNL     1       0.538  -6.361  22.268  0.00  0.00    +0.041 C 
ATOM     56  C   UNL     1       1.138  -5.616  23.457  0.00  0.00    +0.150 C 
ATOM     57  O   UNL     1       2.329  -4.905  23.094  0.00  0.00    -0.334 OA
ATOM     58  C   UNL     1       3.473  -5.725  22.829  0.00  0.00    +0.339 C 
ATOM     59  C   UNL     1       3.846  -6.566  24.072  0.00  0.00    +0.214 C 
ATOM     60  C   UNL     1       2.636  -7.352  24.592  0.00  0.00    +0.180 C 
ATOM     61  C   UNL     1       1.393  -6.462  24.712  0.00  0.00    +0.174 C 
BRANCH  61  62
ATOM     62  O   UNL     1       1.590  -5.568  25.820  0.00  0.00    -0.387 OA
ATOM     63  H   UNL     1       0.732  -5.154  26.033  0.00  0.00    +0.210 HD
ENDBRANCH  61  62
BRANCH  60  64
ATOM     64  O   UNL     1       2.403  -8.515  23.779  0.00  0.00    -0.386 OA
ATOM     65  H   UNL     1       2.600  -9.326  24.272  0.00  0.00    +0.210 HD
ENDBRANCH  60  64
BRANCH  59  66
ATOM     66  O   UNL     1       4.922  -7.472  23.776  0.00  0.00    -0.383 OA
ATOM     67  H   UNL     1       5.181  -7.331  22.846  0.00  0.00    +0.210 HD
ENDBRANCH  59  66
ENDBRANCH  54  58
ENDBRANCH   1  54
TORSDOF 22
ENDMDL
