MODEL 1
REMARK VINA RESULT:      -7.2      0.000      0.000
REMARK  Name = 
REMARK  21 active torsions:
REMARK  status: ('A' for Active; 'I' for Inactive)
REMARK    1  A    between atoms: C_1  and  C_2
REMARK    2  A    between atoms: C_3  and  O_60
REMARK    3  A    between atoms: C_5  and  O_59
REMARK    4  A    between atoms: C_6  and  O_58
REMARK    5  A    between atoms: C_8  and  O_11
REMARK    6  A    between atoms: O_11  and  C_12
REMARK    7  A    between atoms: C_12  and  C_13
REMARK    8  A    between atoms: C_14  and  O_57
REMARK    9  A    between atoms: C_16  and  O_56
REMARK   10  A    between atoms: C_18  and  O_44
REMARK   11  A    between atoms: C_19  and  O_22
REMARK   12  A    between atoms: O_22  and  C_23
REMARK   13  A    between atoms: C_24  and  C_36
REMARK   14  A    between atoms: C_28  and  O_35
REMARK   15  A    between atoms: C_30  and  O_34
REMARK   16  A    between atoms: C_38  and  O_43
REMARK   17  A    between atoms: C_39  and  O_42
REMARK   18  A    between atoms: O_44  and  C_45
REMARK   19  A    between atoms: C_45  and  C_47
REMARK   20  A    between atoms: C_48  and  C_49
REMARK   21  A    between atoms: C_52  and  O_55
REMARK                            x       y       z     vdW  Elec       q    Type
REMARK                         _______ _______ _______ _____ _____    ______ ____
ROOT
ATOM      1  C   UNL     1       8.400  -0.326  22.640  0.00  0.00    +0.179 C 
ATOM      2  O   UNL     1       7.194  -0.625  23.362  0.00  0.00    -0.330 OA
ATOM      3  C   UNL     1       7.292  -1.361  24.590  0.00  0.00    +0.352 C 
ATOM      4  C   UNL     1       8.193  -2.640  24.506  0.00  0.00    +0.276 C 
ATOM      5  C   UNL     1       9.527  -2.244  23.862  0.00  0.00    +0.192 C 
ATOM      6  C   UNL     1       9.296  -1.585  22.500  0.00  0.00    +0.178 C 
ENDROOT
BRANCH   6   7
ATOM      7  O   UNL     1      10.580  -1.307  21.925  0.00  0.00    -0.386 OA
ATOM      8  H   UNL     1      10.530  -0.429  21.505  0.00  0.00    +0.210 HD
ENDBRANCH   6   7
BRANCH   5   9
ATOM      9  O   UNL     1      10.396  -3.375  23.704  0.00  0.00    -0.385 OA
ATOM     10  H   UNL     1      11.147  -3.208  24.313  0.00  0.00    +0.210 HD
ENDBRANCH   5   9
BRANCH   4  11
ATOM     11  O   UNL     1       7.578  -3.725  23.740  0.00  0.00    -0.449 OA
BRANCH  11  12
ATOM     12  C   UNL     1       7.635  -4.969  24.307  0.00  0.00    +0.332 C 
ATOM     13  O   UNL     1       8.594  -5.464  24.879  0.00  0.00    -0.246 OA
BRANCH  12  14
ATOM     14  C   UNL     1       6.344  -5.670  24.104  0.00  0.00    +0.092 C 
ATOM     15  C   UNL     1       5.190  -4.995  23.944  0.00  0.00    +0.015 C 
BRANCH  15  16
ATOM     16  C   UNL     1       3.902  -5.702  23.894  0.00  0.00    -0.025 A 
ATOM     17  C   UNL     1       2.762  -5.109  23.342  0.00  0.00    +0.011 A 
ATOM     18  C   UNL     1       1.594  -5.858  23.168  0.00  0.00    +0.046 A 
ATOM     19  C   UNL     1       1.570  -7.190  23.561  0.00  0.00    +0.117 A 
ATOM     20  C   UNL     1       2.676  -7.773  24.177  0.00  0.00    +0.046 A 
ATOM     21  C   UNL     1       3.841  -7.026  24.344  0.00  0.00    +0.011 A 
BRANCH  19  22
ATOM     22  O   UNL     1       0.444  -7.916  23.312  0.00  0.00    -0.507 OA
ATOM     23  H   UNL     1       0.381  -8.626  23.971  0.00  0.00    +0.292 HD
ENDBRANCH  19  22
ENDBRANCH  15  16
ENDBRANCH  12  14
ENDBRANCH  11  12
ENDBRANCH   4  11
BRANCH   3  24
ATOM     24  O   UNL     1       5.982  -1.778  25.022  0.00  0.00    -0.452 OA
BRANCH  24  25
ATOM     25  C   UNL     1       5.267  -1.127  26.024  0.00  0.00    +0.214 A 
ATOM     26  C   UNL     1       4.654   0.228  25.879  0.00  0.00    +0.238 A 
ATOM     27  O   UNL     1       4.885   0.940  24.909  0.00  0.00    -0.283 OA
ATOM     28  C   UNL     1       3.765   0.670  26.990  0.00  0.00    +0.109 A 
ATOM     29  C   UNL     1       3.809  -0.004  28.201  0.00  0.00    +0.147 A 
ATOM     30  C   UNL     1       3.076   0.460  29.311  0.00  0.00    +0.092 A 
ATOM     31  C   UNL     1       2.314   1.617  29.192  0.00  0.00    +0.124 A 
ATOM     32  C   UNL     1       2.210   2.268  27.978  0.00  0.00    +0.091 A 
ATOM     33  O   UNL     1       4.498  -1.174  28.346  0.00  0.00    -0.451 OA
ATOM     34  C   UNL     1       2.898   1.757  26.890  0.00  0.00    +0.135 A 
ATOM     35  C   UNL     1       5.068  -1.739  27.215  0.00  0.00    +0.181 A 
BRANCH  35  36
ATOM     36  C   UNL     1       5.231  -3.181  27.330  0.00  0.00    +0.025 A 
ATOM     37  C   UNL     1       4.018  -3.913  27.294  0.00  0.00    +0.015 A 
ATOM     38  C   UNL     1       4.035  -5.286  27.483  0.00  0.00    +0.050 A 
ATOM     39  C   UNL     1       5.259  -5.924  27.597  0.00  0.00    +0.158 A 
ATOM     40  C   UNL     1       6.457  -5.209  27.624  0.00  0.00    +0.159 A 
ATOM     41  C   UNL     1       6.445  -3.816  27.558  0.00  0.00    +0.060 A 
BRANCH  40  42
ATOM     42  O   UNL     1       7.631  -5.908  27.670  0.00  0.00    -0.503 OA
ATOM     43  H   UNL     1       8.247  -5.455  28.268  0.00  0.00    +0.292 HD
ENDBRANCH  40  42
BRANCH  39  44
ATOM     44  O   UNL     1       5.242  -7.285  27.585  0.00  0.00    -0.503 OA
ATOM     45  H   UNL     1       6.165  -7.514  27.382  0.00  0.00    +0.292 HD
ENDBRANCH  39  44
ENDBRANCH  35  36
BRANCH  34  46
ATOM     46  O   UNL     1       2.595   2.306  25.698  0.00  0.00    -0.506 OA
ATOM     47  H   UNL     1       2.519   3.263  25.841  0.00  0.00    +0.292 HD
ENDBRANCH  34  46
BRANCH  31  48
ATOM     48  O   UNL     1       1.598   2.141  30.219  0.00  0.00    -0.507 OA
ATOM     49  H   UNL     1       1.672   3.111  30.183  0.00  0.00    +0.292 HD
ENDBRANCH  31  48
ENDBRANCH  24  25
ENDBRANCH   3  24
BRANCH   1  50
ATOM     50  C   UNL     1       9.194   0.943  23.101  0.00  0.00    +0.197 C 
BRANCH  50  51
ATOM     51  O   UNL     1       9.002   2.115  22.311  0.00  0.00    -0.346 OA
BRANCH  51  55
ATOM     52  C   UNL     1       8.462   5.225  25.221  0.00  0.00    +0.041 C 
ATOM     53  C   UNL     1       7.434   4.142  24.876  0.00  0.00    +0.149 C 
ATOM     54  O   UNL     1       8.061   3.069  24.169  0.00  0.00    -0.343 OA
ATOM     55  C   UNL     1       8.152   3.193  22.729  0.00  0.00    +0.282 C 
ATOM     56  C   UNL     1       6.711   3.263  22.149  0.00  0.00    +0.201 C 
ATOM     57  C   UNL     1       5.986   4.491  22.713  0.00  0.00    +0.179 C 
ATOM     58  C   UNL     1       6.082   4.581  24.250  0.00  0.00    +0.174 C 
BRANCH  58  59
ATOM     59  O   UNL     1       5.048   3.698  24.752  0.00  0.00    -0.387 OA
ATOM     60  H   UNL     1       5.522   3.032  25.299  0.00  0.00    +0.210 HD
ENDBRANCH  58  59
BRANCH  57  61
ATOM     61  O   UNL     1       4.605   4.515  22.292  0.00  0.00    -0.386 OA
ATOM     62  H   UNL     1       4.086   4.266  23.082  0.00  0.00    +0.210 HD
ENDBRANCH  57  61
BRANCH  56  63
ATOM     63  O   UNL     1       5.931   2.094  22.475  0.00  0.00    -0.384 OA
ATOM     64  H   UNL     1       6.123   1.925  23.417  0.00  0.00    +0.210 HD
ENDBRANCH  56  63
ENDBRANCH  51  55
ENDBRANCH  50  51
ENDBRANCH   1  50
TORSDOF 20
ENDMDL
MODEL 2
REMARK VINA RESULT:      -6.9      1.040      1.711
REMARK  Name = 
REMARK  21 active torsions:
REMARK  status: ('A' for Active; 'I' for Inactive)
REMARK    1  A    between atoms: C_1  and  C_2
REMARK    2  A    between atoms: C_3  and  O_60
REMARK    3  A    between atoms: C_5  and  O_59
REMARK    4  A    between atoms: C_6  and  O_58
REMARK    5  A    between atoms: C_8  and  O_11
REMARK    6  A    between atoms: O_11  and  C_12
REMARK    7  A    between atoms: C_12  and  C_13
REMARK    8  A    between atoms: C_14  and  O_57
REMARK    9  A    between atoms: C_16  and  O_56
REMARK   10  A    between atoms: C_18  and  O_44
REMARK   11  A    between atoms: C_19  and  O_22
REMARK   12  A    between atoms: O_22  and  C_23
REMARK   13  A    between atoms: C_24  and  C_36
REMARK   14  A    between atoms: C_28  and  O_35
REMARK   15  A    between atoms: C_30  and  O_34
REMARK   16  A    between atoms: C_38  and  O_43
REMARK   17  A    between atoms: C_39  and  O_42
REMARK   18  A    between atoms: O_44  and  C_45
REMARK   19  A    between atoms: C_45  and  C_47
REMARK   20  A    between atoms: C_48  and  C_49
REMARK   21  A    between atoms: C_52  and  O_55
REMARK                            x       y       z     vdW  Elec       q    Type
REMARK                         _______ _______ _______ _____ _____    ______ ____
ROOT
ATOM      1  C   UNL     1       8.299  -0.095  22.505  0.00  0.00    +0.179 C 
ATOM      2  O   UNL     1       7.166  -0.496  23.292  0.00  0.00    -0.330 OA
ATOM      3  C   UNL     1       7.394  -1.250  24.492  0.00  0.00    +0.352 C 
ATOM      4  C   UNL     1       8.375  -2.460  24.317  0.00  0.00    +0.276 C 
ATOM      5  C   UNL     1       9.634  -1.955  23.602  0.00  0.00    +0.192 C 
ATOM      6  C   UNL     1       9.270  -1.283  22.275  0.00  0.00    +0.178 C 
ENDROOT
BRANCH   6   7
ATOM      7  O   UNL     1      10.492  -0.902  21.629  0.00  0.00    -0.386 OA
ATOM      8  H   UNL     1      10.919  -0.223  22.183  0.00  0.00    +0.210 HD
ENDBRANCH   6   7
BRANCH   5   9
ATOM      9  O   UNL     1      10.568  -3.017  23.360  0.00  0.00    -0.385 OA
ATOM     10  H   UNL     1      10.119  -3.612  22.723  0.00  0.00    +0.210 HD
ENDBRANCH   5   9
BRANCH   4  11
ATOM     11  O   UNL     1       7.789  -3.568  23.563  0.00  0.00    -0.449 OA
BRANCH  11  12
ATOM     12  C   UNL     1       7.950  -4.814  24.103  0.00  0.00    +0.332 C 
ATOM     13  O   UNL     1       8.995  -5.306  24.499  0.00  0.00    -0.246 OA
BRANCH  12  14
ATOM     14  C   UNL     1       6.647  -5.524  24.119  0.00  0.00    +0.092 C 
ATOM     15  C   UNL     1       5.519  -4.940  23.673  0.00  0.00    +0.015 C 
BRANCH  15  16
ATOM     16  C   UNL     1       4.214  -5.598  23.832  0.00  0.00    -0.025 A 
ATOM     17  C   UNL     1       4.112  -6.957  24.150  0.00  0.00    +0.011 A 
ATOM     18  C   UNL     1       2.865  -7.517  24.447  0.00  0.00    +0.046 A 
ATOM     19  C   UNL     1       1.729  -6.720  24.409  0.00  0.00    +0.117 A 
ATOM     20  C   UNL     1       1.807  -5.383  24.024  0.00  0.00    +0.046 A 
ATOM     21  C   UNL     1       3.052  -4.824  23.735  0.00  0.00    +0.011 A 
BRANCH  19  22
ATOM     22  O   UNL     1       0.539  -7.275  24.773  0.00  0.00    -0.507 OA
ATOM     23  H   UNL     1       0.669  -8.228  24.905  0.00  0.00    +0.292 HD
ENDBRANCH  19  22
ENDBRANCH  15  16
ENDBRANCH  12  14
ENDBRANCH  11  12
ENDBRANCH   4  11
BRANCH   3  24
ATOM     24  O   UNL     1       6.147  -1.769  24.994  0.00  0.00    -0.452 OA
BRANCH  24  25
ATOM     25  C   UNL     1       5.398  -1.133  25.980  0.00  0.00    +0.214 A 
ATOM     26  C   UNL     1       4.790   0.224  25.834  0.00  0.00    +0.238 A 
ATOM     27  O   UNL     1       5.053   0.950  24.883  0.00  0.00    -0.283 OA
ATOM     28  C   UNL     1       3.864   0.650  26.921  0.00  0.00    +0.109 A 
ATOM     29  C   UNL     1       3.868  -0.041  28.124  0.00  0.00    +0.147 A 
ATOM     30  C   UNL     1       3.098   0.407  29.214  0.00  0.00    +0.092 A 
ATOM     31  C   UNL     1       2.340   1.566  29.087  0.00  0.00    +0.124 A 
ATOM     32  C   UNL     1       2.276   2.234  27.880  0.00  0.00    +0.091 A 
ATOM     33  O   UNL     1       4.552  -1.213  28.274  0.00  0.00    -0.451 OA
ATOM     34  C   UNL     1       3.001   1.738  26.808  0.00  0.00    +0.135 A 
ATOM     35  C   UNL     1       5.160  -1.761  27.156  0.00  0.00    +0.181 A 
BRANCH  35  36
ATOM     36  C   UNL     1       5.320  -3.206  27.254  0.00  0.00    +0.025 A 
ATOM     37  C   UNL     1       4.103  -3.930  27.270  0.00  0.00    +0.015 A 
ATOM     38  C   UNL     1       4.120  -5.305  27.450  0.00  0.00    +0.050 A 
ATOM     39  C   UNL     1       5.344  -5.950  27.505  0.00  0.00    +0.158 A 
ATOM     40  C   UNL     1       6.546  -5.242  27.481  0.00  0.00    +0.159 A 
ATOM     41  C   UNL     1       6.539  -3.849  27.424  0.00  0.00    +0.060 A 
BRANCH  40  42
ATOM     42  O   UNL     1       7.717  -5.947  27.470  0.00  0.00    -0.503 OA
ATOM     43  H   UNL     1       8.186  -5.798  28.307  0.00  0.00    +0.292 HD
ENDBRANCH  40  42
BRANCH  39  44
ATOM     44  O   UNL     1       5.318  -7.311  27.486  0.00  0.00    -0.503 OA
ATOM     45  H   UNL     1       4.889  -7.511  26.637  0.00  0.00    +0.292 HD
ENDBRANCH  39  44
ENDBRANCH  35  36
BRANCH  34  46
ATOM     46  O   UNL     1       2.737   2.304  25.614  0.00  0.00    -0.506 OA
ATOM     47  H   UNL     1       2.137   1.703  25.145  0.00  0.00    +0.292 HD
ENDBRANCH  34  46
BRANCH  31  48
ATOM     48  O   UNL     1       1.590   2.075  30.097  0.00  0.00    -0.507 OA
ATOM     49  H   UNL     1       0.957   2.711  29.721  0.00  0.00    +0.292 HD
ENDBRANCH  31  48
ENDBRANCH  24  25
ENDBRANCH   3  24
BRANCH   1  50
ATOM     50  C   UNL     1       9.031   1.217  22.949  0.00  0.00    +0.197 C 
BRANCH  50  51
ATOM     51  O   UNL     1       8.463   1.894  24.069  0.00  0.00    -0.346 OA
BRANCH  51  55
ATOM     52  C   UNL     1       5.002   4.178  22.957  0.00  0.00    +0.041 C 
ATOM     53  C   UNL     1       6.421   4.395  22.419  0.00  0.00    +0.149 C 
ATOM     54  O   UNL     1       7.236   3.252  22.692  0.00  0.00    -0.343 OA
ATOM     55  C   UNL     1       7.915   3.217  23.971  0.00  0.00    +0.282 C 
ATOM     56  C   UNL     1       8.889   4.426  24.043  0.00  0.00    +0.201 C 
ATOM     57  C   UNL     1       8.098   5.735  23.932  0.00  0.00    +0.179 C 
ATOM     58  C   UNL     1       7.130   5.741  22.731  0.00  0.00    +0.174 C 
BRANCH  58  59
ATOM     59  O   UNL     1       7.943   6.096  21.584  0.00  0.00    -0.387 OA
ATOM     60  H   UNL     1       8.277   7.000  21.777  0.00  0.00    +0.210 HD
ENDBRANCH  58  59
BRANCH  57  61
ATOM     61  O   UNL     1       8.986   6.873  23.870  0.00  0.00    -0.386 OA
ATOM     62  H   UNL     1       9.839   6.559  24.230  0.00  0.00    +0.210 HD
ENDBRANCH  57  61
BRANCH  56  63
ATOM     63  O   UNL     1       9.870   4.405  22.985  0.00  0.00    -0.384 OA
ATOM     64  H   UNL     1      10.415   5.201  23.138  0.00  0.00    +0.210 HD
ENDBRANCH  56  63
ENDBRANCH  51  55
ENDBRANCH  50  51
ENDBRANCH   1  50
TORSDOF 20
ENDMDL
MODEL 3
REMARK VINA RESULT:      -6.4      2.754      8.711
REMARK  Name = 
REMARK  21 active torsions:
REMARK  status: ('A' for Active; 'I' for Inactive)
REMARK    1  A    between atoms: C_1  and  C_2
REMARK    2  A    between atoms: C_3  and  O_60
REMARK    3  A    between atoms: C_5  and  O_59
REMARK    4  A    between atoms: C_6  and  O_58
REMARK    5  A    between atoms: C_8  and  O_11
REMARK    6  A    between atoms: O_11  and  C_12
REMARK    7  A    between atoms: C_12  and  C_13
REMARK    8  A    between atoms: C_14  and  O_57
REMARK    9  A    between atoms: C_16  and  O_56
REMARK   10  A    between atoms: C_18  and  O_44
REMARK   11  A    between atoms: C_19  and  O_22
REMARK   12  A    between atoms: O_22  and  C_23
REMARK   13  A    between atoms: C_24  and  C_36
REMARK   14  A    between atoms: C_28  and  O_35
REMARK   15  A    between atoms: C_30  and  O_34
REMARK   16  A    between atoms: C_38  and  O_43
REMARK   17  A    between atoms: C_39  and  O_42
REMARK   18  A    between atoms: O_44  and  C_45
REMARK   19  A    between atoms: C_45  and  C_47
REMARK   20  A    between atoms: C_48  and  C_49
REMARK   21  A    between atoms: C_52  and  O_55
REMARK                            x       y       z     vdW  Elec       q    Type
REMARK                         _______ _______ _______ _____ _____    ______ ____
ROOT
ATOM      1  C   UNL     1       5.480  -1.434  25.642  0.00  0.00    +0.179 C 
ATOM      2  O   UNL     1       6.009  -0.496  24.690  0.00  0.00    -0.330 OA
ATOM      3  C   UNL     1       6.330   0.830  25.137  0.00  0.00    +0.352 C 
ATOM      4  C   UNL     1       5.205   1.513  25.989  0.00  0.00    +0.276 C 
ATOM      5  C   UNL     1       4.773   0.531  27.084  0.00  0.00    +0.192 C 
ATOM      6  C   UNL     1       4.332  -0.802  26.473  0.00  0.00    +0.178 C 
ENDROOT
BRANCH   6   7
ATOM      7  O   UNL     1       3.874  -1.642  27.541  0.00  0.00    -0.386 OA
ATOM      8  H   UNL     1       3.156  -1.169  28.001  0.00  0.00    +0.210 HD
ENDBRANCH   6   7
BRANCH   5   9
ATOM      9  O   UNL     1       3.707   1.065  27.884  0.00  0.00    -0.385 OA
ATOM     10  H   UNL     1       2.952   1.169  27.267  0.00  0.00    +0.210 HD
ENDBRANCH   5   9
BRANCH   4  11
ATOM     11  O   UNL     1       4.043   1.909  25.193  0.00  0.00    -0.449 OA
BRANCH  11  12
ATOM     12  C   UNL     1       3.848   3.255  25.042  0.00  0.00    +0.332 C 
ATOM     13  O   UNL     1       3.893   4.099  25.922  0.00  0.00    -0.246 OA
BRANCH  12  14
ATOM     14  C   UNL     1       3.538   3.558  23.623  0.00  0.00    +0.092 C 
ATOM     15  C   UNL     1       2.270   3.639  23.179  0.00  0.00    +0.015 C 
BRANCH  15  16
ATOM     16  C   UNL     1       1.980   3.792  21.746  0.00  0.00    -0.025 A 
ATOM     17  C   UNL     1       2.061   5.036  21.110  0.00  0.00    +0.011 A 
ATOM     18  C   UNL     1       1.930   5.124  19.721  0.00  0.00    +0.046 A 
ATOM     19  C   UNL     1       1.705   3.972  18.979  0.00  0.00    +0.117 A 
ATOM     20  C   UNL     1       1.551   2.737  19.606  0.00  0.00    +0.046 A 
ATOM     21  C   UNL     1       1.689   2.650  20.991  0.00  0.00    +0.011 A 
BRANCH  19  22
ATOM     22  O   UNL     1       1.656   4.078  17.621  0.00  0.00    -0.507 OA
ATOM     23  H   UNL     1       2.312   4.735  17.337  0.00  0.00    +0.292 HD
ENDBRANCH  19  22
ENDBRANCH  15  16
ENDBRANCH  12  14
ENDBRANCH  11  12
ENDBRANCH   4  11
BRANCH   3  24
ATOM     24  O   UNL     1       6.597   1.681  24.005  0.00  0.00    -0.452 OA
BRANCH  24  25
ATOM     25  C   UNL     1       7.805   2.347  23.821  0.00  0.00    +0.214 A 
ATOM     26  C   UNL     1       8.020   3.799  24.104  0.00  0.00    +0.238 A 
ATOM     27  O   UNL     1       7.088   4.551  24.363  0.00  0.00    -0.283 OA
ATOM     28  C   UNL     1       9.428   4.282  24.032  0.00  0.00    +0.109 A 
ATOM     29  C   UNL     1      10.383   3.492  23.408  0.00  0.00    +0.147 A 
ATOM     30  C   UNL     1      11.694   3.968  23.211  0.00  0.00    +0.092 A 
ATOM     31  C   UNL     1      12.027   5.251  23.634  0.00  0.00    +0.124 A 
ATOM     32  C   UNL     1      11.107   6.029  24.311  0.00  0.00    +0.091 A 
ATOM     33  O   UNL     1      10.115   2.209  23.029  0.00  0.00    -0.451 OA
ATOM     34  C   UNL     1       9.842   5.512  24.538  0.00  0.00    +0.135 A 
ATOM     35  C   UNL     1       8.890   1.666  23.384  0.00  0.00    +0.181 A 
BRANCH  35  36
ATOM     36  C   UNL     1       8.927   0.214  23.485  0.00  0.00    +0.025 A 
ATOM     37  C   UNL     1       9.589  -0.277  24.638  0.00  0.00    +0.015 A 
ATOM     38  C   UNL     1       9.768  -1.642  24.803  0.00  0.00    +0.050 A 
ATOM     39  C   UNL     1       9.197  -2.500  23.880  0.00  0.00    +0.158 A 
ATOM     40  C   UNL     1       8.536  -2.023  22.747  0.00  0.00    +0.159 A 
ATOM     41  C   UNL     1       8.456  -0.652  22.507  0.00  0.00    +0.060 A 
BRANCH  40  42
ATOM     42  O   UNL     1       7.937  -2.926  21.913  0.00  0.00    -0.503 OA
ATOM     43  H   UNL     1       8.236  -3.820  22.144  0.00  0.00    +0.292 HD
ENDBRANCH  40  42
BRANCH  39  44
ATOM     44  O   UNL     1       9.227  -3.828  24.179  0.00  0.00    -0.503 OA
ATOM     45  H   UNL     1      10.144  -3.966  24.472  0.00  0.00    +0.292 HD
ENDBRANCH  39  44
ENDBRANCH  35  36
BRANCH  34  46
ATOM     46  O   UNL     1       9.064   6.224  25.377  0.00  0.00    -0.506 OA
ATOM     47  H   UNL     1       9.532   6.266  26.226  0.00  0.00    +0.292 HD
ENDBRANCH  34  46
BRANCH  31  48
ATOM     48  O   UNL     1      13.260   5.791  23.462  0.00  0.00    -0.507 OA
ATOM     49  H   UNL     1      13.167   6.757  23.397  0.00  0.00    +0.292 HD
ENDBRANCH  31  48
ENDBRANCH  24  25
ENDBRANCH   3  24
BRANCH   1  50
ATOM     50  C   UNL     1       6.524  -2.201  26.522  0.00  0.00    +0.197 C 
BRANCH  50  51
ATOM     51  O   UNL     1       6.687  -3.587  26.225  0.00  0.00    -0.346 OA
BRANCH  51  55
ATOM     52  C   UNL     1       4.044  -6.792  27.306  0.00  0.00    +0.041 C 
ATOM     53  C   UNL     1       4.932  -6.756  26.058  0.00  0.00    +0.149 C 
ATOM     54  O   UNL     1       5.942  -5.753  26.196  0.00  0.00    -0.343 OA
ATOM     55  C   UNL     1       5.600  -4.410  25.777  0.00  0.00    +0.282 C 
ATOM     56  C   UNL     1       5.274  -4.438  24.257  0.00  0.00    +0.201 C 
ATOM     57  C   UNL     1       4.077  -5.363  24.002  0.00  0.00    +0.179 C 
ATOM     58  C   UNL     1       4.246  -6.746  24.665  0.00  0.00    +0.174 C 
BRANCH  58  59
ATOM     59  O   UNL     1       5.075  -7.510  23.752  0.00  0.00    -0.387 OA
ATOM     60  H   UNL     1       5.086  -8.422  24.119  0.00  0.00    +0.210 HD
ENDBRANCH  58  59
BRANCH  57  61
ATOM     61  O   UNL     1       3.828  -5.508  22.587  0.00  0.00    -0.386 OA
ATOM     62  H   UNL     1       3.992  -6.451  22.388  0.00  0.00    +0.210 HD
ENDBRANCH  57  61
BRANCH  56  63
ATOM     63  O   UNL     1       6.383  -4.913  23.467  0.00  0.00    -0.384 OA
ATOM     64  H   UNL     1       6.591  -4.173  22.865  0.00  0.00    +0.210 HD
ENDBRANCH  56  63
ENDBRANCH  51  55
ENDBRANCH  50  51
ENDBRANCH   1  50
TORSDOF 20
ENDMDL
MODEL 4
REMARK VINA RESULT:      -5.8      1.366      2.030
REMARK  Name = 
REMARK  21 active torsions:
REMARK  status: ('A' for Active; 'I' for Inactive)
REMARK    1  A    between atoms: C_1  and  C_2
REMARK    2  A    between atoms: C_3  and  O_60
REMARK    3  A    between atoms: C_5  and  O_59
REMARK    4  A    between atoms: C_6  and  O_58
REMARK    5  A    between atoms: C_8  and  O_11
REMARK    6  A    between atoms: O_11  and  C_12
REMARK    7  A    between atoms: C_12  and  C_13
REMARK    8  A    between atoms: C_14  and  O_57
REMARK    9  A    between atoms: C_16  and  O_56
REMARK   10  A    between atoms: C_18  and  O_44
REMARK   11  A    between atoms: C_19  and  O_22
REMARK   12  A    between atoms: O_22  and  C_23
REMARK   13  A    between atoms: C_24  and  C_36
REMARK   14  A    between atoms: C_28  and  O_35
REMARK   15  A    between atoms: C_30  and  O_34
REMARK   16  A    between atoms: C_38  and  O_43
REMARK   17  A    between atoms: C_39  and  O_42
REMARK   18  A    between atoms: O_44  and  C_45
REMARK   19  A    between atoms: C_45  and  C_47
REMARK   20  A    between atoms: C_48  and  C_49
REMARK   21  A    between atoms: C_52  and  O_55
REMARK                            x       y       z     vdW  Elec       q    Type
REMARK                         _______ _______ _______ _____ _____    ______ ____
ROOT
ATOM      1  C   UNL     1       8.025   2.145  22.710  0.00  0.00    +0.179 C 
ATOM      2  O   UNL     1       6.999   1.416  23.403  0.00  0.00    -0.330 OA
ATOM      3  C   UNL     1       7.384   0.330  24.258  0.00  0.00    +0.352 C 
ATOM      4  C   UNL     1       8.402  -0.671  23.611  0.00  0.00    +0.276 C 
ATOM      5  C   UNL     1       9.555   0.142  23.011  0.00  0.00    +0.192 C 
ATOM      6  C   UNL     1       9.026   1.182  22.019  0.00  0.00    +0.178 C 
ENDROOT
BRANCH   6   7
ATOM      7  O   UNL     1      10.156   1.853  21.445  0.00  0.00    -0.386 OA
ATOM      8  H   UNL     1      10.117   2.786  21.724  0.00  0.00    +0.210 HD
ENDBRANCH   6   7
BRANCH   5   9
ATOM      9  O   UNL     1      10.513  -0.701  22.353  0.00  0.00    -0.385 OA
ATOM     10  H   UNL     1      11.325  -0.641  22.900  0.00  0.00    +0.210 HD
ENDBRANCH   5   9
BRANCH   4  11
ATOM     11  O   UNL     1       7.800  -1.512  22.576  0.00  0.00    -0.449 OA
BRANCH  11  12
ATOM     12  C   UNL     1       7.788  -2.857  22.826  0.00  0.00    +0.332 C 
ATOM     13  O   UNL     1       8.755  -3.559  23.077  0.00  0.00    -0.246 OA
BRANCH  12  14
ATOM     14  C   UNL     1       6.400  -3.372  22.721  0.00  0.00    +0.092 C 
ATOM     15  C   UNL     1       5.771  -3.926  23.774  0.00  0.00    +0.015 C 
BRANCH  15  16
ATOM     16  C   UNL     1       4.456  -4.565  23.617  0.00  0.00    -0.025 A 
ATOM     17  C   UNL     1       4.300  -5.755  22.899  0.00  0.00    +0.011 A 
ATOM     18  C   UNL     1       3.069  -6.419  22.897  0.00  0.00    +0.046 A 
ATOM     19  C   UNL     1       1.999  -5.880  23.600  0.00  0.00    +0.117 A 
ATOM     20  C   UNL     1       2.121  -4.658  24.260  0.00  0.00    +0.046 A 
ATOM     21  C   UNL     1       3.351  -4.002  24.267  0.00  0.00    +0.011 A 
BRANCH  19  22
ATOM     22  O   UNL     1       0.834  -6.585  23.641  0.00  0.00    -0.507 OA
ATOM     23  H   UNL     1       0.770  -7.125  22.837  0.00  0.00    +0.292 HD
ENDBRANCH  19  22
ENDBRANCH  15  16
ENDBRANCH  12  14
ENDBRANCH  11  12
ENDBRANCH   4  11
BRANCH   3  24
ATOM     24  O   UNL     1       6.222  -0.425  24.652  0.00  0.00    -0.452 OA
BRANCH  24  25
ATOM     25  C   UNL     1       5.440  -0.099  25.757  0.00  0.00    +0.214 A 
ATOM     26  C   UNL     1       4.405   0.979  25.769  0.00  0.00    +0.238 A 
ATOM     27  O   UNL     1       4.288   1.773  24.843  0.00  0.00    -0.283 OA
ATOM     28  C   UNL     1       3.539   1.046  26.980  0.00  0.00    +0.109 A 
ATOM     29  C   UNL     1       3.926   0.369  28.127  0.00  0.00    +0.147 A 
ATOM     30  C   UNL     1       3.199   0.508  29.325  0.00  0.00    +0.092 A 
ATOM     31  C   UNL     1       2.092   1.349  29.360  0.00  0.00    +0.124 A 
ATOM     32  C   UNL     1       1.656   1.984  28.214  0.00  0.00    +0.091 A 
ATOM     33  O   UNL     1       4.971  -0.509  28.122  0.00  0.00    -0.451 OA
ATOM     34  C   UNL     1       2.358   1.784  27.036  0.00  0.00    +0.135 A 
ATOM     35  C   UNL     1       5.576  -0.797  26.908  0.00  0.00    +0.181 A 
BRANCH  35  36
ATOM     36  C   UNL     1       6.214  -2.106  26.895  0.00  0.00    +0.025 A 
ATOM     37  C   UNL     1       5.386  -3.167  27.339  0.00  0.00    +0.015 A 
ATOM     38  C   UNL     1       5.906  -4.446  27.457  0.00  0.00    +0.050 A 
ATOM     39  C   UNL     1       7.204  -4.674  27.032  0.00  0.00    +0.158 A 
ATOM     40  C   UNL     1       8.021  -3.636  26.585  0.00  0.00    +0.159 A 
ATOM     41  C   UNL     1       7.548  -2.324  26.578  0.00  0.00    +0.060 A 
BRANCH  40  42
ATOM     42  O   UNL     1       9.268  -3.943  26.117  0.00  0.00    -0.503 OA
ATOM     43  H   UNL     1       9.310  -3.745  25.168  0.00  0.00    +0.292 HD
ENDBRANCH  40  42
BRANCH  39  44
ATOM     44  O   UNL     1       7.611  -5.973  26.981  0.00  0.00    -0.503 OA
ATOM     45  H   UNL     1       7.287  -6.337  27.823  0.00  0.00    +0.292 HD
ENDBRANCH  39  44
ENDBRANCH  35  36
BRANCH  34  46
ATOM     46  O   UNL     1       1.771   2.256  25.920  0.00  0.00    -0.506 OA
ATOM     47  H   UNL     1       1.931   3.213  25.901  0.00  0.00    +0.292 HD
ENDBRANCH  34  46
BRANCH  31  48
ATOM     48  O   UNL     1       1.353   1.554  30.479  0.00  0.00    -0.507 OA
ATOM     49  H   UNL     1       0.688   0.847  30.545  0.00  0.00    +0.292 HD
ENDBRANCH  31  48
ENDBRANCH  24  25
ENDBRANCH   3  24
BRANCH   1  50
ATOM     50  C   UNL     1       8.731   3.291  23.510  0.00  0.00    +0.197 C 
BRANCH  50  51
ATOM     51  O   UNL     1       8.337   4.619  23.169  0.00  0.00    -0.346 OA
BRANCH  51  55
ATOM     52  C   UNL     1       6.972   6.255  26.896  0.00  0.00    +0.041 C 
ATOM     53  C   UNL     1       6.221   5.219  26.053  0.00  0.00    +0.149 C 
ATOM     54  O   UNL     1       7.104   4.621  25.100  0.00  0.00    -0.343 OA
ATOM     55  C   UNL     1       7.253   5.292  23.826  0.00  0.00    +0.282 C 
ATOM     56  C   UNL     1       5.867   5.319  23.121  0.00  0.00    +0.201 C 
ATOM     57  C   UNL     1       4.863   6.095  23.983  0.00  0.00    +0.179 C 
ATOM     58  C   UNL     1       4.847   5.615  25.449  0.00  0.00    +0.174 C 
BRANCH  58  59
ATOM     59  O   UNL     1       3.998   4.440  25.458  0.00  0.00    -0.387 OA
ATOM     60  H   UNL     1       4.383   3.839  24.782  0.00  0.00    +0.210 HD
ENDBRANCH  58  59
BRANCH  57  61
ATOM     61  O   UNL     1       3.536   6.032  23.416  0.00  0.00    -0.386 OA
ATOM     62  H   UNL     1       3.640   5.577  22.557  0.00  0.00    +0.210 HD
ENDBRANCH  57  61
BRANCH  56  63
ATOM     63  O   UNL     1       5.337   3.995  22.900  0.00  0.00    -0.384 OA
ATOM     64  H   UNL     1       4.414   4.143  22.621  0.00  0.00    +0.210 HD
ENDBRANCH  56  63
ENDBRANCH  51  55
ENDBRANCH  50  51
ENDBRANCH   1  50
TORSDOF 20
ENDMDL
MODEL 5
REMARK VINA RESULT:      -5.6      2.087      8.600
REMARK  Name = 
REMARK  21 active torsions:
REMARK  status: ('A' for Active; 'I' for Inactive)
REMARK    1  A    between atoms: C_1  and  C_2
REMARK    2  A    between atoms: C_3  and  O_60
REMARK    3  A    between atoms: C_5  and  O_59
REMARK    4  A    between atoms: C_6  and  O_58
REMARK    5  A    between atoms: C_8  and  O_11
REMARK    6  A    between atoms: O_11  and  C_12
REMARK    7  A    between atoms: C_12  and  C_13
REMARK    8  A    between atoms: C_14  and  O_57
REMARK    9  A    between atoms: C_16  and  O_56
REMARK   10  A    between atoms: C_18  and  O_44
REMARK   11  A    between atoms: C_19  and  O_22
REMARK   12  A    between atoms: O_22  and  C_23
REMARK   13  A    between atoms: C_24  and  C_36
REMARK   14  A    between atoms: C_28  and  O_35
REMARK   15  A    between atoms: C_30  and  O_34
REMARK   16  A    between atoms: C_38  and  O_43
REMARK   17  A    between atoms: C_39  and  O_42
REMARK   18  A    between atoms: O_44  and  C_45
REMARK   19  A    between atoms: C_45  and  C_47
REMARK   20  A    between atoms: C_48  and  C_49
REMARK   21  A    between atoms: C_52  and  O_55
REMARK                            x       y       z     vdW  Elec       q    Type
REMARK                         _______ _______ _______ _____ _____    ______ ____
ROOT
ATOM      1  C   UNL     1       9.499  -1.460  24.370  0.00  0.00    +0.179 C 
ATOM      2  O   UNL     1       8.737  -1.750  25.554  0.00  0.00    -0.330 OA
ATOM      3  C   UNL     1       7.322  -1.511  25.537  0.00  0.00    +0.352 C 
ATOM      4  C   UNL     1       6.911  -0.109  24.969  0.00  0.00    +0.276 C 
ATOM      5  C   UNL     1       7.635   0.096  23.633  0.00  0.00    +0.192 C 
ATOM      6  C   UNL     1       9.148  -0.058  23.807  0.00  0.00    +0.178 C 
ENDROOT
BRANCH   6   7
ATOM      7  O   UNL     1       9.764   0.217  22.541  0.00  0.00    -0.386 OA
ATOM      8  H   UNL     1       9.078   0.125  21.854  0.00  0.00    +0.210 HD
ENDBRANCH   6   7
BRANCH   5   9
ATOM      9  O   UNL     1       7.348   1.384  23.067  0.00  0.00    -0.385 OA
ATOM     10  H   UNL     1       6.394   1.356  22.840  0.00  0.00    +0.210 HD
ENDBRANCH   5   9
BRANCH   4  11
ATOM     11  O   UNL     1       7.230   0.993  25.878  0.00  0.00    -0.449 OA
BRANCH  11  12
ATOM     12  C   UNL     1       6.775   2.229  25.507  0.00  0.00    +0.332 C 
ATOM     13  O   UNL     1       5.642   2.510  25.149  0.00  0.00    -0.246 OA
BRANCH  12  14
ATOM     14  C   UNL     1       7.886   3.210  25.574  0.00  0.00    +0.092 C 
ATOM     15  C   UNL     1       8.058   4.150  24.626  0.00  0.00    +0.015 C 
BRANCH  15  16
ATOM     16  C   UNL     1       9.245   5.017  24.628  0.00  0.00    -0.025 A 
ATOM     17  C   UNL     1       9.357   6.105  25.500  0.00  0.00    +0.011 A 
ATOM     18  C   UNL     1      10.558   6.816  25.585  0.00  0.00    +0.046 A 
ATOM     19  C   UNL     1      11.633   6.444  24.789  0.00  0.00    +0.117 A 
ATOM     20  C   UNL     1      11.512   5.408  23.865  0.00  0.00    +0.046 A 
ATOM     21  C   UNL     1      10.316   4.695  23.785  0.00  0.00    +0.011 A 
BRANCH  19  22
ATOM     22  O   UNL     1      12.813   7.108  24.946  0.00  0.00    -0.507 OA
ATOM     23  H   UNL     1      13.283   6.728  25.706  0.00  0.00    +0.292 HD
ENDBRANCH  19  22
ENDBRANCH  15  16
ENDBRANCH  12  14
ENDBRANCH  11  12
ENDBRANCH   4  11
BRANCH   3  24
ATOM     24  O   UNL     1       6.788  -1.614  26.871  0.00  0.00    -0.452 OA
BRANCH  24  25
ATOM     25  C   UNL     1       5.960  -2.656  27.282  0.00  0.00    +0.214 A 
ATOM     26  C   UNL     1       6.419  -4.061  27.503  0.00  0.00    +0.238 A 
ATOM     27  O   UNL     1       7.538  -4.434  27.172  0.00  0.00    -0.283 OA
ATOM     28  C   UNL     1       5.431  -4.985  28.128  0.00  0.00    +0.109 A 
ATOM     29  C   UNL     1       4.093  -4.621  28.163  0.00  0.00    +0.147 A 
ATOM     30  C   UNL     1       3.115  -5.519  28.633  0.00  0.00    +0.092 A 
ATOM     31  C   UNL     1       3.497  -6.790  29.049  0.00  0.00    +0.124 A 
ATOM     32  C   UNL     1       4.830  -7.149  29.078  0.00  0.00    +0.091 A 
ATOM     33  O   UNL     1       3.682  -3.366  27.817  0.00  0.00    -0.451 OA
ATOM     34  C   UNL     1       5.775  -6.225  28.662  0.00  0.00    +0.135 A 
ATOM     35  C   UNL     1       4.652  -2.417  27.533  0.00  0.00    +0.181 A 
BRANCH  35  36
ATOM     36  C   UNL     1       4.192  -1.056  27.770  0.00  0.00    +0.025 A 
ATOM     37  C   UNL     1       4.224  -0.654  29.128  0.00  0.00    +0.015 A 
ATOM     38  C   UNL     1       3.728   0.589  29.492  0.00  0.00    +0.050 A 
ATOM     39  C   UNL     1       3.308   1.452  28.494  0.00  0.00    +0.158 A 
ATOM     40  C   UNL     1       3.283   1.064  27.154  0.00  0.00    +0.159 A 
ATOM     41  C   UNL     1       3.664  -0.226  26.789  0.00  0.00    +0.060 A 
BRANCH  40  42
ATOM     42  O   UNL     1       2.921   1.990  26.215  0.00  0.00    -0.503 OA
ATOM     43  H   UNL     1       2.211   2.546  26.573  0.00  0.00    +0.292 HD
ENDBRANCH  40  42
BRANCH  39  44
ATOM     44  O   UNL     1       3.013   2.726  28.873  0.00  0.00    -0.503 OA
ATOM     45  H   UNL     1       2.627   2.608  29.758  0.00  0.00    +0.292 HD
ENDBRANCH  39  44
ENDBRANCH  35  36
BRANCH  34  46
ATOM     46  O   UNL     1       7.058  -6.552  28.908  0.00  0.00    -0.506 OA
ATOM     47  H   UNL     1       7.362  -7.081  28.153  0.00  0.00    +0.292 HD
ENDBRANCH  34  46
BRANCH  31  48
ATOM     48  O   UNL     1       2.614  -7.720  29.494  0.00  0.00    -0.507 OA
ATOM     49  H   UNL     1       2.709  -8.521  28.949  0.00  0.00    +0.292 HD
ENDBRANCH  31  48
ENDBRANCH  24  25
ENDBRANCH   3  24
BRANCH   1  50
ATOM     50  C   UNL     1       9.529  -2.573  23.268  0.00  0.00    +0.197 C 
BRANCH  50  51
ATOM     51  O   UNL     1       8.817  -3.771  23.577  0.00  0.00    -0.346 OA
BRANCH  51  55
ATOM     52  C   UNL     1       4.585  -3.310  24.137  0.00  0.00    +0.041 C 
ATOM     53  C   UNL     1       5.313  -4.641  23.921  0.00  0.00    +0.149 C 
ATOM     54  O   UNL     1       6.716  -4.482  24.150  0.00  0.00    -0.343 OA
ATOM     55  C   UNL     1       7.524  -4.060  23.025  0.00  0.00    +0.282 C 
ATOM     56  C   UNL     1       7.423  -5.142  21.914  0.00  0.00    +0.201 C 
ATOM     57  C   UNL     1       5.964  -5.282  21.459  0.00  0.00    +0.179 C 
ATOM     58  C   UNL     1       4.990  -5.460  22.642  0.00  0.00    +0.174 C 
BRANCH  58  59
ATOM     59  O   UNL     1       5.054  -6.868  22.984  0.00  0.00    -0.387 OA
ATOM     60  H   UNL     1       6.013  -7.085  22.997  0.00  0.00    +0.210 HD
ENDBRANCH  58  59
BRANCH  57  61
ATOM     61  O   UNL     1       5.817  -6.367  20.517  0.00  0.00    -0.386 OA
ATOM     62  H   UNL     1       6.391  -6.135  19.760  0.00  0.00    +0.210 HD
ENDBRANCH  57  61
BRANCH  56  63
ATOM     63  O   UNL     1       7.876  -6.436  22.364  0.00  0.00    -0.384 OA
ATOM     64  H   UNL     1       7.822  -7.005  21.573  0.00  0.00    +0.210 HD
ENDBRANCH  56  63
ENDBRANCH  51  55
ENDBRANCH  50  51
ENDBRANCH   1  50
TORSDOF 20
ENDMDL
MODEL 6
REMARK VINA RESULT:      -5.5      1.714      5.573
REMARK  Name = 
REMARK  21 active torsions:
REMARK  status: ('A' for Active; 'I' for Inactive)
REMARK    1  A    between atoms: C_1  and  C_2
REMARK    2  A    between atoms: C_3  and  O_60
REMARK    3  A    between atoms: C_5  and  O_59
REMARK    4  A    between atoms: C_6  and  O_58
REMARK    5  A    between atoms: C_8  and  O_11
REMARK    6  A    between atoms: O_11  and  C_12
REMARK    7  A    between atoms: C_12  and  C_13
REMARK    8  A    between atoms: C_14  and  O_57
REMARK    9  A    between atoms: C_16  and  O_56
REMARK   10  A    between atoms: C_18  and  O_44
REMARK   11  A    between atoms: C_19  and  O_22
REMARK   12  A    between atoms: O_22  and  C_23
REMARK   13  A    between atoms: C_24  and  C_36
REMARK   14  A    between atoms: C_28  and  O_35
REMARK   15  A    between atoms: C_30  and  O_34
REMARK   16  A    between atoms: C_38  and  O_43
REMARK   17  A    between atoms: C_39  and  O_42
REMARK   18  A    between atoms: O_44  and  C_45
REMARK   19  A    between atoms: C_45  and  C_47
REMARK   20  A    between atoms: C_48  and  C_49
REMARK   21  A    between atoms: C_52  and  O_55
REMARK                            x       y       z     vdW  Elec       q    Type
REMARK                         _______ _______ _______ _____ _____    ______ ____
ROOT
ATOM      1  C   UNL     1       4.881   0.533  28.487  0.00  0.00    +0.179 C 
ATOM      2  O   UNL     1       5.057  -0.383  27.394  0.00  0.00    -0.330 OA
ATOM      3  C   UNL     1       3.893  -0.854  26.698  0.00  0.00    +0.352 C 
ATOM      4  C   UNL     1       2.740  -1.356  27.634  0.00  0.00    +0.276 C 
ATOM      5  C   UNL     1       2.487  -0.283  28.698  0.00  0.00    +0.192 C 
ATOM      6  C   UNL     1       3.776   0.041  29.458  0.00  0.00    +0.178 C 
ENDROOT
BRANCH   6   7
ATOM      7  O   UNL     1       3.453   0.994  30.481  0.00  0.00    -0.386 OA
ATOM      8  H   UNL     1       2.524   1.262  30.350  0.00  0.00    +0.210 HD
ENDBRANCH   6   7
BRANCH   5   9
ATOM      9  O   UNL     1       1.472  -0.689  29.629  0.00  0.00    -0.385 OA
ATOM     10  H   UNL     1       1.875  -1.420  30.143  0.00  0.00    +0.210 HD
ENDBRANCH   5   9
BRANCH   4  11
ATOM     11  O   UNL     1       3.044  -2.633  28.282  0.00  0.00    -0.449 OA
BRANCH  11  12
ATOM     12  C   UNL     1       2.044  -3.566  28.271  0.00  0.00    +0.332 C 
ATOM     13  O   UNL     1       1.342  -3.891  29.216  0.00  0.00    -0.246 OA
BRANCH  12  14
ATOM     14  C   UNL     1       1.939  -4.169  26.920  0.00  0.00    +0.092 C 
ATOM     15  C   UNL     1       1.303  -5.338  26.715  0.00  0.00    +0.015 C 
BRANCH  15  16
ATOM     16  C   UNL     1       1.336  -5.996  25.401  0.00  0.00    -0.025 A 
ATOM     17  C   UNL     1       1.474  -5.263  24.217  0.00  0.00    +0.011 A 
ATOM     18  C   UNL     1       1.657  -5.924  22.998  0.00  0.00    +0.046 A 
ATOM     19  C   UNL     1       1.685  -7.312  22.970  0.00  0.00    +0.117 A 
ATOM     20  C   UNL     1       1.478  -8.055  24.130  0.00  0.00    +0.046 A 
ATOM     21  C   UNL     1       1.302  -7.394  25.346  0.00  0.00    +0.011 A 
BRANCH  19  22
ATOM     22  O   UNL     1       1.938  -7.927  21.780  0.00  0.00    -0.507 OA
ATOM     23  H   UNL     1       2.729  -8.482  21.880  0.00  0.00    +0.292 HD
ENDBRANCH  19  22
ENDBRANCH  15  16
ENDBRANCH  12  14
ENDBRANCH  11  12
ENDBRANCH   4  11
BRANCH   3  24
ATOM     24  O   UNL     1       4.248  -1.941  25.821  0.00  0.00    -0.452 OA
BRANCH  24  25
ATOM     25  C   UNL     1       5.427  -1.969  25.081  0.00  0.00    +0.214 A 
ATOM     26  C   UNL     1       6.028  -0.780  24.406  0.00  0.00    +0.238 A 
ATOM     27  O   UNL     1       5.427   0.284  24.317  0.00  0.00    -0.283 OA
ATOM     28  C   UNL     1       7.389  -0.968  23.830  0.00  0.00    +0.109 A 
ATOM     29  C   UNL     1       7.875  -2.254  23.649  0.00  0.00    +0.147 A 
ATOM     30  C   UNL     1       9.103  -2.475  22.995  0.00  0.00    +0.092 A 
ATOM     31  C   UNL     1       9.826  -1.389  22.511  0.00  0.00    +0.124 A 
ATOM     32  C   UNL     1       9.388  -0.098  22.734  0.00  0.00    +0.091 A 
ATOM     33  O   UNL     1       7.228  -3.343  24.157  0.00  0.00    -0.451 OA
ATOM     34  C   UNL     1       8.204   0.089  23.429  0.00  0.00    +0.135 A 
ATOM     35  C   UNL     1       6.120  -3.126  24.962  0.00  0.00    +0.181 A 
BRANCH  35  36
ATOM     36  C   UNL     1       5.884  -4.217  25.898  0.00  0.00    +0.025 A 
ATOM     37  C   UNL     1       5.307  -5.373  25.317  0.00  0.00    +0.015 A 
ATOM     38  C   UNL     1       4.953  -6.446  26.121  0.00  0.00    +0.050 A 
ATOM     39  C   UNL     1       5.272  -6.397  27.468  0.00  0.00    +0.158 A 
ATOM     40  C   UNL     1       5.847  -5.264  28.044  0.00  0.00    +0.159 A 
ATOM     41  C   UNL     1       6.097  -4.132  27.268  0.00  0.00    +0.060 A 
BRANCH  40  42
ATOM     42  O   UNL     1       6.198  -5.311  29.364  0.00  0.00    -0.503 OA
ATOM     43  H   UNL     1       5.969  -4.467  29.784  0.00  0.00    +0.292 HD
ENDBRANCH  40  42
BRANCH  39  44
ATOM     44  O   UNL     1       5.085  -7.542  28.181  0.00  0.00    -0.503 OA
ATOM     45  H   UNL     1       4.170  -7.455  28.500  0.00  0.00    +0.292 HD
ENDBRANCH  39  44
ENDBRANCH  35  36
BRANCH  34  46
ATOM     46  O   UNL     1       7.938   1.358  23.796  0.00  0.00    -0.506 OA
ATOM     47  H   UNL     1       7.891   1.367  24.765  0.00  0.00    +0.292 HD
ENDBRANCH  34  46
BRANCH  31  48
ATOM     48  O   UNL     1      11.004  -1.519  21.851  0.00  0.00    -0.507 OA
ATOM     49  H   UNL     1      11.113  -0.753  21.260  0.00  0.00    +0.292 HD
ENDBRANCH  31  48
ENDBRANCH  24  25
ENDBRANCH   3  24
BRANCH   1  50
ATOM     50  C   UNL     1       4.740   2.048  28.115  0.00  0.00    +0.197 C 
BRANCH  50  51
ATOM     51  O   UNL     1       4.728   2.344  26.719  0.00  0.00    -0.346 OA
BRANCH  51  55
ATOM     52  C   UNL     1       4.749   5.177  23.493  0.00  0.00    +0.041 C 
ATOM     53  C   UNL     1       5.938   4.311  23.922  0.00  0.00    +0.149 C 
ATOM     54  O   UNL     1       5.494   3.234  24.751  0.00  0.00    -0.343 OA
ATOM     55  C   UNL     1       5.394   3.492  26.172  0.00  0.00    +0.282 C 
ATOM     56  C   UNL     1       6.811   3.846  26.707  0.00  0.00    +0.201 C 
ATOM     57  C   UNL     1       7.329   5.107  26.003  0.00  0.00    +0.179 C 
ATOM     58  C   UNL     1       7.208   5.019  24.467  0.00  0.00    +0.174 C 
BRANCH  58  59
ATOM     59  O   UNL     1       8.365   4.260  24.034  0.00  0.00    -0.387 OA
ATOM     60  H   UNL     1       8.842   4.026  24.861  0.00  0.00    +0.210 HD
ENDBRANCH  58  59
BRANCH  57  61
ATOM     61  O   UNL     1       8.692   5.391  26.386  0.00  0.00    -0.386 OA
ATOM     62  H   UNL     1       8.641   5.729  27.302  0.00  0.00    +0.210 HD
ENDBRANCH  57  61
BRANCH  56  63
ATOM     63  O   UNL     1       7.763   2.786  26.484  0.00  0.00    -0.384 OA
ATOM     64  H   UNL     1       8.319   2.782  27.286  0.00  0.00    +0.210 HD
ENDBRANCH  56  63
ENDBRANCH  51  55
ENDBRANCH  50  51
ENDBRANCH   1  50
TORSDOF 20
ENDMDL
MODEL 7
REMARK VINA RESULT:      -5.4      1.898      4.924
REMARK  Name = 
REMARK  21 active torsions:
REMARK  status: ('A' for Active; 'I' for Inactive)
REMARK    1  A    between atoms: C_1  and  C_2
REMARK    2  A    between atoms: C_3  and  O_60
REMARK    3  A    between atoms: C_5  and  O_59
REMARK    4  A    between atoms: C_6  and  O_58
REMARK    5  A    between atoms: C_8  and  O_11
REMARK    6  A    between atoms: O_11  and  C_12
REMARK    7  A    between atoms: C_12  and  C_13
REMARK    8  A    between atoms: C_14  and  O_57
REMARK    9  A    between atoms: C_16  and  O_56
REMARK   10  A    between atoms: C_18  and  O_44
REMARK   11  A    between atoms: C_19  and  O_22
REMARK   12  A    between atoms: O_22  and  C_23
REMARK   13  A    between atoms: C_24  and  C_36
REMARK   14  A    between atoms: C_28  and  O_35
REMARK   15  A    between atoms: C_30  and  O_34
REMARK   16  A    between atoms: C_38  and  O_43
REMARK   17  A    between atoms: C_39  and  O_42
REMARK   18  A    between atoms: O_44  and  C_45
REMARK   19  A    between atoms: C_45  and  C_47
REMARK   20  A    between atoms: C_48  and  C_49
REMARK   21  A    between atoms: C_52  and  O_55
REMARK                            x       y       z     vdW  Elec       q    Type
REMARK                         _______ _______ _______ _____ _____    ______ ____
ROOT
ATOM      1  C   UNL     1       7.587  -0.688  22.353  0.00  0.00    +0.179 C 
ATOM      2  O   UNL     1       6.804  -1.240  23.424  0.00  0.00    -0.330 OA
ATOM      3  C   UNL     1       7.427  -1.435  24.703  0.00  0.00    +0.352 C 
ATOM      4  C   UNL     1       8.822  -2.149  24.638  0.00  0.00    +0.276 C 
ATOM      5  C   UNL     1       9.677  -1.434  23.586  0.00  0.00    +0.192 C 
ATOM      6  C   UNL     1       8.958  -1.404  22.234  0.00  0.00    +0.178 C 
ENDROOT
BRANCH   6   7
ATOM      7  O   UNL     1       9.839  -0.790  21.284  0.00  0.00    -0.386 OA
ATOM      8  H   UNL     1      10.630  -1.354  21.209  0.00  0.00    +0.210 HD
ENDBRANCH   6   7
BRANCH   5   9
ATOM      9  O   UNL     1      10.959  -2.060  23.431  0.00  0.00    -0.385 OA
ATOM     10  H   UNL     1      10.839  -2.975  23.762  0.00  0.00    +0.210 HD
ENDBRANCH   5   9
BRANCH   4  11
ATOM     11  O   UNL     1       8.721  -3.572  24.311  0.00  0.00    -0.449 OA
BRANCH  11  12
ATOM     12  C   UNL     1       9.216  -4.440  25.246  0.00  0.00    +0.332 C 
ATOM     13  O   UNL     1      10.309  -4.984  25.228  0.00  0.00    -0.246 OA
BRANCH  12  14
ATOM     14  C   UNL     1       8.203  -4.661  26.307  0.00  0.00    +0.092 C 
ATOM     15  C   UNL     1       7.443  -5.771  26.339  0.00  0.00    +0.015 C 
BRANCH  15  16
ATOM     16  C   UNL     1       6.344  -5.908  27.306  0.00  0.00    -0.025 A 
ATOM     17  C   UNL     1       6.529  -5.644  28.667  0.00  0.00    +0.011 A 
ATOM     18  C   UNL     1       5.433  -5.633  29.536  0.00  0.00    +0.046 A 
ATOM     19  C   UNL     1       4.163  -5.899  29.040  0.00  0.00    +0.117 A 
ATOM     20  C   UNL     1       3.975  -6.234  27.700  0.00  0.00    +0.046 A 
ATOM     21  C   UNL     1       5.068  -6.238  26.834  0.00  0.00    +0.011 A 
BRANCH  19  22
ATOM     22  O   UNL     1       3.105  -5.809  29.894  0.00  0.00    -0.507 OA
ATOM     23  H   UNL     1       3.283  -6.367  30.669  0.00  0.00    +0.292 HD
ENDBRANCH  19  22
ENDBRANCH  15  16
ENDBRANCH  12  14
ENDBRANCH  11  12
ENDBRANCH   4  11
BRANCH   3  24
ATOM     24  O   UNL     1       6.573  -2.223  25.554  0.00  0.00    -0.452 OA
BRANCH  24  25
ATOM     25  C   UNL     1       5.424  -2.864  25.098  0.00  0.00    +0.214 A 
ATOM     26  C   UNL     1       5.412  -3.934  24.055  0.00  0.00    +0.238 A 
ATOM     27  O   UNL     1       6.411  -4.208  23.400  0.00  0.00    -0.283 OA
ATOM     28  C   UNL     1       4.113  -4.631  23.843  0.00  0.00    +0.109 A 
ATOM     29  C   UNL     1       2.951  -4.064  24.345  0.00  0.00    +0.147 A 
ATOM     30  C   UNL     1       1.693  -4.629  24.059  0.00  0.00    +0.092 A 
ATOM     31  C   UNL     1       1.617  -5.758  23.250  0.00  0.00    +0.124 A 
ATOM     32  C   UNL     1       2.766  -6.371  22.790  0.00  0.00    +0.091 A 
ATOM     33  O   UNL     1       2.983  -2.992  25.188  0.00  0.00    -0.451 OA
ATOM     34  C   UNL     1       3.992  -5.824  23.133  0.00  0.00    +0.135 A 
ATOM     35  C   UNL     1       4.219  -2.543  25.626  0.00  0.00    +0.181 A 
BRANCH  35  36
ATOM     36  C   UNL     1       4.146  -1.856  26.908  0.00  0.00    +0.025 A 
ATOM     37  C   UNL     1       4.385  -0.461  26.840  0.00  0.00    +0.015 A 
ATOM     38  C   UNL     1       4.430   0.289  28.005  0.00  0.00    +0.050 A 
ATOM     39  C   UNL     1       4.134  -0.335  29.206  0.00  0.00    +0.158 A 
ATOM     40  C   UNL     1       3.890  -1.707  29.278  0.00  0.00    +0.159 A 
ATOM     41  C   UNL     1       3.962  -2.494  28.128  0.00  0.00    +0.060 A 
BRANCH  40  42
ATOM     42  O   UNL     1       3.537  -2.243  30.484  0.00  0.00    -0.503 OA
ATOM     43  H   UNL     1       2.578  -2.389  30.500  0.00  0.00    +0.292 HD
ENDBRANCH  40  42
BRANCH  39  44
ATOM     44  O   UNL     1       3.998   0.471  30.295  0.00  0.00    -0.503 OA
ATOM     45  H   UNL     1       4.624   1.193  30.113  0.00  0.00    +0.292 HD
ENDBRANCH  39  44
ENDBRANCH  35  36
BRANCH  34  46
ATOM     46  O   UNL     1       5.069  -6.577  22.835  0.00  0.00    -0.506 OA
ATOM     47  H   UNL     1       4.737  -7.401  22.445  0.00  0.00    +0.292 HD
ENDBRANCH  34  46
BRANCH  31  48
ATOM     48  O   UNL     1       0.443  -6.348  22.910  0.00  0.00    -0.507 OA
ATOM     49  H   UNL     1       0.210  -6.073  22.005  0.00  0.00    +0.292 HD
ENDBRANCH  31  48
ENDBRANCH  24  25
ENDBRANCH   3  24
BRANCH   1  50
ATOM     50  C   UNL     1       7.705   0.874  22.307  0.00  0.00    +0.197 C 
BRANCH  50  51
ATOM     51  O   UNL     1       7.922   1.516  23.563  0.00  0.00    -0.346 OA
BRANCH  51  55
ATOM     52  C   UNL     1       5.139   4.725  22.939  0.00  0.00    +0.041 C 
ATOM     53  C   UNL     1       6.604   4.720  22.491  0.00  0.00    +0.149 C 
ATOM     54  O   UNL     1       7.125   3.389  22.510  0.00  0.00    -0.343 OA
ATOM     55  C   UNL     1       7.688   2.919  23.759  0.00  0.00    +0.282 C 
ATOM     56  C   UNL     1       8.899   3.823  24.123  0.00  0.00    +0.201 C 
ATOM     57  C   UNL     1       8.427   5.272  24.300  0.00  0.00    +0.179 C 
ATOM     58  C   UNL     1       7.570   5.764  23.115  0.00  0.00    +0.174 C 
BRANCH  58  59
ATOM     59  O   UNL     1       8.520   6.162  22.094  0.00  0.00    -0.387 OA
ATOM     60  H   UNL     1       9.403   6.076  22.518  0.00  0.00    +0.210 HD
ENDBRANCH  58  59
BRANCH  57  61
ATOM     61  O   UNL     1       9.546   6.159  24.516  0.00  0.00    -0.386 OA
ATOM     62  H   UNL     1       9.202   6.883  25.075  0.00  0.00    +0.210 HD
ENDBRANCH  57  61
BRANCH  56  63
ATOM     63  O   UNL     1       9.922   3.808  23.106  0.00  0.00    -0.384 OA
ATOM     64  H   UNL     1      10.112   4.750  22.933  0.00  0.00    +0.210 HD
ENDBRANCH  56  63
ENDBRANCH  51  55
ENDBRANCH  50  51
ENDBRANCH   1  50
TORSDOF 20
ENDMDL
MODEL 8
REMARK VINA RESULT:      -5.4      2.149      7.561
REMARK  Name = 
REMARK  21 active torsions:
REMARK  status: ('A' for Active; 'I' for Inactive)
REMARK    1  A    between atoms: C_1  and  C_2
REMARK    2  A    between atoms: C_3  and  O_60
REMARK    3  A    between atoms: C_5  and  O_59
REMARK    4  A    between atoms: C_6  and  O_58
REMARK    5  A    between atoms: C_8  and  O_11
REMARK    6  A    between atoms: O_11  and  C_12
REMARK    7  A    between atoms: C_12  and  C_13
REMARK    8  A    between atoms: C_14  and  O_57
REMARK    9  A    between atoms: C_16  and  O_56
REMARK   10  A    between atoms: C_18  and  O_44
REMARK   11  A    between atoms: C_19  and  O_22
REMARK   12  A    between atoms: O_22  and  C_23
REMARK   13  A    between atoms: C_24  and  C_36
REMARK   14  A    between atoms: C_28  and  O_35
REMARK   15  A    between atoms: C_30  and  O_34
REMARK   16  A    between atoms: C_38  and  O_43
REMARK   17  A    between atoms: C_39  and  O_42
REMARK   18  A    between atoms: O_44  and  C_45
REMARK   19  A    between atoms: C_45  and  C_47
REMARK   20  A    between atoms: C_48  and  C_49
REMARK   21  A    between atoms: C_52  and  O_55
REMARK                            x       y       z     vdW  Elec       q    Type
REMARK                         _______ _______ _______ _____ _____    ______ ____
ROOT
ATOM      1  C   UNL     1       9.553  -0.779  23.626  0.00  0.00    +0.179 C 
ATOM      2  O   UNL     1       8.825  -1.088  24.825  0.00  0.00    -0.330 OA
ATOM      3  C   UNL     1       7.480  -0.605  24.957  0.00  0.00    +0.352 C 
ATOM      4  C   UNL     1       7.301   0.911  24.601  0.00  0.00    +0.276 C 
ATOM      5  C   UNL     1       7.966   1.165  23.243  0.00  0.00    +0.192 C 
ATOM      6  C   UNL     1       9.433   0.726  23.269  0.00  0.00    +0.178 C 
ENDROOT
BRANCH   6   7
ATOM      7  O   UNL     1      10.011   1.056  21.998  0.00  0.00    -0.386 OA
ATOM      8  H   UNL     1       9.642   0.440  21.338  0.00  0.00    +0.210 HD
ENDBRANCH   6   7
BRANCH   5   9
ATOM      9  O   UNL     1       7.888   2.547  22.864  0.00  0.00    -0.385 OA
ATOM     10  H   UNL     1       7.577   3.015  23.668  0.00  0.00    +0.210 HD
ENDBRANCH   5   9
BRANCH   4  11
ATOM     11  O   UNL     1       7.873   1.807  25.606  0.00  0.00    -0.449 OA
BRANCH  11  12
ATOM     12  C   UNL     1       6.976   2.507  26.367  0.00  0.00    +0.332 C 
ATOM     13  O   UNL     1       7.137   2.888  27.516  0.00  0.00    -0.246 OA
BRANCH  12  14
ATOM     14  C   UNL     1       5.730   2.727  25.593  0.00  0.00    +0.092 C 
ATOM     15  C   UNL     1       5.389   3.945  25.132  0.00  0.00    +0.015 C 
BRANCH  15  16
ATOM     16  C   UNL     1       4.082   4.174  24.499  0.00  0.00    -0.025 A 
ATOM     17  C   UNL     1       3.456   5.424  24.542  0.00  0.00    +0.011 A 
ATOM     18  C   UNL     1       2.292   5.653  23.802  0.00  0.00    +0.046 A 
ATOM     19  C   UNL     1       1.754   4.627  23.036  0.00  0.00    +0.117 A 
ATOM     20  C   UNL     1       2.327   3.357  23.040  0.00  0.00    +0.046 A 
ATOM     21  C   UNL     1       3.492   3.132  23.773  0.00  0.00    +0.011 A 
BRANCH  19  22
ATOM     22  O   UNL     1       0.662   4.900  22.268  0.00  0.00    -0.507 OA
ATOM     23  H   UNL     1       0.672   4.313  21.495  0.00  0.00    +0.292 HD
ENDBRANCH  19  22
ENDBRANCH  15  16
ENDBRANCH  12  14
ENDBRANCH  11  12
ENDBRANCH   4  11
BRANCH   3  24
ATOM     24  O   UNL     1       7.018  -0.792  26.309  0.00  0.00    -0.452 OA
BRANCH  24  25
ATOM     25  C   UNL     1       6.305  -1.914  26.722  0.00  0.00    +0.214 A 
ATOM     26  C   UNL     1       6.844  -3.307  26.712  0.00  0.00    +0.238 A 
ATOM     27  O   UNL     1       7.910  -3.583  26.174  0.00  0.00    -0.283 OA
ATOM     28  C   UNL     1       6.002  -4.344  27.373  0.00  0.00    +0.109 A 
ATOM     29  C   UNL     1       4.674  -4.059  27.653  0.00  0.00    +0.147 A 
ATOM     30  C   UNL     1       3.817  -5.053  28.163  0.00  0.00    +0.092 A 
ATOM     31  C   UNL     1       4.307  -6.338  28.372  0.00  0.00    +0.124 A 
ATOM     32  C   UNL     1       5.640  -6.626  28.156  0.00  0.00    +0.091 A 
ATOM     33  O   UNL     1       4.167  -2.799  27.517  0.00  0.00    -0.451 OA
ATOM     34  C   UNL     1       6.472  -5.613  27.706  0.00  0.00    +0.135 A 
ATOM     35  C   UNL     1       5.044  -1.775  27.196  0.00  0.00    +0.181 A 
BRANCH  35  36
ATOM     36  C   UNL     1       4.577  -0.472  27.651  0.00  0.00    +0.025 A 
ATOM     37  C   UNL     1       5.205  -0.004  28.832  0.00  0.00    +0.015 A 
ATOM     38  C   UNL     1       4.784   1.182  29.414  0.00  0.00    +0.050 A 
ATOM     39  C   UNL     1       3.825   1.936  28.759  0.00  0.00    +0.158 A 
ATOM     40  C   UNL     1       3.209   1.484  27.591  0.00  0.00    +0.159 A 
ATOM     41  C   UNL     1       3.537   0.235  27.063  0.00  0.00    +0.060 A 
BRANCH  40  42
ATOM     42  O   UNL     1       2.320   2.309  26.962  0.00  0.00    -0.503 OA
ATOM     43  H   UNL     1       1.697   1.772  26.446  0.00  0.00    +0.292 HD
ENDBRANCH  40  42
BRANCH  39  44
ATOM     44  O   UNL     1       3.580   3.179  29.257  0.00  0.00    -0.503 OA
ATOM     45  H   UNL     1       2.610   3.243  29.222  0.00  0.00    +0.292 HD
ENDBRANCH  39  44
ENDBRANCH  35  36
BRANCH  34  46
ATOM     46  O   UNL     1       7.790  -5.894  27.715  0.00  0.00    -0.506 OA
ATOM     47  H   UNL     1       7.961  -6.414  28.516  0.00  0.00    +0.292 HD
ENDBRANCH  34  46
BRANCH  31  48
ATOM     48  O   UNL     1       3.540  -7.356  28.839  0.00  0.00    -0.507 OA
ATOM     49  H   UNL     1       3.420  -8.005  28.124  0.00  0.00    +0.292 HD
ENDBRANCH  31  48
ENDBRANCH  24  25
ENDBRANCH   3  24
BRANCH   1  50
ATOM     50  C   UNL     1       9.309  -1.721  22.398  0.00  0.00    +0.197 C 
BRANCH  50  51
ATOM     51  O   UNL     1       7.944  -2.013  22.102  0.00  0.00    -0.346 OA
BRANCH  51  55
ATOM     52  C   UNL     1       8.375  -5.832  24.015  0.00  0.00    +0.041 C 
ATOM     53  C   UNL     1       7.485  -5.541  22.802  0.00  0.00    +0.149 C 
ATOM     54  O   UNL     1       7.859  -4.301  22.198  0.00  0.00    -0.343 OA
ATOM     55  C   UNL     1       7.239  -3.100  22.719  0.00  0.00    +0.282 C 
ATOM     56  C   UNL     1       5.704  -3.204  22.496  0.00  0.00    +0.201 C 
ATOM     57  C   UNL     1       5.153  -4.420  23.251  0.00  0.00    +0.179 C 
ATOM     58  C   UNL     1       5.949  -5.709  22.957  0.00  0.00    +0.174 C 
BRANCH  58  59
ATOM     59  O   UNL     1       5.424  -6.207  21.701  0.00  0.00    -0.387 OA
ATOM     60  H   UNL     1       4.857  -6.972  21.945  0.00  0.00    +0.210 HD
ENDBRANCH  58  59
BRANCH  57  61
ATOM     61  O   UNL     1       3.751  -4.617  22.963  0.00  0.00    -0.386 OA
ATOM     62  H   UNL     1       3.274  -3.994  23.547  0.00  0.00    +0.210 HD
ENDBRANCH  57  61
BRANCH  56  63
ATOM     63  O   UNL     1       5.360  -3.348  21.103  0.00  0.00    -0.384 OA
ATOM     64  H   UNL     1       4.656  -2.687  20.953  0.00  0.00    +0.210 HD
ENDBRANCH  56  63
ENDBRANCH  51  55
ENDBRANCH  50  51
ENDBRANCH   1  50
TORSDOF 20
ENDMDL
MODEL 9
REMARK VINA RESULT:      -5.4      2.556      9.256
REMARK  Name = 
REMARK  21 active torsions:
REMARK  status: ('A' for Active; 'I' for Inactive)
REMARK    1  A    between atoms: C_1  and  C_2
REMARK    2  A    between atoms: C_3  and  O_60
REMARK    3  A    between atoms: C_5  and  O_59
REMARK    4  A    between atoms: C_6  and  O_58
REMARK    5  A    between atoms: C_8  and  O_11
REMARK    6  A    between atoms: O_11  and  C_12
REMARK    7  A    between atoms: C_12  and  C_13
REMARK    8  A    between atoms: C_14  and  O_57
REMARK    9  A    between atoms: C_16  and  O_56
REMARK   10  A    between atoms: C_18  and  O_44
REMARK   11  A    between atoms: C_19  and  O_22
REMARK   12  A    between atoms: O_22  and  C_23
REMARK   13  A    between atoms: C_24  and  C_36
REMARK   14  A    between atoms: C_28  and  O_35
REMARK   15  A    between atoms: C_30  and  O_34
REMARK   16  A    between atoms: C_38  and  O_43
REMARK   17  A    between atoms: C_39  and  O_42
REMARK   18  A    between atoms: O_44  and  C_45
REMARK   19  A    between atoms: C_45  and  C_47
REMARK   20  A    between atoms: C_48  and  C_49
REMARK   21  A    between atoms: C_52  and  O_55
REMARK                            x       y       z     vdW  Elec       q    Type
REMARK                         _______ _______ _______ _____ _____    ______ ____
ROOT
ATOM      1  C   UNL     1       3.493  -2.388  27.093  0.00  0.00    +0.179 C 
ATOM      2  O   UNL     1       3.835  -1.485  26.029  0.00  0.00    -0.330 OA
ATOM      3  C   UNL     1       4.919  -0.565  26.228  0.00  0.00    +0.352 C 
ATOM      4  C   UNL     1       4.863   0.212  27.588  0.00  0.00    +0.276 C 
ATOM      5  C   UNL     1       4.643  -0.807  28.713  0.00  0.00    +0.192 C 
ATOM      6  C   UNL     1       3.386  -1.640  28.449  0.00  0.00    +0.178 C 
ENDROOT
BRANCH   6   7
ATOM      7  O   UNL     1       3.200  -2.518  29.568  0.00  0.00    -0.386 OA
ATOM      8  H   UNL     1       4.079  -2.848  29.832  0.00  0.00    +0.210 HD
ENDBRANCH   6   7
BRANCH   5   9
ATOM      9  O   UNL     1       4.532  -0.167  29.993  0.00  0.00    -0.385 OA
ATOM     10  H   UNL     1       3.598  -0.296  30.263  0.00  0.00    +0.210 HD
ENDBRANCH   5   9
BRANCH   4  11
ATOM     11  O   UNL     1       3.808   1.225  27.626  0.00  0.00    -0.449 OA
BRANCH  11  12
ATOM     12  C   UNL     1       4.059   2.325  28.399  0.00  0.00    +0.332 C 
ATOM     13  O   UNL     1       3.511   2.615  29.452  0.00  0.00    -0.246 OA
BRANCH  12  14
ATOM     14  C   UNL     1       5.100   3.163  27.755  0.00  0.00    +0.092 C 
ATOM     15  C   UNL     1       4.938   4.488  27.587  0.00  0.00    +0.015 C 
BRANCH  15  16
ATOM     16  C   UNL     1       5.909   5.277  26.816  0.00  0.00    -0.025 A 
ATOM     17  C   UNL     1       7.277   5.241  27.106  0.00  0.00    +0.011 A 
ATOM     18  C   UNL     1       8.192   5.879  26.260  0.00  0.00    +0.046 A 
ATOM     19  C   UNL     1       7.730   6.559  25.141  0.00  0.00    +0.117 A 
ATOM     20  C   UNL     1       6.366   6.663  24.880  0.00  0.00    +0.046 A 
ATOM     21  C   UNL     1       5.456   6.021  25.720  0.00  0.00    +0.011 A 
BRANCH  19  22
ATOM     22  O   UNL     1       8.648   7.108  24.296  0.00  0.00    -0.507 OA
ATOM     23  H   UNL     1       9.073   6.394  23.793  0.00  0.00    +0.292 HD
ENDBRANCH  19  22
ENDBRANCH  15  16
ENDBRANCH  12  14
ENDBRANCH  11  12
ENDBRANCH   4  11
BRANCH   3  24
ATOM     24  O   UNL     1       4.940   0.411  25.169  0.00  0.00    -0.452 OA
BRANCH  24  25
ATOM     25  C   UNL     1       6.076   1.137  24.824  0.00  0.00    +0.214 A 
ATOM     26  C   UNL     1       7.471   0.606  24.897  0.00  0.00    +0.238 A 
ATOM     27  O   UNL     1       7.726  -0.466  25.433  0.00  0.00    -0.283 OA
ATOM     28  C   UNL     1       8.534   1.465  24.303  0.00  0.00    +0.109 A 
ATOM     29  C   UNL     1       8.254   2.796  24.029  0.00  0.00    +0.147 A 
ATOM     30  C   UNL     1       9.267   3.667  23.583  0.00  0.00    +0.092 A 
ATOM     31  C   UNL     1      10.564   3.188  23.432  0.00  0.00    +0.124 A 
ATOM     32  C   UNL     1      10.850   1.854  23.643  0.00  0.00    +0.091 A 
ATOM     33  O   UNL     1       6.985   3.292  24.108  0.00  0.00    -0.451 OA
ATOM     34  C   UNL     1       9.821   1.008  24.027  0.00  0.00    +0.135 A 
ATOM     35  C   UNL     1       5.952   2.404  24.363  0.00  0.00    +0.181 A 
BRANCH  35  36
ATOM     36  C   UNL     1       4.671   2.869  23.849  0.00  0.00    +0.025 A 
ATOM     37  C   UNL     1       4.702   3.300  22.500  0.00  0.00    +0.015 A 
ATOM     38  C   UNL     1       3.566   3.848  21.924  0.00  0.00    +0.050 A 
ATOM     39  C   UNL     1       2.393   3.862  22.659  0.00  0.00    +0.158 A 
ATOM     40  C   UNL     1       2.355   3.432  23.986  0.00  0.00    +0.159 A 
ATOM     41  C   UNL     1       3.519   2.993  24.615  0.00  0.00    +0.060 A 
BRANCH  40  42
ATOM     42  O   UNL     1       1.149   3.411  24.629  0.00  0.00    -0.503 OA
ATOM     43  H   UNL     1       1.098   4.168  25.234  0.00  0.00    +0.292 HD
ENDBRANCH  40  42
BRANCH  39  44
ATOM     44  O   UNL     1       1.261   4.227  21.996  0.00  0.00    -0.503 OA
ATOM     45  H   UNL     1       0.805   3.379  21.858  0.00  0.00    +0.292 HD
ENDBRANCH  39  44
ENDBRANCH  35  36
BRANCH  34  46
ATOM     46  O   UNL     1      10.112  -0.307  24.013  0.00  0.00    -0.506 OA
ATOM     47  H   UNL     1       9.467  -0.731  23.425  0.00  0.00    +0.292 HD
ENDBRANCH  34  46
BRANCH  31  48
ATOM     48  O   UNL     1      11.599   3.968  23.030  0.00  0.00    -0.507 OA
ATOM     49  H   UNL     1      11.257   4.858  22.832  0.00  0.00    +0.292 HD
ENDBRANCH  31  48
ENDBRANCH  24  25
ENDBRANCH   3  24
BRANCH   1  50
ATOM     50  C   UNL     1       4.330  -3.709  27.187  0.00  0.00    +0.197 C 
BRANCH  50  51
ATOM     51  O   UNL     1       5.746  -3.552  27.105  0.00  0.00    -0.346 OA
BRANCH  51  55
ATOM     52  C   UNL     1       9.588  -5.010  25.864  0.00  0.00    +0.041 C 
ATOM     53  C   UNL     1       8.834  -3.840  25.225  0.00  0.00    +0.149 C 
ATOM     54  O   UNL     1       7.797  -3.383  26.097  0.00  0.00    -0.343 OA
ATOM     55  C   UNL     1       6.510  -4.040  25.993  0.00  0.00    +0.282 C 
ATOM     56  C   UNL     1       5.955  -3.808  24.559  0.00  0.00    +0.201 C 
ATOM     57  C   UNL     1       6.914  -4.417  23.528  0.00  0.00    +0.179 C 
ATOM     58  C   UNL     1       8.376  -3.976  23.747  0.00  0.00    +0.174 C 
BRANCH  58  59
ATOM     59  O   UNL     1       8.480  -2.671  23.124  0.00  0.00    -0.387 OA
ATOM     60  H   UNL     1       8.233  -2.815  22.183  0.00  0.00    +0.210 HD
ENDBRANCH  58  59
BRANCH  57  61
ATOM     61  O   UNL     1       6.490  -4.110  22.182  0.00  0.00    -0.386 OA
ATOM     62  H   UNL     1       7.167  -4.505  21.598  0.00  0.00    +0.210 HD
ENDBRANCH  57  61
BRANCH  56  63
ATOM     63  O   UNL     1       5.798  -2.408  24.251  0.00  0.00    -0.384 OA
ATOM     64  H   UNL     1       4.843  -2.299  24.076  0.00  0.00    +0.210 HD
ENDBRANCH  56  63
ENDBRANCH  51  55
ENDBRANCH  50  51
ENDBRANCH   1  50
TORSDOF 20
ENDMDL
