MODEL 1
REMARK VINA RESULT:      -7.3      0.000      0.000
REMARK  Name = 
REMARK  14 active torsions:
REMARK  status: ('A' for Active; 'I' for Inactive)
REMARK    1  A    between atoms: C_1  and  O_2
REMARK    2  A    between atoms: O_2  and  C_3
REMARK    3  A    between atoms: C_4  and  O_38
REMARK    4  A    between atoms: C_6  and  C_9
REMARK    5  A    between atoms: C_10  and  O_36
REMARK    6  A    between atoms: C_14  and  O_35
REMARK    7  A    between atoms: C_16  and  O_20
REMARK    8  A    between atoms: O_20  and  C_21
REMARK    9  A    between atoms: C_23  and  O_34
REMARK   10  A    between atoms: C_24  and  O_33
REMARK   11  A    between atoms: C_26  and  O_32
REMARK   12  A    between atoms: C_28  and  C_30
REMARK   13  A    between atoms: C_30  and  O_31
REMARK   14  A    between atoms: O_36  and  C_37
REMARK                            x       y       z     vdW  Elec       q    Type
REMARK                         _______ _______ _______ _____ _____    ______ ____
ROOT
ATOM      1  C   UNL     1       7.035  -3.392  24.593  0.00  0.00    +0.181 A 
ATOM      2  O   UNL     1       6.299  -2.197  24.634  0.00  0.00    -0.451 OA
ATOM      3  C   UNL     1       6.936  -0.993  24.439  0.00  0.00    +0.147 A 
ATOM      4  C   UNL     1       8.295  -0.918  24.207  0.00  0.00    +0.109 A 
ATOM      5  C   UNL     1       8.917   0.322  24.012  0.00  0.00    +0.135 A 
ATOM      6  C   UNL     1       8.175   1.499  24.026  0.00  0.00    +0.092 A 
ATOM      7  C   UNL     1       6.793   1.448  24.201  0.00  0.00    +0.131 A 
ATOM      8  C   UNL     1       9.061  -2.155  24.124  0.00  0.00    +0.238 A 
ATOM      9  O   UNL     1      10.247  -2.096  23.801  0.00  0.00    -0.283 OA
ATOM     10  C   UNL     1       6.180   0.194  24.431  0.00  0.00    +0.093 A 
ATOM     11  C   UNL     1       8.371  -3.452  24.372  0.00  0.00    +0.211 A 
ENDROOT
BRANCH   1  15
ATOM     12  C   UNL     1       4.432  -6.845  24.579  0.00  0.00    +0.161 A 
ATOM     13  C   UNL     1       4.552  -6.014  23.467  0.00  0.00    +0.050 A 
ATOM     14  C   UNL     1       5.387  -4.890  23.510  0.00  0.00    +0.015 A 
ATOM     15  C   UNL     1       6.145  -4.580  24.651  0.00  0.00    +0.025 A 
ATOM     16  C   UNL     1       5.995  -5.388  25.786  0.00  0.00    +0.060 A 
ATOM     17  C   UNL     1       5.136  -6.498  25.740  0.00  0.00    +0.159 A 
BRANCH  12  19
ATOM     18  C   UNL     1       2.332  -7.874  24.133  0.00  0.00    +0.277 C 
ATOM     19  O   UNL     1       3.655  -7.975  24.655  0.00  0.00    -0.491 OA
ENDBRANCH  12  19
BRANCH  17  20
ATOM     20  O   UNL     1       4.988  -7.265  26.866  0.00  0.00    -0.503 OA
ATOM     21  H   UNL     1       5.026  -6.645  27.615  0.00  0.00    +0.292 HD
ENDBRANCH  17  20
ENDBRANCH   1  15
BRANCH   5  22
ATOM     22  O   UNL     1      10.264   0.455  23.783  0.00  0.00    -0.506 OA
ATOM     23  H   UNL     1      10.734   0.262  24.629  0.00  0.00    +0.292 HD
ENDBRANCH   5  22
BRANCH  11  24
ATOM     24  O   UNL     1       9.251  -4.492  24.294  0.00  0.00    -0.488 OA
ATOM     25  C   UNL     1       9.771  -5.254  25.358  0.00  0.00    +0.277 C 
ENDBRANCH  11  24
BRANCH   7  26
ATOM     26  O   UNL     1       5.938   2.518  24.100  0.00  0.00    -0.461 OA
BRANCH  26  27
ATOM     27  C   UNL     1       5.479   2.953  22.801  0.00  0.00    +0.339 C 
ATOM     28  O   UNL     1       6.388   3.954  22.293  0.00  0.00    -0.331 OA
ATOM     29  C   UNL     1       6.402   5.151  23.093  0.00  0.00    +0.179 C 
ATOM     30  C   UNL     1       5.029   5.850  23.037  0.00  0.00    +0.177 C 
ATOM     31  C   UNL     1       3.935   4.891  23.520  0.00  0.00    +0.180 C 
ATOM     32  C   UNL     1       4.033   3.525  22.815  0.00  0.00    +0.214 C 
BRANCH  30  33
ATOM     33  O   UNL     1       4.710   6.241  21.698  0.00  0.00    -0.386 OA
ATOM     34  H   UNL     1       4.901   7.194  21.613  0.00  0.00    +0.210 HD
ENDBRANCH  30  33
BRANCH  31  35
ATOM     35  O   UNL     1       3.941   4.744  24.945  0.00  0.00    -0.386 OA
ATOM     36  H   UNL     1       3.022   4.713  25.268  0.00  0.00    +0.210 HD
ENDBRANCH  31  35
BRANCH  32  37
ATOM     37  O   UNL     1       3.073   2.615  23.366  0.00  0.00    -0.383 OA
ATOM     38  H   UNL     1       2.203   3.059  23.343  0.00  0.00    +0.210 HD
ENDBRANCH  32  37
BRANCH  29  39
ATOM     39  C   UNL     1       7.570   6.033  22.624  0.00  0.00    +0.190 C 
BRANCH  39  40
ATOM     40  O   UNL     1       7.581   6.274  21.223  0.00  0.00    -0.392 OA
ATOM     41  H   UNL     1       8.202   5.626  20.838  0.00  0.00    +0.210 HD
ENDBRANCH  39  40
ENDBRANCH  29  39
ENDBRANCH  26  27
ENDBRANCH   7  26
TORSDOF 12
ENDMDL
MODEL 2
REMARK VINA RESULT:      -7.3      1.892      9.080
REMARK  Name = 
REMARK  14 active torsions:
REMARK  status: ('A' for Active; 'I' for Inactive)
REMARK    1  A    between atoms: C_1  and  O_2
REMARK    2  A    between atoms: O_2  and  C_3
REMARK    3  A    between atoms: C_4  and  O_38
REMARK    4  A    between atoms: C_6  and  C_9
REMARK    5  A    between atoms: C_10  and  O_36
REMARK    6  A    between atoms: C_14  and  O_35
REMARK    7  A    between atoms: C_16  and  O_20
REMARK    8  A    between atoms: O_20  and  C_21
REMARK    9  A    between atoms: C_23  and  O_34
REMARK   10  A    between atoms: C_24  and  O_33
REMARK   11  A    between atoms: C_26  and  O_32
REMARK   12  A    between atoms: C_28  and  C_30
REMARK   13  A    between atoms: C_30  and  O_31
REMARK   14  A    between atoms: O_36  and  C_37
REMARK                            x       y       z     vdW  Elec       q    Type
REMARK                         _______ _______ _______ _____ _____    ______ ____
ROOT
ATOM      1  C   UNL     1       7.700  -0.541  23.113  0.00  0.00    +0.181 A 
ATOM      2  O   UNL     1       6.515  -1.256  22.878  0.00  0.00    -0.451 OA
ATOM      3  C   UNL     1       6.510  -2.628  22.986  0.00  0.00    +0.147 A 
ATOM      4  C   UNL     1       7.648  -3.337  23.318  0.00  0.00    +0.109 A 
ATOM      5  C   UNL     1       7.613  -4.733  23.420  0.00  0.00    +0.135 A 
ATOM      6  C   UNL     1       6.427  -5.431  23.213  0.00  0.00    +0.092 A 
ATOM      7  C   UNL     1       5.252  -4.737  22.933  0.00  0.00    +0.131 A 
ATOM      8  C   UNL     1       8.873  -2.601  23.602  0.00  0.00    +0.238 A 
ATOM      9  O   UNL     1       9.854  -3.220  24.011  0.00  0.00    -0.283 OA
ATOM     10  C   UNL     1       5.305  -3.331  22.798  0.00  0.00    +0.093 A 
ATOM     11  C   UNL     1       8.880  -1.119  23.448  0.00  0.00    +0.211 A 
ENDROOT
BRANCH   1  15
ATOM     12  C   UNL     1       6.994   3.722  22.946  0.00  0.00    +0.161 A 
ATOM     13  C   UNL     1       7.443   3.009  21.835  0.00  0.00    +0.050 A 
ATOM     14  C   UNL     1       7.684   1.632  21.927  0.00  0.00    +0.015 A 
ATOM     15  C   UNL     1       7.457   0.924  23.118  0.00  0.00    +0.025 A 
ATOM     16  C   UNL     1       7.047   1.643  24.249  0.00  0.00    +0.060 A 
ATOM     17  C   UNL     1       6.833   3.028  24.152  0.00  0.00    +0.159 A 
BRANCH  12  19
ATOM     18  C   UNL     1       7.425   5.884  22.048  0.00  0.00    +0.277 C 
ATOM     19  O   UNL     1       6.717   5.066  22.977  0.00  0.00    -0.491 OA
ENDBRANCH  12  19
BRANCH  17  20
ATOM     20  O   UNL     1       6.450   3.716  25.274  0.00  0.00    -0.503 OA
ATOM     21  H   UNL     1       6.796   3.207  26.027  0.00  0.00    +0.292 HD
ENDBRANCH  17  20
ENDBRANCH   1  15
BRANCH   5  22
ATOM     22  O   UNL     1       8.715  -5.487  23.741  0.00  0.00    -0.506 OA
ATOM     23  H   UNL     1       9.106  -5.112  24.565  0.00  0.00    +0.292 HD
ENDBRANCH   5  22
BRANCH  11  24
ATOM     24  O   UNL     1      10.117  -0.609  23.714  0.00  0.00    -0.488 OA
ATOM     25  C   UNL     1      10.491   0.209  24.798  0.00  0.00    +0.277 C 
ENDBRANCH  11  24
BRANCH   7  26
ATOM     26  O   UNL     1       4.000  -5.296  22.842  0.00  0.00    -0.461 OA
BRANCH  26  27
ATOM     27  C   UNL     1       2.987  -4.957  23.815  0.00  0.00    +0.339 C 
ATOM     28  O   UNL     1       3.482  -5.268  25.135  0.00  0.00    -0.331 OA
ATOM     29  C   UNL     1       3.711  -6.676  25.326  0.00  0.00    +0.179 C 
ATOM     30  C   UNL     1       2.381  -7.452  25.248  0.00  0.00    +0.177 C 
ATOM     31  C   UNL     1       1.705  -7.194  23.897  0.00  0.00    +0.180 C 
ATOM     32  C   UNL     1       1.635  -5.688  23.582  0.00  0.00    +0.214 C 
BRANCH  30  33
ATOM     33  O   UNL     1       1.482  -7.029  26.277  0.00  0.00    -0.386 OA
ATOM     34  H   UNL     1       1.580  -6.064  26.379  0.00  0.00    +0.210 HD
ENDBRANCH  30  33
BRANCH  31  35
ATOM     35  O   UNL     1       2.336  -7.920  22.834  0.00  0.00    -0.386 OA
ATOM     36  H   UNL     1       2.787  -8.700  23.204  0.00  0.00    +0.210 HD
ENDBRANCH  31  35
BRANCH  32  37
ATOM     37  O   UNL     1       1.103  -5.483  22.268  0.00  0.00    -0.383 OA
ATOM     38  H   UNL     1       0.613  -6.291  22.022  0.00  0.00    +0.210 HD
ENDBRANCH  32  37
BRANCH  29  39
ATOM     39  C   UNL     1       4.468  -6.869  26.650  0.00  0.00    +0.190 C 
BRANCH  39  40
ATOM     40  O   UNL     1       5.840  -6.504  26.586  0.00  0.00    -0.392 OA
ATOM     41  H   UNL     1       6.255  -7.106  25.939  0.00  0.00    +0.210 HD
ENDBRANCH  39  40
ENDBRANCH  29  39
ENDBRANCH  26  27
ENDBRANCH   7  26
TORSDOF 12
ENDMDL
MODEL 3
REMARK VINA RESULT:      -7.2      1.690      9.128
REMARK  Name = 
REMARK  14 active torsions:
REMARK  status: ('A' for Active; 'I' for Inactive)
REMARK    1  A    between atoms: C_1  and  O_2
REMARK    2  A    between atoms: O_2  and  C_3
REMARK    3  A    between atoms: C_4  and  O_38
REMARK    4  A    between atoms: C_6  and  C_9
REMARK    5  A    between atoms: C_10  and  O_36
REMARK    6  A    between atoms: C_14  and  O_35
REMARK    7  A    between atoms: C_16  and  O_20
REMARK    8  A    between atoms: O_20  and  C_21
REMARK    9  A    between atoms: C_23  and  O_34
REMARK   10  A    between atoms: C_24  and  O_33
REMARK   11  A    between atoms: C_26  and  O_32
REMARK   12  A    between atoms: C_28  and  C_30
REMARK   13  A    between atoms: C_30  and  O_31
REMARK   14  A    between atoms: O_36  and  C_37
REMARK                            x       y       z     vdW  Elec       q    Type
REMARK                         _______ _______ _______ _____ _____    ______ ____
ROOT
ATOM      1  C   UNL     1       7.666   1.118  23.150  0.00  0.00    +0.181 A 
ATOM      2  O   UNL     1       6.742   0.070  23.018  0.00  0.00    -0.451 OA
ATOM      3  C   UNL     1       7.144  -1.229  23.230  0.00  0.00    +0.147 A 
ATOM      4  C   UNL     1       8.446  -1.542  23.567  0.00  0.00    +0.109 A 
ATOM      5  C   UNL     1       8.827  -2.874  23.776  0.00  0.00    +0.135 A 
ATOM      6  C   UNL     1       7.898  -3.903  23.671  0.00  0.00    +0.092 A 
ATOM      7  C   UNL     1       6.565  -3.611  23.388  0.00  0.00    +0.131 A 
ATOM      8  C   UNL     1       9.403  -0.458  23.745  0.00  0.00    +0.238 A 
ATOM      9  O   UNL     1      10.531  -0.726  24.159  0.00  0.00    -0.283 OA
ATOM     10  C   UNL     1       6.198  -2.268  23.145  0.00  0.00    +0.093 A 
ATOM     11  C   UNL     1       8.969   0.942  23.479  0.00  0.00    +0.211 A 
ENDROOT
BRANCH   1  15
ATOM     12  C   UNL     1       5.625   4.928  23.013  0.00  0.00    +0.161 A 
ATOM     13  C   UNL     1       5.107   3.844  23.720  0.00  0.00    +0.050 A 
ATOM     14  C   UNL     1       5.780   2.616  23.727  0.00  0.00    +0.015 A 
ATOM     15  C   UNL     1       7.001   2.443  23.054  0.00  0.00    +0.025 A 
ATOM     16  C   UNL     1       7.504   3.516  22.307  0.00  0.00    +0.060 A 
ATOM     17  C   UNL     1       6.807   4.736  22.286  0.00  0.00    +0.159 A 
BRANCH  12  19
ATOM     18  C   UNL     1       3.718   6.245  22.468  0.00  0.00    +0.277 C 
ATOM     19  O   UNL     1       5.063   6.178  22.938  0.00  0.00    -0.491 OA
ENDBRANCH  12  19
BRANCH  17  20
ATOM     20  O   UNL     1       7.306   5.767  21.535  0.00  0.00    -0.503 OA
ATOM     21  H   UNL     1       8.032   5.386  21.011  0.00  0.00    +0.292 HD
ENDBRANCH  17  20
ENDBRANCH   1  15
BRANCH   5  22
ATOM     22  O   UNL     1      10.108  -3.241  24.108  0.00  0.00    -0.506 OA
ATOM     23  H   UNL     1      10.308  -4.088  23.642  0.00  0.00    +0.292 HD
ENDBRANCH   5  22
BRANCH  11  24
ATOM     24  O   UNL     1      10.005   1.813  23.654  0.00  0.00    -0.488 OA
ATOM     25  C   UNL     1      10.735   2.487  22.656  0.00  0.00    +0.277 C 
ENDBRANCH  11  24
BRANCH   7  26
ATOM     26  O   UNL     1       5.533  -4.519  23.391  0.00  0.00    -0.461 OA
BRANCH  26  27
ATOM     27  C   UNL     1       4.456  -4.380  24.344  0.00  0.00    +0.339 C 
ATOM     28  O   UNL     1       5.004  -4.402  25.679  0.00  0.00    -0.331 OA
ATOM     29  C   UNL     1       5.620  -5.661  26.008  0.00  0.00    +0.179 C 
ATOM     30  C   UNL     1       4.565  -6.785  26.034  0.00  0.00    +0.177 C 
ATOM     31  C   UNL     1       3.858  -6.868  24.677  0.00  0.00    +0.180 C 
ATOM     32  C   UNL     1       3.368  -5.483  24.212  0.00  0.00    +0.214 C 
BRANCH  30  33
ATOM     33  O   UNL     1       3.572  -6.529  27.032  0.00  0.00    -0.386 OA
ATOM     34  H   UNL     1       3.529  -7.308  27.616  0.00  0.00    +0.210 HD
ENDBRANCH  30  33
BRANCH  31  35
ATOM     35  O   UNL     1       4.679  -7.491  23.681  0.00  0.00    -0.386 OA
ATOM     36  H   UNL     1       5.400  -6.883  23.435  0.00  0.00    +0.210 HD
ENDBRANCH  31  35
BRANCH  32  37
ATOM     37  O   UNL     1       2.814  -5.573  22.894  0.00  0.00    -0.383 OA
ATOM     38  H   UNL     1       3.520  -5.897  22.302  0.00  0.00    +0.210 HD
ENDBRANCH  32  37
BRANCH  29  39
ATOM     39  C   UNL     1       6.387  -5.495  27.330  0.00  0.00    +0.190 C 
BRANCH  39  40
ATOM     40  O   UNL     1       7.718  -5.994  27.289  0.00  0.00    -0.392 OA
ATOM     41  H   UNL     1       7.678  -6.846  26.813  0.00  0.00    +0.210 HD
ENDBRANCH  39  40
ENDBRANCH  29  39
ENDBRANCH  26  27
ENDBRANCH   7  26
TORSDOF 12
ENDMDL
MODEL 4
REMARK VINA RESULT:      -7.0      1.674      9.390
REMARK  Name = 
REMARK  14 active torsions:
REMARK  status: ('A' for Active; 'I' for Inactive)
REMARK    1  A    between atoms: C_1  and  O_2
REMARK    2  A    between atoms: O_2  and  C_3
REMARK    3  A    between atoms: C_4  and  O_38
REMARK    4  A    between atoms: C_6  and  C_9
REMARK    5  A    between atoms: C_10  and  O_36
REMARK    6  A    between atoms: C_14  and  O_35
REMARK    7  A    between atoms: C_16  and  O_20
REMARK    8  A    between atoms: O_20  and  C_21
REMARK    9  A    between atoms: C_23  and  O_34
REMARK   10  A    between atoms: C_24  and  O_33
REMARK   11  A    between atoms: C_26  and  O_32
REMARK   12  A    between atoms: C_28  and  C_30
REMARK   13  A    between atoms: C_30  and  O_31
REMARK   14  A    between atoms: O_36  and  C_37
REMARK                            x       y       z     vdW  Elec       q    Type
REMARK                         _______ _______ _______ _____ _____    ______ ____
ROOT
ATOM      1  C   UNL     1       7.718   1.226  23.029  0.00  0.00    +0.181 A 
ATOM      2  O   UNL     1       6.752   0.240  23.284  0.00  0.00    -0.451 OA
ATOM      3  C   UNL     1       7.143  -1.054  23.536  0.00  0.00    +0.147 A 
ATOM      4  C   UNL     1       8.474  -1.424  23.540  0.00  0.00    +0.109 A 
ATOM      5  C   UNL     1       8.844  -2.750  23.799  0.00  0.00    +0.135 A 
ATOM      6  C   UNL     1       7.882  -3.715  24.078  0.00  0.00    +0.092 A 
ATOM      7  C   UNL     1       6.536  -3.357  24.137  0.00  0.00    +0.131 A 
ATOM      8  C   UNL     1       9.487  -0.400  23.315  0.00  0.00    +0.238 A 
ATOM      9  O   UNL     1      10.673  -0.704  23.436  0.00  0.00    -0.283 OA
ATOM     10  C   UNL     1       6.170  -2.024  23.840  0.00  0.00    +0.093 A 
ATOM     11  C   UNL     1       9.052   0.992  23.009  0.00  0.00    +0.211 A 
ENDROOT
BRANCH   1  15
ATOM     12  C   UNL     1       5.840   5.121  22.967  0.00  0.00    +0.161 A 
ATOM     13  C   UNL     1       5.307   4.063  23.701  0.00  0.00    +0.050 A 
ATOM     14  C   UNL     1       5.927   2.807  23.684  0.00  0.00    +0.015 A 
ATOM     15  C   UNL     1       7.107   2.579  22.958  0.00  0.00    +0.025 A 
ATOM     16  C   UNL     1       7.623   3.627  22.184  0.00  0.00    +0.060 A 
ATOM     17  C   UNL     1       6.979   4.876  22.189  0.00  0.00    +0.159 A 
BRANCH  12  19
ATOM     18  C   UNL     1       4.073   6.549  22.256  0.00  0.00    +0.277 C 
ATOM     19  O   UNL     1       5.330   6.395  22.911  0.00  0.00    -0.491 OA
ENDBRANCH  12  19
BRANCH  17  20
ATOM     20  O   UNL     1       7.488   5.883  21.411  0.00  0.00    -0.503 OA
ATOM     21  H   UNL     1       7.520   6.669  21.983  0.00  0.00    +0.292 HD
ENDBRANCH  17  20
ENDBRANCH   1  15
BRANCH   5  22
ATOM     22  O   UNL     1      10.151  -3.173  23.811  0.00  0.00    -0.506 OA
ATOM     23  H   UNL     1      10.653  -2.582  24.420  0.00  0.00    +0.292 HD
ENDBRANCH   5  22
BRANCH  11  24
ATOM     24  O   UNL     1      10.131   1.799  22.787  0.00  0.00    -0.488 OA
ATOM     25  C   UNL     1      10.741   2.681  23.699  0.00  0.00    +0.277 C 
ENDBRANCH  11  24
BRANCH   7  26
ATOM     26  O   UNL     1       5.510  -4.181  24.532  0.00  0.00    -0.461 OA
BRANCH  26  27
ATOM     27  C   UNL     1       5.652  -5.614  24.416  0.00  0.00    +0.339 C 
ATOM     28  O   UNL     1       4.590  -6.126  23.582  0.00  0.00    -0.331 OA
ATOM     29  C   UNL     1       3.287  -5.937  24.163  0.00  0.00    +0.179 C 
ATOM     30  C   UNL     1       3.152  -6.757  25.461  0.00  0.00    +0.177 C 
ATOM     31  C   UNL     1       4.248  -6.350  26.452  0.00  0.00    +0.180 C 
ATOM     32  C   UNL     1       5.637  -6.350  25.786  0.00  0.00    +0.214 C 
BRANCH  30  33
ATOM     33  O   UNL     1       3.297  -8.157  25.198  0.00  0.00    -0.386 OA
ATOM     34  H   UNL     1       2.984  -8.641  25.984  0.00  0.00    +0.210 HD
ENDBRANCH  30  33
BRANCH  31  35
ATOM     35  O   UNL     1       3.969  -5.089  27.072  0.00  0.00    -0.386 OA
ATOM     36  H   UNL     1       3.008  -5.008  27.215  0.00  0.00    +0.210 HD
ENDBRANCH  31  35
BRANCH  32  37
ATOM     37  O   UNL     1       6.623  -5.858  26.701  0.00  0.00    -0.383 OA
ATOM     38  H   UNL     1       7.474  -6.277  26.467  0.00  0.00    +0.210 HD
ENDBRANCH  32  37
BRANCH  29  39
ATOM     39  C   UNL     1       2.229  -6.275  23.100  0.00  0.00    +0.190 C 
BRANCH  39  40
ATOM     40  O   UNL     1       2.349  -7.588  22.567  0.00  0.00    -0.392 OA
ATOM     41  H   UNL     1       2.966  -8.067  23.154  0.00  0.00    +0.210 HD
ENDBRANCH  39  40
ENDBRANCH  29  39
ENDBRANCH  26  27
ENDBRANCH   7  26
TORSDOF 12
ENDMDL
MODEL 5
REMARK VINA RESULT:      -6.9      0.957      2.235
REMARK  Name = 
REMARK  14 active torsions:
REMARK  status: ('A' for Active; 'I' for Inactive)
REMARK    1  A    between atoms: C_1  and  O_2
REMARK    2  A    between atoms: O_2  and  C_3
REMARK    3  A    between atoms: C_4  and  O_38
REMARK    4  A    between atoms: C_6  and  C_9
REMARK    5  A    between atoms: C_10  and  O_36
REMARK    6  A    between atoms: C_14  and  O_35
REMARK    7  A    between atoms: C_16  and  O_20
REMARK    8  A    between atoms: O_20  and  C_21
REMARK    9  A    between atoms: C_23  and  O_34
REMARK   10  A    between atoms: C_24  and  O_33
REMARK   11  A    between atoms: C_26  and  O_32
REMARK   12  A    between atoms: C_28  and  C_30
REMARK   13  A    between atoms: C_30  and  O_31
REMARK   14  A    between atoms: O_36  and  C_37
REMARK                            x       y       z     vdW  Elec       q    Type
REMARK                         _______ _______ _______ _____ _____    ______ ____
ROOT
ATOM      1  C   UNL     1       7.088  -3.532  24.362  0.00  0.00    +0.181 A 
ATOM      2  O   UNL     1       6.372  -2.338  24.192  0.00  0.00    -0.451 OA
ATOM      3  C   UNL     1       7.037  -1.182  23.850  0.00  0.00    +0.147 A 
ATOM      4  C   UNL     1       8.406  -1.156  23.672  0.00  0.00    +0.109 A 
ATOM      5  C   UNL     1       9.057   0.034  23.325  0.00  0.00    +0.135 A 
ATOM      6  C   UNL     1       8.335   1.207  23.130  0.00  0.00    +0.092 A 
ATOM      7  C   UNL     1       6.947   1.197  23.247  0.00  0.00    +0.131 A 
ATOM      8  C   UNL     1       9.154  -2.400  23.809  0.00  0.00    +0.238 A 
ATOM      9  O   UNL     1      10.354  -2.402  23.536  0.00  0.00    -0.283 OA
ATOM     10  C   UNL     1       6.303  -0.002  23.631  0.00  0.00    +0.093 A 
ATOM     11  C   UNL     1       8.431  -3.638  24.214  0.00  0.00    +0.211 A 
ENDROOT
BRANCH   1  15
ATOM     12  C   UNL     1       4.413  -6.909  24.740  0.00  0.00    +0.161 A 
ATOM     13  C   UNL     1       4.497  -6.169  23.562  0.00  0.00    +0.050 A 
ATOM     14  C   UNL     1       5.357  -5.067  23.478  0.00  0.00    +0.015 A 
ATOM     15  C   UNL     1       6.176  -4.689  24.554  0.00  0.00    +0.025 A 
ATOM     16  C   UNL     1       6.065  -5.403  25.755  0.00  0.00    +0.060 A 
ATOM     17  C   UNL     1       5.180  -6.492  25.836  0.00  0.00    +0.159 A 
BRANCH  12  19
ATOM     18  C   UNL     1       2.211  -7.811  24.804  0.00  0.00    +0.277 C 
ATOM     19  O   UNL     1       3.616  -8.009  24.940  0.00  0.00    -0.491 OA
ENDBRANCH  12  19
BRANCH  17  20
ATOM     20  O   UNL     1       5.071  -7.165  27.024  0.00  0.00    -0.503 OA
ATOM     21  H   UNL     1       4.593  -7.988  26.819  0.00  0.00    +0.292 HD
ENDBRANCH  17  20
ENDBRANCH   1  15
BRANCH   5  22
ATOM     22  O   UNL     1      10.415   0.118  23.141  0.00  0.00    -0.506 OA
ATOM     23  H   UNL     1      10.729   0.941  23.586  0.00  0.00    +0.292 HD
ENDBRANCH   5  22
BRANCH  11  24
ATOM     24  O   UNL     1       9.296  -4.688  24.332  0.00  0.00    -0.488 OA
ATOM     25  C   UNL     1       9.790  -5.260  25.520  0.00  0.00    +0.277 C 
ENDBRANCH  11  24
BRANCH   7  26
ATOM     26  O   UNL     1       6.115   2.250  22.950  0.00  0.00    -0.461 OA
BRANCH  26  27
ATOM     27  C   UNL     1       5.273   2.814  23.979  0.00  0.00    +0.339 C 
ATOM     28  O   UNL     1       3.892   2.687  23.578  0.00  0.00    -0.331 OA
ATOM     29  C   UNL     1       3.582   3.451  22.397  0.00  0.00    +0.179 C 
ATOM     30  C   UNL     1       3.740   4.959  22.676  0.00  0.00    +0.177 C 
ATOM     31  C   UNL     1       5.166   5.256  23.153  0.00  0.00    +0.180 C 
ATOM     32  C   UNL     1       5.589   4.305  24.289  0.00  0.00    +0.214 C 
BRANCH  30  33
ATOM     33  O   UNL     1       2.837   5.385  23.702  0.00  0.00    -0.386 OA
ATOM     34  H   UNL     1       3.034   4.868  24.505  0.00  0.00    +0.210 HD
ENDBRANCH  30  33
BRANCH  31  35
ATOM     35  O   UNL     1       6.108   5.230  22.074  0.00  0.00    -0.386 OA
ATOM     36  H   UNL     1       5.711   5.657  21.292  0.00  0.00    +0.210 HD
ENDBRANCH  31  35
BRANCH  32  37
ATOM     37  O   UNL     1       6.960   4.530  24.635  0.00  0.00    -0.383 OA
ATOM     38  H   UNL     1       7.004   5.376  25.122  0.00  0.00    +0.210 HD
ENDBRANCH  32  37
BRANCH  29  39
ATOM     39  C   UNL     1       2.179   3.049  21.914  0.00  0.00    +0.190 C 
BRANCH  39  40
ATOM     40  O   UNL     1       1.282   2.721  22.966  0.00  0.00    -0.392 OA
ATOM     41  H   UNL     1       1.736   2.956  23.799  0.00  0.00    +0.210 HD
ENDBRANCH  39  40
ENDBRANCH  29  39
ENDBRANCH  26  27
ENDBRANCH   7  26
TORSDOF 12
ENDMDL
MODEL 6
REMARK VINA RESULT:      -6.6      2.380      2.981
REMARK  Name = 
REMARK  14 active torsions:
REMARK  status: ('A' for Active; 'I' for Inactive)
REMARK    1  A    between atoms: C_1  and  O_2
REMARK    2  A    between atoms: O_2  and  C_3
REMARK    3  A    between atoms: C_4  and  O_38
REMARK    4  A    between atoms: C_6  and  C_9
REMARK    5  A    between atoms: C_10  and  O_36
REMARK    6  A    between atoms: C_14  and  O_35
REMARK    7  A    between atoms: C_16  and  O_20
REMARK    8  A    between atoms: O_20  and  C_21
REMARK    9  A    between atoms: C_23  and  O_34
REMARK   10  A    between atoms: C_24  and  O_33
REMARK   11  A    between atoms: C_26  and  O_32
REMARK   12  A    between atoms: C_28  and  C_30
REMARK   13  A    between atoms: C_30  and  O_31
REMARK   14  A    between atoms: O_36  and  C_37
REMARK                            x       y       z     vdW  Elec       q    Type
REMARK                         _______ _______ _______ _____ _____    ______ ____
ROOT
ATOM      1  C   UNL     1       7.767  -2.785  24.802  0.00  0.00    +0.181 A 
ATOM      2  O   UNL     1       7.790  -1.516  25.399  0.00  0.00    -0.451 OA
ATOM      3  C   UNL     1       8.292  -0.440  24.704  0.00  0.00    +0.147 A 
ATOM      4  C   UNL     1       8.786  -0.569  23.421  0.00  0.00    +0.109 A 
ATOM      5  C   UNL     1       9.291   0.544  22.737  0.00  0.00    +0.135 A 
ATOM      6  C   UNL     1       9.284   1.804  23.327  0.00  0.00    +0.092 A 
ATOM      7  C   UNL     1       8.738   1.974  24.598  0.00  0.00    +0.131 A 
ATOM      8  C   UNL     1       8.731  -1.875  22.777  0.00  0.00    +0.238 A 
ATOM      9  O   UNL     1       9.061  -1.967  21.595  0.00  0.00    -0.283 OA
ATOM     10  C   UNL     1       8.263   0.838  25.294  0.00  0.00    +0.093 A 
ATOM     11  C   UNL     1       8.219  -3.042  23.550  0.00  0.00    +0.211 A 
ENDROOT
BRANCH   1  15
ATOM     12  C   UNL     1       5.486  -5.620  27.139  0.00  0.00    +0.161 A 
ATOM     13  C   UNL     1       4.870  -4.731  26.260  0.00  0.00    +0.050 A 
ATOM     14  C   UNL     1       5.634  -3.809  25.533  0.00  0.00    +0.015 A 
ATOM     15  C   UNL     1       7.034  -3.767  25.641  0.00  0.00    +0.025 A 
ATOM     16  C   UNL     1       7.655  -4.629  26.555  0.00  0.00    +0.060 A 
ATOM     17  C   UNL     1       6.875  -5.533  27.298  0.00  0.00    +0.159 A 
BRANCH  12  19
ATOM     18  C   UNL     1       3.960  -6.089  28.905  0.00  0.00    +0.277 C 
ATOM     19  O   UNL     1       4.847  -6.570  27.897  0.00  0.00    -0.491 OA
ENDBRANCH  12  19
BRANCH  17  20
ATOM     20  O   UNL     1       7.499  -6.354  28.200  0.00  0.00    -0.503 OA
ATOM     21  H   UNL     1       8.440  -6.350  27.955  0.00  0.00    +0.292 HD
ENDBRANCH  17  20
ENDBRANCH   1  15
BRANCH   5  22
ATOM     22  O   UNL     1       9.799   0.472  21.463  0.00  0.00    -0.506 OA
ATOM     23  H   UNL     1       9.643   1.343  21.027  0.00  0.00    +0.292 HD
ENDBRANCH   5  22
BRANCH  11  24
ATOM     24  O   UNL     1       8.281  -4.183  22.804  0.00  0.00    -0.488 OA
ATOM     25  C   UNL     1       7.204  -4.908  22.257  0.00  0.00    +0.277 C 
ENDBRANCH  11  24
BRANCH   7  26
ATOM     26  O   UNL     1       8.551   3.179  25.230  0.00  0.00    -0.461 OA
BRANCH  26  27
ATOM     27  C   UNL     1       7.231   3.766  25.283  0.00  0.00    +0.339 C 
ATOM     28  O   UNL     1       6.925   4.349  23.999  0.00  0.00    -0.331 OA
ATOM     29  C   UNL     1       7.796   5.445  23.663  0.00  0.00    +0.179 C 
ATOM     30  C   UNL     1       7.593   6.614  24.647  0.00  0.00    +0.177 C 
ATOM     31  C   UNL     1       7.851   6.140  26.081  0.00  0.00    +0.180 C 
ATOM     32  C   UNL     1       7.078   4.844  26.393  0.00  0.00    +0.214 C 
BRANCH  30  33
ATOM     33  O   UNL     1       6.251   7.108  24.583  0.00  0.00    -0.386 OA
ATOM     34  H   UNL     1       5.742   6.679  25.295  0.00  0.00    +0.210 HD
ENDBRANCH  30  33
BRANCH  31  35
ATOM     35  O   UNL     1       9.250   5.990  26.353  0.00  0.00    -0.386 OA
ATOM     36  H   UNL     1       9.364   5.604  27.241  0.00  0.00    +0.210 HD
ENDBRANCH  31  35
BRANCH  32  37
ATOM     37  O   UNL     1       7.426   4.364  27.697  0.00  0.00    -0.383 OA
ATOM     38  H   UNL     1       8.328   3.992  27.640  0.00  0.00    +0.210 HD
ENDBRANCH  32  37
BRANCH  29  39
ATOM     39  C   UNL     1       7.557   5.821  22.191  0.00  0.00    +0.190 C 
BRANCH  39  40
ATOM     40  O   UNL     1       6.183   5.950  21.847  0.00  0.00    -0.392 OA
ATOM     41  H   UNL     1       6.041   6.892  21.632  0.00  0.00    +0.210 HD
ENDBRANCH  39  40
ENDBRANCH  29  39
ENDBRANCH  26  27
ENDBRANCH   7  26
TORSDOF 12
ENDMDL
MODEL 7
REMARK VINA RESULT:      -6.4      1.901      2.793
REMARK  Name = 
REMARK  14 active torsions:
REMARK  status: ('A' for Active; 'I' for Inactive)
REMARK    1  A    between atoms: C_1  and  O_2
REMARK    2  A    between atoms: O_2  and  C_3
REMARK    3  A    between atoms: C_4  and  O_38
REMARK    4  A    between atoms: C_6  and  C_9
REMARK    5  A    between atoms: C_10  and  O_36
REMARK    6  A    between atoms: C_14  and  O_35
REMARK    7  A    between atoms: C_16  and  O_20
REMARK    8  A    between atoms: O_20  and  C_21
REMARK    9  A    between atoms: C_23  and  O_34
REMARK   10  A    between atoms: C_24  and  O_33
REMARK   11  A    between atoms: C_26  and  O_32
REMARK   12  A    between atoms: C_28  and  C_30
REMARK   13  A    between atoms: C_30  and  O_31
REMARK   14  A    between atoms: O_36  and  C_37
REMARK                            x       y       z     vdW  Elec       q    Type
REMARK                         _______ _______ _______ _____ _____    ______ ____
ROOT
ATOM      1  C   UNL     1       7.129  -2.435  23.649  0.00  0.00    +0.181 A 
ATOM      2  O   UNL     1       6.683  -1.119  23.450  0.00  0.00    -0.451 OA
ATOM      3  C   UNL     1       7.590  -0.085  23.418  0.00  0.00    +0.147 A 
ATOM      4  C   UNL     1       8.944  -0.300  23.583  0.00  0.00    +0.109 A 
ATOM      5  C   UNL     1       9.845   0.772  23.547  0.00  0.00    +0.135 A 
ATOM      6  C   UNL     1       9.397   2.069  23.321  0.00  0.00    +0.092 A 
ATOM      7  C   UNL     1       8.043   2.307  23.094  0.00  0.00    +0.131 A 
ATOM      8  C   UNL     1       9.421  -1.667  23.751  0.00  0.00    +0.238 A 
ATOM      9  O   UNL     1      10.634  -1.871  23.780  0.00  0.00    -0.283 OA
ATOM     10  C   UNL     1       7.138   1.223  23.167  0.00  0.00    +0.093 A 
ATOM     11  C   UNL     1       8.429  -2.776  23.821  0.00  0.00    +0.211 A 
ENDROOT
BRANCH   1  15
ATOM     12  C   UNL     1       3.807  -5.174  23.244  0.00  0.00    +0.161 A 
ATOM     13  C   UNL     1       3.804  -4.154  24.194  0.00  0.00    +0.050 A 
ATOM     14  C   UNL     1       4.905  -3.296  24.315  0.00  0.00    +0.015 A 
ATOM     15  C   UNL     1       6.025  -3.414  23.477  0.00  0.00    +0.025 A 
ATOM     16  C   UNL     1       6.052  -4.464  22.549  0.00  0.00    +0.060 A 
ATOM     17  C   UNL     1       4.952  -5.334  22.453  0.00  0.00    +0.159 A 
BRANCH  12  19
ATOM     18  C   UNL     1       2.564  -7.039  24.046  0.00  0.00    +0.277 C 
ATOM     19  O   UNL     1       2.789  -6.069  23.026  0.00  0.00    -0.491 OA
ENDBRANCH  12  19
BRANCH  17  20
ATOM     20  O   UNL     1       5.005  -6.366  21.553  0.00  0.00    -0.503 OA
ATOM     21  H   UNL     1       4.202  -6.893  21.708  0.00  0.00    +0.292 HD
ENDBRANCH  17  20
ENDBRANCH   1  15
BRANCH   5  22
ATOM     22  O   UNL     1      11.200   0.616  23.710  0.00  0.00    -0.506 OA
ATOM     23  H   UNL     1      11.449  -0.261  23.332  0.00  0.00    +0.292 HD
ENDBRANCH   5  22
BRANCH  11  24
ATOM     24  O   UNL     1       9.053  -3.973  24.022  0.00  0.00    -0.488 OA
ATOM     25  C   UNL     1       9.084  -4.733  25.207  0.00  0.00    +0.277 C 
ENDBRANCH  11  24
BRANCH   7  26
ATOM     26  O   UNL     1       7.497   3.514  22.728  0.00  0.00    -0.461 OA
BRANCH  26  27
ATOM     27  C   UNL     1       7.988   4.736  23.324  0.00  0.00    +0.339 C 
ATOM     28  O   UNL     1       7.743   4.696  24.746  0.00  0.00    -0.331 OA
ATOM     29  C   UNL     1       6.340   4.672  25.070  0.00  0.00    +0.179 C 
ATOM     30  C   UNL     1       5.664   5.985  24.625  0.00  0.00    +0.177 C 
ATOM     31  C   UNL     1       5.868   6.192  23.120  0.00  0.00    +0.180 C 
ATOM     32  C   UNL     1       7.346   6.019  22.723  0.00  0.00    +0.214 C 
BRANCH  30  33
ATOM     33  O   UNL     1       6.234   7.108  25.304  0.00  0.00    -0.386 OA
ATOM     34  H   UNL     1       6.098   7.894  24.744  0.00  0.00    +0.210 HD
ENDBRANCH  30  33
BRANCH  31  35
ATOM     35  O   UNL     1       5.016   5.343  22.341  0.00  0.00    -0.386 OA
ATOM     36  H   UNL     1       4.703   4.607  22.898  0.00  0.00    +0.210 HD
ENDBRANCH  31  35
BRANCH  32  37
ATOM     37  O   UNL     1       7.488   6.105  21.300  0.00  0.00    -0.383 OA
ATOM     38  H   UNL     1       7.431   7.050  21.058  0.00  0.00    +0.210 HD
ENDBRANCH  32  37
BRANCH  29  39
ATOM     39  C   UNL     1       6.193   4.374  26.570  0.00  0.00    +0.190 C 
BRANCH  39  40
ATOM     40  O   UNL     1       7.414   4.023  27.208  0.00  0.00    -0.392 OA
ATOM     41  H   UNL     1       8.100   4.607  26.831  0.00  0.00    +0.210 HD
ENDBRANCH  39  40
ENDBRANCH  29  39
ENDBRANCH  26  27
ENDBRANCH   7  26
TORSDOF 12
ENDMDL
MODEL 8
REMARK VINA RESULT:      -6.3      1.762      2.741
REMARK  Name = 
REMARK  14 active torsions:
REMARK  status: ('A' for Active; 'I' for Inactive)
REMARK    1  A    between atoms: C_1  and  O_2
REMARK    2  A    between atoms: O_2  and  C_3
REMARK    3  A    between atoms: C_4  and  O_38
REMARK    4  A    between atoms: C_6  and  C_9
REMARK    5  A    between atoms: C_10  and  O_36
REMARK    6  A    between atoms: C_14  and  O_35
REMARK    7  A    between atoms: C_16  and  O_20
REMARK    8  A    between atoms: O_20  and  C_21
REMARK    9  A    between atoms: C_23  and  O_34
REMARK   10  A    between atoms: C_24  and  O_33
REMARK   11  A    between atoms: C_26  and  O_32
REMARK   12  A    between atoms: C_28  and  C_30
REMARK   13  A    between atoms: C_30  and  O_31
REMARK   14  A    between atoms: O_36  and  C_37
REMARK                            x       y       z     vdW  Elec       q    Type
REMARK                         _______ _______ _______ _____ _____    ______ ____
ROOT
ATOM      1  C   UNL     1       6.714  -2.587  23.891  0.00  0.00    +0.181 A 
ATOM      2  O   UNL     1       6.371  -1.235  23.739  0.00  0.00    -0.451 OA
ATOM      3  C   UNL     1       7.359  -0.288  23.601  0.00  0.00    +0.147 A 
ATOM      4  C   UNL     1       8.698  -0.626  23.613  0.00  0.00    +0.109 A 
ATOM      5  C   UNL     1       9.683   0.360  23.472  0.00  0.00    +0.135 A 
ATOM      6  C   UNL     1       9.332   1.694  23.293  0.00  0.00    +0.092 A 
ATOM      7  C   UNL     1       7.988   2.056  23.220  0.00  0.00    +0.131 A 
ATOM      8  C   UNL     1       9.064  -2.031  23.731  0.00  0.00    +0.238 A 
ATOM      9  O   UNL     1      10.249  -2.345  23.624  0.00  0.00    -0.283 OA
ATOM     10  C   UNL     1       7.002   1.058  23.399  0.00  0.00    +0.093 A 
ATOM     11  C   UNL     1       7.989  -3.047  23.916  0.00  0.00    +0.211 A 
ENDROOT
BRANCH   1  15
ATOM     12  C   UNL     1       3.128  -5.003  23.860  0.00  0.00    +0.161 A 
ATOM     13  C   UNL     1       3.282  -3.932  24.738  0.00  0.00    +0.050 A 
ATOM     14  C   UNL     1       4.465  -3.182  24.739  0.00  0.00    +0.015 A 
ATOM     15  C   UNL     1       5.514  -3.461  23.848  0.00  0.00    +0.025 A 
ATOM     16  C   UNL     1       5.382  -4.563  22.993  0.00  0.00    +0.060 A 
ATOM     17  C   UNL     1       4.201  -5.324  23.017  0.00  0.00    +0.159 A 
BRANCH  12  19
ATOM     18  C   UNL     1       0.863  -5.221  23.160  0.00  0.00    +0.277 C 
ATOM     19  O   UNL     1       2.018  -5.805  23.760  0.00  0.00    -0.491 OA
ENDBRANCH  12  19
BRANCH  17  20
ATOM     20  O   UNL     1       4.098  -6.409  22.187  0.00  0.00    -0.503 OA
ATOM     21  H   UNL     1       4.710  -6.238  21.450  0.00  0.00    +0.292 HD
ENDBRANCH  17  20
ENDBRANCH   1  15
BRANCH   5  22
ATOM     22  O   UNL     1      11.027   0.081  23.482  0.00  0.00    -0.506 OA
ATOM     23  H   UNL     1      11.227  -0.409  24.315  0.00  0.00    +0.292 HD
ENDBRANCH   5  22
BRANCH  11  24
ATOM     24  O   UNL     1       8.521  -4.297  24.050  0.00  0.00    -0.488 OA
ATOM     25  C   UNL     1       8.595  -5.074  25.222  0.00  0.00    +0.277 C 
ENDBRANCH  11  24
BRANCH   7  26
ATOM     26  O   UNL     1       7.517   3.310  22.914  0.00  0.00    -0.461 OA
BRANCH  26  27
ATOM     27  C   UNL     1       7.046   4.178  23.969  0.00  0.00    +0.339 C 
ATOM     28  O   UNL     1       5.607   4.268  23.896  0.00  0.00    -0.331 OA
ATOM     29  C   UNL     1       5.148   4.890  22.682  0.00  0.00    +0.179 C 
ATOM     30  C   UNL     1       5.603   6.362  22.627  0.00  0.00    +0.177 C 
ATOM     31  C   UNL     1       7.130   6.440  22.729  0.00  0.00    +0.180 C 
ATOM     32  C   UNL     1       7.658   5.607  23.913  0.00  0.00    +0.214 C 
BRANCH  30  33
ATOM     33  O   UNL     1       5.051   7.107  23.717  0.00  0.00    -0.386 OA
ATOM     34  H   UNL     1       5.634   7.872  23.878  0.00  0.00    +0.210 HD
ENDBRANCH  30  33
BRANCH  31  35
ATOM     35  O   UNL     1       7.770   6.066  21.503  0.00  0.00    -0.386 OA
ATOM     36  H   UNL     1       8.697   5.828  21.685  0.00  0.00    +0.210 HD
ENDBRANCH  31  35
BRANCH  32  37
ATOM     37  O   UNL     1       9.090   5.606  23.915  0.00  0.00    -0.383 OA
ATOM     38  H   UNL     1       9.383   4.834  23.394  0.00  0.00    +0.210 HD
ENDBRANCH  32  37
BRANCH  29  39
ATOM     39  C   UNL     1       3.625   4.705  22.588  0.00  0.00    +0.190 C 
BRANCH  39  40
ATOM     40  O   UNL     1       3.047   5.276  21.421  0.00  0.00    -0.392 OA
ATOM     41  H   UNL     1       2.289   5.813  21.724  0.00  0.00    +0.210 HD
ENDBRANCH  39  40
ENDBRANCH  29  39
ENDBRANCH  26  27
ENDBRANCH   7  26
TORSDOF 12
ENDMDL
MODEL 9
REMARK VINA RESULT:      -6.2      2.848      9.788
REMARK  Name = 
REMARK  14 active torsions:
REMARK  status: ('A' for Active; 'I' for Inactive)
REMARK    1  A    between atoms: C_1  and  O_2
REMARK    2  A    between atoms: O_2  and  C_3
REMARK    3  A    between atoms: C_4  and  O_38
REMARK    4  A    between atoms: C_6  and  C_9
REMARK    5  A    between atoms: C_10  and  O_36
REMARK    6  A    between atoms: C_14  and  O_35
REMARK    7  A    between atoms: C_16  and  O_20
REMARK    8  A    between atoms: O_20  and  C_21
REMARK    9  A    between atoms: C_23  and  O_34
REMARK   10  A    between atoms: C_24  and  O_33
REMARK   11  A    between atoms: C_26  and  O_32
REMARK   12  A    between atoms: C_28  and  C_30
REMARK   13  A    between atoms: C_30  and  O_31
REMARK   14  A    between atoms: O_36  and  C_37
REMARK                            x       y       z     vdW  Elec       q    Type
REMARK                         _______ _______ _______ _____ _____    ______ ____
ROOT
ATOM      1  C   UNL     1       7.780   2.593  25.263  0.00  0.00    +0.181 A 
ATOM      2  O   UNL     1       7.876   1.260  24.835  0.00  0.00    -0.451 OA
ATOM      3  C   UNL     1       6.866   0.372  25.126  0.00  0.00    +0.147 A 
ATOM      4  C   UNL     1       5.747   0.751  25.841  0.00  0.00    +0.109 A 
ATOM      5  C   UNL     1       4.735  -0.174  26.123  0.00  0.00    +0.135 A 
ATOM      6  C   UNL     1       4.825  -1.487  25.670  0.00  0.00    +0.092 A 
ATOM      7  C   UNL     1       5.916  -1.882  24.898  0.00  0.00    +0.131 A 
ATOM      8  C   UNL     1       5.620   2.142  26.256  0.00  0.00    +0.238 A 
ATOM      9  O   UNL     1       4.572   2.508  26.789  0.00  0.00    -0.283 OA
ATOM     10  C   UNL     1       6.949  -0.949  24.648  0.00  0.00    +0.093 A 
ATOM     11  C   UNL     1       6.734   3.089  25.968  0.00  0.00    +0.211 A 
ENDROOT
BRANCH   1  15
ATOM     12  C   UNL     1      11.025   4.867  23.531  0.00  0.00    +0.161 A 
ATOM     13  C   UNL     1      10.981   3.476  23.452  0.00  0.00    +0.050 A 
ATOM     14  C   UNL     1       9.928   2.766  24.042  0.00  0.00    +0.015 A 
ATOM     15  C   UNL     1       8.877   3.423  24.702  0.00  0.00    +0.025 A 
ATOM     16  C   UNL     1       8.938   4.818  24.822  0.00  0.00    +0.060 A 
ATOM     17  C   UNL     1      10.013   5.518  24.248  0.00  0.00    +0.159 A 
BRANCH  12  19
ATOM     18  C   UNL     1      13.324   5.146  22.977  0.00  0.00    +0.277 C 
ATOM     19  O   UNL     1      11.998   5.670  22.988  0.00  0.00    -0.491 OA
ENDBRANCH  12  19
BRANCH  17  20
ATOM     20  O   UNL     1      10.065   6.880  24.392  0.00  0.00    -0.503 OA
ATOM     21  H   UNL     1       9.689   7.068  25.270  0.00  0.00    +0.292 HD
ENDBRANCH  17  20
ENDBRANCH   1  15
BRANCH   5  22
ATOM     22  O   UNL     1       3.604   0.147  26.834  0.00  0.00    -0.506 OA
ATOM     23  H   UNL     1       3.828   0.901  27.430  0.00  0.00    +0.292 HD
ENDBRANCH   5  22
BRANCH  11  24
ATOM     24  O   UNL     1       6.458   4.329  26.465  0.00  0.00    -0.488 OA
ATOM     25  C   UNL     1       6.747   4.818  27.754  0.00  0.00    +0.277 C 
ENDBRANCH  11  24
BRANCH   7  26
ATOM     26  O   UNL     1       6.055  -3.103  24.282  0.00  0.00    -0.461 OA
BRANCH  26  27
ATOM     27  C   UNL     1       5.692  -3.253  22.892  0.00  0.00    +0.339 C 
ATOM     28  O   UNL     1       4.613  -4.207  22.789  0.00  0.00    -0.331 OA
ATOM     29  C   UNL     1       4.997  -5.529  23.208  0.00  0.00    +0.179 C 
ATOM     30  C   UNL     1       6.075  -6.100  22.265  0.00  0.00    +0.177 C 
ATOM     31  C   UNL     1       7.291  -5.168  22.237  0.00  0.00    +0.180 C 
ATOM     32  C   UNL     1       6.874  -3.706  21.989  0.00  0.00    +0.214 C 
BRANCH  30  33
ATOM     33  O   UNL     1       5.576  -6.211  20.928  0.00  0.00    -0.386 OA
ATOM     34  H   UNL     1       5.210  -7.108  20.821  0.00  0.00    +0.210 HD
ENDBRANCH  30  33
BRANCH  31  35
ATOM     35  O   UNL     1       8.087  -5.289  23.422  0.00  0.00    -0.386 OA
ATOM     36  H   UNL     1       7.977  -4.487  23.965  0.00  0.00    +0.210 HD
ENDBRANCH  31  35
BRANCH  32  37
ATOM     37  O   UNL     1       8.015  -2.845  22.082  0.00  0.00    -0.383 OA
ATOM     38  H   UNL     1       7.996  -2.251  21.307  0.00  0.00    +0.210 HD
ENDBRANCH  32  37
BRANCH  29  39
ATOM     39  C   UNL     1       3.731  -6.395  23.303  0.00  0.00    +0.190 C 
BRANCH  39  40
ATOM     40  O   UNL     1       3.913  -7.602  24.032  0.00  0.00    -0.392 OA
ATOM     41  H   UNL     1       3.416  -7.498  24.866  0.00  0.00    +0.210 HD
ENDBRANCH  39  40
ENDBRANCH  29  39
ENDBRANCH  26  27
ENDBRANCH   7  26
TORSDOF 12
ENDMDL
