MODEL 1
REMARK VINA RESULT:      -6.3      0.000      0.000
REMARK  Name = 
REMARK  18 active torsions:
REMARK  status: ('A' for Active; 'I' for Inactive)
REMARK    1  A    between atoms: C_1  and  O_2
REMARK    2  A    between atoms: O_2  and  C_3
REMARK    3  A    between atoms: C_3  and  O_4
REMARK    4  A    between atoms: O_4  and  C_5
REMARK    5  A    between atoms: C_6  and  O_31
REMARK    6  A    between atoms: C_8  and  C_11
REMARK    7  A    between atoms: C_12  and  O_27
REMARK    8  A    between atoms: C_16  and  O_26
REMARK    9  A    between atoms: C_18  and  O_22
REMARK   10  A    between atoms: O_22  and  C_23
REMARK   11  A    between atoms: C_23  and  O_24
REMARK   12  A    between atoms: O_24  and  C_25
REMARK   13  A    between atoms: O_27  and  C_28
REMARK   14  A    between atoms: C_28  and  O_29
REMARK   15  A    between atoms: O_29  and  C_30
REMARK   16  A    between atoms: O_31  and  C_32
REMARK   17  A    between atoms: C_32  and  O_33
REMARK   18  A    between atoms: O_33  and  C_34
REMARK                            x       y       z     vdW  Elec       q    Type
REMARK                         _______ _______ _______ _____ _____    ______ ____
ROOT
ATOM      1  C   UNL     1       7.712  -0.617  22.920  0.00  0.00    +0.181 A 
ATOM      2  O   UNL     1       6.532  -1.319  22.730  0.00  0.00    -0.451 OA
ATOM      3  C   UNL     1       6.546  -2.682  22.871  0.00  0.00    +0.147 A 
ATOM      4  C   UNL     1       7.676  -3.379  23.259  0.00  0.00    +0.109 A 
ATOM      5  C   UNL     1       7.621  -4.759  23.477  0.00  0.00    +0.135 A 
ATOM      6  C   UNL     1       6.432  -5.449  23.274  0.00  0.00    +0.092 A 
ATOM      7  C   UNL     1       5.295  -4.756  22.857  0.00  0.00    +0.131 A 
ATOM      8  C   UNL     1       8.924  -2.640  23.441  0.00  0.00    +0.238 A 
ATOM      9  O   UNL     1       9.910  -3.249  23.851  0.00  0.00    -0.283 OA
ATOM     10  C   UNL     1       5.356  -3.373  22.643  0.00  0.00    +0.093 A 
ATOM     11  C   UNL     1       8.922  -1.172  23.161  0.00  0.00    +0.213 A 
ENDROOT
BRANCH   1  15
ATOM     12  C   UNL     1       6.971   3.600  23.034  0.00  0.00    +0.165 A 
ATOM     13  C   UNL     1       7.444   2.970  21.882  0.00  0.00    +0.050 A 
ATOM     14  C   UNL     1       7.696   1.602  21.890  0.00  0.00    +0.015 A 
ATOM     15  C   UNL     1       7.478   0.836  23.043  0.00  0.00    +0.025 A 
ATOM     16  C   UNL     1       7.107   1.482  24.229  0.00  0.00    +0.061 A 
ATOM     17  C   UNL     1       6.884   2.873  24.238  0.00  0.00    +0.166 A 
BRANCH  12  18
ATOM     18  O   UNL     1       6.591   4.925  23.045  0.00  0.00    -0.463 OA
BRANCH  18  19
ATOM     19  C   UNL     1       7.420   5.781  22.250  0.00  0.00    +0.394 C 
BRANCH  19  21
ATOM     20  C   UNL     1       9.406   6.358  23.396  0.00  0.00    +0.198 C 
ATOM     21  O   UNL     1       8.101   6.771  23.023  0.00  0.00    -0.347 OA
ENDBRANCH  19  21
ENDBRANCH  18  19
ENDBRANCH  12  18
BRANCH  17  22
ATOM     22  O   UNL     1       6.566   3.612  25.351  0.00  0.00    -0.463 OA
BRANCH  22  23
ATOM     23  C   UNL     1       7.234   3.300  26.567  0.00  0.00    +0.394 C 
BRANCH  23  24
ATOM     24  O   UNL     1       7.513   4.473  27.339  0.00  0.00    -0.347 OA
ATOM     25  C   UNL     1       7.557   5.640  26.529  0.00  0.00    +0.198 C 
ENDBRANCH  23  24
ENDBRANCH  22  23
ENDBRANCH  17  22
ENDBRANCH   1  15
BRANCH   5  26
ATOM     26  O   UNL     1       8.690  -5.502  23.899  0.00  0.00    -0.506 OA
ATOM     27  H   UNL     1       9.007  -6.043  23.140  0.00  0.00    +0.292 HD
ENDBRANCH   5  26
BRANCH   7  28
ATOM     28  O   UNL     1       4.083  -5.330  22.592  0.00  0.00    -0.466 OA
BRANCH  28  29
ATOM     29  C   UNL     1       3.524  -6.123  23.638  0.00  0.00    +0.394 C 
BRANCH  29  30
ATOM     30  O   UNL     1       2.300  -6.728  23.219  0.00  0.00    -0.347 OA
ATOM     31  C   UNL     1       1.316  -5.744  22.925  0.00  0.00    +0.198 C 
ENDBRANCH  29  30
ENDBRANCH  28  29
ENDBRANCH   7  28
BRANCH  11  32
ATOM     32  O   UNL     1      10.088  -0.418  23.254  0.00  0.00    -0.459 OA
BRANCH  32  33
ATOM     33  C   UNL     1      10.413  -0.007  24.592  0.00  0.00    +0.394 C 
BRANCH  33  34
ATOM     34  O   UNL     1      11.290   1.120  24.619  0.00  0.00    -0.347 OA
ATOM     35  C   UNL     1      10.766   2.207  23.874  0.00  0.00    +0.198 C 
ENDBRANCH  33  34
ENDBRANCH  32  33
ENDBRANCH  11  32
TORSDOF 14
ENDMDL
MODEL 2
REMARK VINA RESULT:      -6.1      2.412      9.435
REMARK  Name = 
REMARK  18 active torsions:
REMARK  status: ('A' for Active; 'I' for Inactive)
REMARK    1  A    between atoms: C_1  and  O_2
REMARK    2  A    between atoms: O_2  and  C_3
REMARK    3  A    between atoms: C_3  and  O_4
REMARK    4  A    between atoms: O_4  and  C_5
REMARK    5  A    between atoms: C_6  and  O_31
REMARK    6  A    between atoms: C_8  and  C_11
REMARK    7  A    between atoms: C_12  and  O_27
REMARK    8  A    between atoms: C_16  and  O_26
REMARK    9  A    between atoms: C_18  and  O_22
REMARK   10  A    between atoms: O_22  and  C_23
REMARK   11  A    between atoms: C_23  and  O_24
REMARK   12  A    between atoms: O_24  and  C_25
REMARK   13  A    between atoms: O_27  and  C_28
REMARK   14  A    between atoms: C_28  and  O_29
REMARK   15  A    between atoms: O_29  and  C_30
REMARK   16  A    between atoms: O_31  and  C_32
REMARK   17  A    between atoms: C_32  and  O_33
REMARK   18  A    between atoms: O_33  and  C_34
REMARK                            x       y       z     vdW  Elec       q    Type
REMARK                         _______ _______ _______ _____ _____    ______ ____
ROOT
ATOM      1  C   UNL     1       7.845   0.813  23.938  0.00  0.00    +0.181 A 
ATOM      2  O   UNL     1       9.030   1.493  23.697  0.00  0.00    -0.451 OA
ATOM      3  C   UNL     1       9.066   2.847  23.904  0.00  0.00    +0.147 A 
ATOM      4  C   UNL     1       7.988   3.554  24.407  0.00  0.00    +0.109 A 
ATOM      5  C   UNL     1       8.099   4.919  24.687  0.00  0.00    +0.135 A 
ATOM      6  C   UNL     1       9.291   5.586  24.431  0.00  0.00    +0.092 A 
ATOM      7  C   UNL     1      10.374   4.887  23.898  0.00  0.00    +0.131 A 
ATOM      8  C   UNL     1       6.735   2.839  24.644  0.00  0.00    +0.238 A 
ATOM      9  O   UNL     1       5.799   3.452  25.154  0.00  0.00    -0.283 OA
ATOM     10  C   UNL     1      10.257   3.517  23.624  0.00  0.00    +0.093 A 
ATOM     11  C   UNL     1       6.674   1.388  24.294  0.00  0.00    +0.213 A 
ENDROOT
BRANCH   1  15
ATOM     12  C   UNL     1       8.427  -3.415  24.292  0.00  0.00    +0.165 A 
ATOM     13  C   UNL     1       8.953  -2.523  25.227  0.00  0.00    +0.050 A 
ATOM     14  C   UNL     1       8.763  -1.153  25.066  0.00  0.00    +0.015 A 
ATOM     15  C   UNL     1       8.045  -0.649  23.974  0.00  0.00    +0.025 A 
ATOM     16  C   UNL     1       7.609  -1.534  22.979  0.00  0.00    +0.061 A 
ATOM     17  C   UNL     1       7.829  -2.919  23.117  0.00  0.00    +0.166 A 
BRANCH  12  18
ATOM     18  O   UNL     1       8.482  -4.781  24.467  0.00  0.00    -0.463 OA
BRANCH  18  19
ATOM     19  C   UNL     1       8.528  -5.197  25.837  0.00  0.00    +0.394 C 
BRANCH  19  21
ATOM     20  C   UNL     1       6.827  -5.196  27.479  0.00  0.00    +0.198 C 
ATOM     21  O   UNL     1       7.305  -5.787  26.282  0.00  0.00    -0.347 OA
ENDBRANCH  19  21
ENDBRANCH  18  19
ENDBRANCH  12  18
BRANCH  17  22
ATOM     22  O   UNL     1       7.488  -3.866  22.183  0.00  0.00    -0.463 OA
BRANCH  22  23
ATOM     23  C   UNL     1       6.173  -3.821  21.642  0.00  0.00    +0.394 C 
BRANCH  23  24
ATOM     24  O   UNL     1       5.750  -5.102  21.161  0.00  0.00    -0.347 OA
ATOM     25  C   UNL     1       6.607  -6.143  21.609  0.00  0.00    +0.198 C 
ENDBRANCH  23  24
ENDBRANCH  22  23
ENDBRANCH  17  22
ENDBRANCH   1  15
BRANCH   5  26
ATOM     26  O   UNL     1       7.086   5.667  25.221  0.00  0.00    -0.506 OA
ATOM     27  H   UNL     1       7.450   6.185  25.974  0.00  0.00    +0.292 HD
ENDBRANCH   5  26
BRANCH   7  28
ATOM     28  O   UNL     1      11.580   5.441  23.573  0.00  0.00    -0.466 OA
BRANCH  28  29
ATOM     29  C   UNL     1      12.658   4.525  23.381  0.00  0.00    +0.394 C 
BRANCH  29  30
ATOM     30  O   UNL     1      13.848   5.215  22.994  0.00  0.00    -0.347 OA
ATOM     31  C   UNL     1      13.655   5.928  21.780  0.00  0.00    +0.198 C 
ENDBRANCH  29  30
ENDBRANCH  28  29
ENDBRANCH   7  28
BRANCH  11  32
ATOM     32  O   UNL     1       5.495   0.660  24.436  0.00  0.00    -0.459 OA
BRANCH  32  33
ATOM     33  C   UNL     1       5.270   0.165  25.766  0.00  0.00    +0.394 C 
BRANCH  33  34
ATOM     34  O   UNL     1       4.405  -0.970  25.786  0.00  0.00    -0.347 OA
ATOM     35  C   UNL     1       5.136  -2.185  25.784  0.00  0.00    +0.198 C 
ENDBRANCH  33  34
ENDBRANCH  32  33
ENDBRANCH  11  32
TORSDOF 14
ENDMDL
MODEL 3
REMARK VINA RESULT:      -6.1      1.944      8.787
REMARK  Name = 
REMARK  18 active torsions:
REMARK  status: ('A' for Active; 'I' for Inactive)
REMARK    1  A    between atoms: C_1  and  O_2
REMARK    2  A    between atoms: O_2  and  C_3
REMARK    3  A    between atoms: C_3  and  O_4
REMARK    4  A    between atoms: O_4  and  C_5
REMARK    5  A    between atoms: C_6  and  O_31
REMARK    6  A    between atoms: C_8  and  C_11
REMARK    7  A    between atoms: C_12  and  O_27
REMARK    8  A    between atoms: C_16  and  O_26
REMARK    9  A    between atoms: C_18  and  O_22
REMARK   10  A    between atoms: O_22  and  C_23
REMARK   11  A    between atoms: C_23  and  O_24
REMARK   12  A    between atoms: O_24  and  C_25
REMARK   13  A    between atoms: O_27  and  C_28
REMARK   14  A    between atoms: C_28  and  O_29
REMARK   15  A    between atoms: O_29  and  C_30
REMARK   16  A    between atoms: O_31  and  C_32
REMARK   17  A    between atoms: C_32  and  O_33
REMARK   18  A    between atoms: O_33  and  C_34
REMARK                            x       y       z     vdW  Elec       q    Type
REMARK                         _______ _______ _______ _____ _____    ______ ____
ROOT
ATOM      1  C   UNL     1       6.764  -1.029  23.789  0.00  0.00    +0.181 A 
ATOM      2  O   UNL     1       6.208   0.238  23.880  0.00  0.00    -0.451 OA
ATOM      3  C   UNL     1       6.906   1.301  23.370  0.00  0.00    +0.147 A 
ATOM      4  C   UNL     1       8.112   1.154  22.709  0.00  0.00    +0.109 A 
ATOM      5  C   UNL     1       8.745   2.256  22.126  0.00  0.00    +0.135 A 
ATOM      6  C   UNL     1       8.178   3.520  22.234  0.00  0.00    +0.092 A 
ATOM      7  C   UNL     1       6.975   3.681  22.922  0.00  0.00    +0.131 A 
ATOM      8  C   UNL     1       8.706  -0.180  22.630  0.00  0.00    +0.238 A 
ATOM      9  O   UNL     1       9.743  -0.321  21.984  0.00  0.00    -0.283 OA
ATOM     10  C   UNL     1       6.345   2.572  23.500  0.00  0.00    +0.093 A 
ATOM     11  C   UNL     1       7.994  -1.309  23.302  0.00  0.00    +0.213 A 
ENDROOT
BRANCH   1  15
ATOM     12  C   UNL     1       3.806  -3.945  24.831  0.00  0.00    +0.165 A 
ATOM     13  C   UNL     1       4.293  -3.030  25.765  0.00  0.00    +0.050 A 
ATOM     14  C   UNL     1       5.272  -2.113  25.395  0.00  0.00    +0.015 A 
ATOM     15  C   UNL     1       5.780  -2.087  24.090  0.00  0.00    +0.025 A 
ATOM     16  C   UNL     1       5.372  -3.073  23.182  0.00  0.00    +0.061 A 
ATOM     17  C   UNL     1       4.407  -4.028  23.559  0.00  0.00    +0.166 A 
BRANCH  12  18
ATOM     18  O   UNL     1       2.754  -4.792  25.110  0.00  0.00    -0.463 OA
BRANCH  18  19
ATOM     19  C   UNL     1       2.988  -5.677  26.211  0.00  0.00    +0.394 C 
BRANCH  19  21
ATOM     20  C   UNL     1       4.950  -6.746  26.982  0.00  0.00    +0.198 C 
ATOM     21  O   UNL     1       3.995  -6.653  25.938  0.00  0.00    -0.347 OA
ENDBRANCH  19  21
ENDBRANCH  18  19
ENDBRANCH  12  18
BRANCH  17  22
ATOM     22  O   UNL     1       3.972  -5.062  22.768  0.00  0.00    -0.463 OA
BRANCH  22  23
ATOM     23  C   UNL     1       4.897  -6.100  22.465  0.00  0.00    +0.394 C 
BRANCH  23  24
ATOM     24  O   UNL     1       5.634  -5.826  21.269  0.00  0.00    -0.347 OA
ATOM     25  C   UNL     1       7.037  -5.867  21.492  0.00  0.00    +0.198 C 
ENDBRANCH  23  24
ENDBRANCH  22  23
ENDBRANCH  17  22
ENDBRANCH   1  15
BRANCH   5  26
ATOM     26  O   UNL     1       9.918   2.173  21.426  0.00  0.00    -0.506 OA
ATOM     27  H   UNL     1      10.658   2.113  22.072  0.00  0.00    +0.292 HD
ENDBRANCH   5  26
BRANCH   7  28
ATOM     28  O   UNL     1       6.343   4.876  23.123  0.00  0.00    -0.466 OA
BRANCH  28  29
ATOM     29  C   UNL     1       7.089   6.044  22.783  0.00  0.00    +0.394 C 
BRANCH  29  30
ATOM     30  O   UNL     1       7.703   6.611  23.941  0.00  0.00    -0.347 OA
ATOM     31  C   UNL     1       9.110   6.718  23.776  0.00  0.00    +0.198 C 
ENDBRANCH  29  30
ENDBRANCH  28  29
ENDBRANCH   7  28
BRANCH  11  32
ATOM     32  O   UNL     1       8.533  -2.593  23.318  0.00  0.00    -0.459 OA
BRANCH  32  33
ATOM     33  C   UNL     1       9.375  -2.860  24.451  0.00  0.00    +0.394 C 
BRANCH  33  34
ATOM     34  O   UNL     1       9.892  -4.191  24.446  0.00  0.00    -0.347 OA
ATOM     35  C   UNL     1       9.094  -5.065  25.226  0.00  0.00    +0.198 C 
ENDBRANCH  33  34
ENDBRANCH  32  33
ENDBRANCH  11  32
TORSDOF 14
ENDMDL
MODEL 4
REMARK VINA RESULT:      -6.1      2.370      8.764
REMARK  Name = 
REMARK  18 active torsions:
REMARK  status: ('A' for Active; 'I' for Inactive)
REMARK    1  A    between atoms: C_1  and  O_2
REMARK    2  A    between atoms: O_2  and  C_3
REMARK    3  A    between atoms: C_3  and  O_4
REMARK    4  A    between atoms: O_4  and  C_5
REMARK    5  A    between atoms: C_6  and  O_31
REMARK    6  A    between atoms: C_8  and  C_11
REMARK    7  A    between atoms: C_12  and  O_27
REMARK    8  A    between atoms: C_16  and  O_26
REMARK    9  A    between atoms: C_18  and  O_22
REMARK   10  A    between atoms: O_22  and  C_23
REMARK   11  A    between atoms: C_23  and  O_24
REMARK   12  A    between atoms: O_24  and  C_25
REMARK   13  A    between atoms: O_27  and  C_28
REMARK   14  A    between atoms: C_28  and  O_29
REMARK   15  A    between atoms: O_29  and  C_30
REMARK   16  A    between atoms: O_31  and  C_32
REMARK   17  A    between atoms: C_32  and  O_33
REMARK   18  A    between atoms: O_33  and  C_34
REMARK                            x       y       z     vdW  Elec       q    Type
REMARK                         _______ _______ _______ _____ _____    ______ ____
ROOT
ATOM      1  C   UNL     1       7.052  -1.765  23.801  0.00  0.00    +0.181 A 
ATOM      2  O   UNL     1       6.298  -0.613  23.968  0.00  0.00    -0.451 OA
ATOM      3  C   UNL     1       6.754   0.558  23.421  0.00  0.00    +0.147 A 
ATOM      4  C   UNL     1       7.901   0.624  22.651  0.00  0.00    +0.109 A 
ATOM      5  C   UNL     1       8.280   1.821  22.037  0.00  0.00    +0.135 A 
ATOM      6  C   UNL     1       7.518   2.969  22.223  0.00  0.00    +0.092 A 
ATOM      7  C   UNL     1       6.374   2.917  23.020  0.00  0.00    +0.131 A 
ATOM      8  C   UNL     1       8.704  -0.588  22.490  0.00  0.00    +0.238 A 
ATOM      9  O   UNL     1       9.686  -0.545  21.751  0.00  0.00    -0.283 OA
ATOM     10  C   UNL     1       5.998   1.712  23.629  0.00  0.00    +0.093 A 
ATOM     11  C   UNL     1       8.261  -1.827  23.198  0.00  0.00    +0.213 A 
ENDROOT
BRANCH   1  15
ATOM     12  C   UNL     1       4.854  -5.349  24.618  0.00  0.00    +0.165 A 
ATOM     13  C   UNL     1       4.706  -4.657  23.415  0.00  0.00    +0.050 A 
ATOM     14  C   UNL     1       5.420  -3.483  23.195  0.00  0.00    +0.015 A 
ATOM     15  C   UNL     1       6.295  -2.979  24.166  0.00  0.00    +0.025 A 
ATOM     16  C   UNL     1       6.363  -3.611  25.414  0.00  0.00    +0.061 A 
ATOM     17  C   UNL     1       5.617  -4.781  25.658  0.00  0.00    +0.166 A 
BRANCH  12  18
ATOM     18  O   UNL     1       4.266  -6.576  24.838  0.00  0.00    -0.463 OA
BRANCH  18  19
ATOM     19  C   UNL     1       3.187  -6.880  23.947  0.00  0.00    +0.394 C 
BRANCH  19  21
ATOM     20  C   UNL     1       1.434  -8.391  23.466  0.00  0.00    +0.198 C 
ATOM     21  O   UNL     1       2.682  -8.206  24.114  0.00  0.00    -0.347 OA
ENDBRANCH  19  21
ENDBRANCH  18  19
ENDBRANCH  12  18
BRANCH  17  22
ATOM     22  O   UNL     1       5.573  -5.451  26.855  0.00  0.00    -0.463 OA
BRANCH  22  23
ATOM     23  C   UNL     1       6.660  -5.273  27.755  0.00  0.00    +0.394 C 
BRANCH  23  24
ATOM     24  O   UNL     1       6.795  -6.378  28.655  0.00  0.00    -0.347 OA
ATOM     25  C   UNL     1       5.751  -6.405  29.618  0.00  0.00    +0.198 C 
ENDBRANCH  23  24
ENDBRANCH  22  23
ENDBRANCH  17  22
ENDBRANCH   1  15
BRANCH   5  26
ATOM     26  O   UNL     1       9.380   1.946  21.233  0.00  0.00    -0.506 OA
ATOM     27  H   UNL     1       9.699   2.875  21.289  0.00  0.00    +0.292 HD
ENDBRANCH   5  26
BRANCH   7  28
ATOM     28  O   UNL     1       5.569   3.983  23.303  0.00  0.00    -0.466 OA
BRANCH  28  29
ATOM     29  C   UNL     1       6.232   5.174  23.726  0.00  0.00    +0.394 C 
BRANCH  29  30
ATOM     30  O   UNL     1       5.944   6.259  22.843  0.00  0.00    -0.347 OA
ATOM     31  C   UNL     1       7.056   6.547  22.005  0.00  0.00    +0.198 C 
ENDBRANCH  29  30
ENDBRANCH  28  29
ENDBRANCH   7  28
BRANCH  11  32
ATOM     32  O   UNL     1       9.010  -2.999  23.139  0.00  0.00    -0.459 OA
BRANCH  32  33
ATOM     33  C   UNL     1       9.800  -3.249  24.313  0.00  0.00    +0.394 C 
BRANCH  33  34
ATOM     34  O   UNL     1       9.844  -4.635  24.655  0.00  0.00    -0.347 OA
ATOM     35  C   UNL     1       9.787  -4.829  26.059  0.00  0.00    +0.198 C 
ENDBRANCH  33  34
ENDBRANCH  32  33
ENDBRANCH  11  32
TORSDOF 14
ENDMDL
MODEL 5
REMARK VINA RESULT:      -6.0      2.589      3.409
REMARK  Name = 
REMARK  18 active torsions:
REMARK  status: ('A' for Active; 'I' for Inactive)
REMARK    1  A    between atoms: C_1  and  O_2
REMARK    2  A    between atoms: O_2  and  C_3
REMARK    3  A    between atoms: C_3  and  O_4
REMARK    4  A    between atoms: O_4  and  C_5
REMARK    5  A    between atoms: C_6  and  O_31
REMARK    6  A    between atoms: C_8  and  C_11
REMARK    7  A    between atoms: C_12  and  O_27
REMARK    8  A    between atoms: C_16  and  O_26
REMARK    9  A    between atoms: C_18  and  O_22
REMARK   10  A    between atoms: O_22  and  C_23
REMARK   11  A    between atoms: C_23  and  O_24
REMARK   12  A    between atoms: O_24  and  C_25
REMARK   13  A    between atoms: O_27  and  C_28
REMARK   14  A    between atoms: C_28  and  O_29
REMARK   15  A    between atoms: O_29  and  C_30
REMARK   16  A    between atoms: O_31  and  C_32
REMARK   17  A    between atoms: C_32  and  O_33
REMARK   18  A    between atoms: O_33  and  C_34
REMARK                            x       y       z     vdW  Elec       q    Type
REMARK                         _______ _______ _______ _____ _____    ______ ____
ROOT
ATOM      1  C   UNL     1       7.716  -0.779  24.570  0.00  0.00    +0.181 A 
ATOM      2  O   UNL     1       7.060  -1.502  25.555  0.00  0.00    -0.451 OA
ATOM      3  C   UNL     1       7.506  -2.763  25.854  0.00  0.00    +0.147 A 
ATOM      4  C   UNL     1       8.624  -3.319  25.259  0.00  0.00    +0.109 A 
ATOM      5  C   UNL     1       9.095  -4.572  25.659  0.00  0.00    +0.135 A 
ATOM      6  C   UNL     1       8.421  -5.287  26.642  0.00  0.00    +0.092 A 
ATOM      7  C   UNL     1       7.277  -4.745  27.228  0.00  0.00    +0.131 A 
ATOM      8  C   UNL     1       9.304  -2.563  24.208  0.00  0.00    +0.238 A 
ATOM      9  O   UNL     1      10.336  -3.027  23.728  0.00  0.00    -0.283 OA
ATOM     10  C   UNL     1       6.812  -3.486  26.824  0.00  0.00    +0.093 A 
ATOM     11  C   UNL     1       8.730  -1.243  23.805  0.00  0.00    +0.213 A 
ENDROOT
BRANCH   1  15
ATOM     12  C   UNL     1       6.817   3.407  24.706  0.00  0.00    +0.165 A 
ATOM     13  C   UNL     1       7.620   2.798  25.671  0.00  0.00    +0.050 A 
ATOM     14  C   UNL     1       7.871   1.430  25.607  0.00  0.00    +0.015 A 
ATOM     15  C   UNL     1       7.329   0.646  24.580  0.00  0.00    +0.025 A 
ATOM     16  C   UNL     1       6.437   1.233  23.673  0.00  0.00    +0.061 A 
ATOM     17  C   UNL     1       6.150   2.610  23.753  0.00  0.00    +0.166 A 
BRANCH  12  18
ATOM     18  O   UNL     1       6.636   4.772  24.653  0.00  0.00    -0.463 OA
BRANCH  18  19
ATOM     19  C   UNL     1       7.802   5.504  24.257  0.00  0.00    +0.394 C 
BRANCH  19  21
ATOM     20  C   UNL     1       7.341   6.169  22.036  0.00  0.00    +0.198 C 
ATOM     21  O   UNL     1       8.123   5.335  22.876  0.00  0.00    -0.347 OA
ENDBRANCH  19  21
ENDBRANCH  18  19
ENDBRANCH  12  18
BRANCH  17  22
ATOM     22  O   UNL     1       5.258   3.275  22.949  0.00  0.00    -0.463 OA
BRANCH  22  23
ATOM     23  C   UNL     1       3.873   3.150  23.251  0.00  0.00    +0.394 C 
BRANCH  23  24
ATOM     24  O   UNL     1       3.052   3.407  22.106  0.00  0.00    -0.347 OA
ATOM     25  C   UNL     1       1.699   3.035  22.333  0.00  0.00    +0.198 C 
ENDBRANCH  23  24
ENDBRANCH  22  23
ENDBRANCH  17  22
ENDBRANCH   1  15
BRANCH   5  26
ATOM     26  O   UNL     1      10.216  -5.162  25.140  0.00  0.00    -0.506 OA
ATOM     27  H   UNL     1      10.009  -5.467  24.228  0.00  0.00    +0.292 HD
ENDBRANCH   5  26
BRANCH   7  28
ATOM     28  O   UNL     1       6.513  -5.367  28.175  0.00  0.00    -0.466 OA
BRANCH  28  29
ATOM     29  C   UNL     1       5.229  -5.819  27.746  0.00  0.00    +0.394 C 
BRANCH  29  30
ATOM     30  O   UNL     1       5.349  -6.966  26.904  0.00  0.00    -0.347 OA
ATOM     31  C   UNL     1       4.576  -6.816  25.719  0.00  0.00    +0.198 C 
ENDBRANCH  29  30
ENDBRANCH  28  29
ENDBRANCH   7  28
BRANCH  11  32
ATOM     32  O   UNL     1       9.290  -0.499  22.771  0.00  0.00    -0.459 OA
BRANCH  32  33
ATOM     33  C   UNL     1      10.474   0.224  23.144  0.00  0.00    +0.394 C 
BRANCH  33  34
ATOM     34  O   UNL     1      10.307   1.638  23.037  0.00  0.00    -0.347 OA
ATOM     35  C   UNL     1       9.499   1.986  21.925  0.00  0.00    +0.198 C 
ENDBRANCH  33  34
ENDBRANCH  32  33
ENDBRANCH  11  32
TORSDOF 14
ENDMDL
MODEL 6
REMARK VINA RESULT:      -6.0      2.479      3.188
REMARK  Name = 
REMARK  18 active torsions:
REMARK  status: ('A' for Active; 'I' for Inactive)
REMARK    1  A    between atoms: C_1  and  O_2
REMARK    2  A    between atoms: O_2  and  C_3
REMARK    3  A    between atoms: C_3  and  O_4
REMARK    4  A    between atoms: O_4  and  C_5
REMARK    5  A    between atoms: C_6  and  O_31
REMARK    6  A    between atoms: C_8  and  C_11
REMARK    7  A    between atoms: C_12  and  O_27
REMARK    8  A    between atoms: C_16  and  O_26
REMARK    9  A    between atoms: C_18  and  O_22
REMARK   10  A    between atoms: O_22  and  C_23
REMARK   11  A    between atoms: C_23  and  O_24
REMARK   12  A    between atoms: O_24  and  C_25
REMARK   13  A    between atoms: O_27  and  C_28
REMARK   14  A    between atoms: C_28  and  O_29
REMARK   15  A    between atoms: O_29  and  C_30
REMARK   16  A    between atoms: O_31  and  C_32
REMARK   17  A    between atoms: C_32  and  O_33
REMARK   18  A    between atoms: O_33  and  C_34
REMARK                            x       y       z     vdW  Elec       q    Type
REMARK                         _______ _______ _______ _____ _____    ______ ____
ROOT
ATOM      1  C   UNL     1       7.862  -1.077  24.640  0.00  0.00    +0.181 A 
ATOM      2  O   UNL     1       7.008  -1.679  25.551  0.00  0.00    -0.451 OA
ATOM      3  C   UNL     1       7.278  -2.958  25.962  0.00  0.00    +0.147 A 
ATOM      4  C   UNL     1       8.406  -3.650  25.555  0.00  0.00    +0.109 A 
ATOM      5  C   UNL     1       8.687  -4.918  26.070  0.00  0.00    +0.135 A 
ATOM      6  C   UNL     1       7.816  -5.511  26.975  0.00  0.00    +0.092 A 
ATOM      7  C   UNL     1       6.663  -4.831  27.371  0.00  0.00    +0.131 A 
ATOM      8  C   UNL     1       9.296  -3.021  24.580  0.00  0.00    +0.238 A 
ATOM      9  O   UNL     1      10.332  -3.607  24.271  0.00  0.00    -0.283 OA
ATOM     10  C   UNL     1       6.389  -3.558  26.853  0.00  0.00    +0.093 A 
ATOM     11  C   UNL     1       8.919  -1.677  24.046  0.00  0.00    +0.213 A 
ENDROOT
BRANCH   1  15
ATOM     12  C   UNL     1       6.933   3.097  24.398  0.00  0.00    +0.165 A 
ATOM     13  C   UNL     1       5.994   2.117  24.074  0.00  0.00    +0.050 A 
ATOM     14  C   UNL     1       6.340   0.771  24.142  0.00  0.00    +0.015 A 
ATOM     15  C   UNL     1       7.625   0.376  24.536  0.00  0.00    +0.025 A 
ATOM     16  C   UNL     1       8.600   1.357  24.757  0.00  0.00    +0.061 A 
ATOM     17  C   UNL     1       8.267   2.723  24.656  0.00  0.00    +0.166 A 
BRANCH  12  18
ATOM     18  O   UNL     1       6.608   4.434  24.464  0.00  0.00    -0.463 OA
BRANCH  18  19
ATOM     19  C   UNL     1       5.997   4.950  23.277  0.00  0.00    +0.394 C 
BRANCH  19  21
ATOM     20  C   UNL     1       7.508   6.351  22.118  0.00  0.00    +0.198 C 
ATOM     21  O   UNL     1       6.910   5.066  22.184  0.00  0.00    -0.347 OA
ENDBRANCH  19  21
ENDBRANCH  18  19
ENDBRANCH  12  18
BRANCH  17  22
ATOM     22  O   UNL     1       9.153   3.761  24.804  0.00  0.00    -0.463 OA
BRANCH  22  23
ATOM     23  C   UNL     1      10.040   4.035  23.727  0.00  0.00    +0.394 C 
BRANCH  23  24
ATOM     24  O   UNL     1      10.537   5.376  23.772  0.00  0.00    -0.347 OA
ATOM     25  C   UNL     1      11.949   5.422  23.612  0.00  0.00    +0.198 C 
ENDBRANCH  23  24
ENDBRANCH  22  23
ENDBRANCH  17  22
ENDBRANCH   1  15
BRANCH   5  26
ATOM     26  O   UNL     1       9.803  -5.639  25.739  0.00  0.00    -0.506 OA
ATOM     27  H   UNL     1       9.660  -6.572  26.016  0.00  0.00    +0.292 HD
ENDBRANCH   5  26
BRANCH   7  28
ATOM     28  O   UNL     1       5.718  -5.325  28.225  0.00  0.00    -0.466 OA
BRANCH  28  29
ATOM     29  C   UNL     1       5.108  -6.556  27.839  0.00  0.00    +0.394 C 
BRANCH  29  30
ATOM     30  O   UNL     1       4.000  -6.324  26.968  0.00  0.00    -0.347 OA
ATOM     31  C   UNL     1       4.129  -7.069  25.764  0.00  0.00    +0.198 C 
ENDBRANCH  29  30
ENDBRANCH  28  29
ENDBRANCH   7  28
BRANCH  11  32
ATOM     32  O   UNL     1       9.688  -1.047  23.071  0.00  0.00    -0.459 OA
BRANCH  32  33
ATOM     33  C   UNL     1       9.024  -0.902  21.805  0.00  0.00    +0.394 C 
BRANCH  33  34
ATOM     34  O   UNL     1       9.421   0.282  21.114  0.00  0.00    -0.347 OA
ATOM     35  C   UNL     1       8.410   1.276  21.156  0.00  0.00    +0.198 C 
ENDBRANCH  33  34
ENDBRANCH  32  33
ENDBRANCH  11  32
TORSDOF 14
ENDMDL
MODEL 7
REMARK VINA RESULT:      -5.8      2.491      9.201
REMARK  Name = 
REMARK  18 active torsions:
REMARK  status: ('A' for Active; 'I' for Inactive)
REMARK    1  A    between atoms: C_1  and  O_2
REMARK    2  A    between atoms: O_2  and  C_3
REMARK    3  A    between atoms: C_3  and  O_4
REMARK    4  A    between atoms: O_4  and  C_5
REMARK    5  A    between atoms: C_6  and  O_31
REMARK    6  A    between atoms: C_8  and  C_11
REMARK    7  A    between atoms: C_12  and  O_27
REMARK    8  A    between atoms: C_16  and  O_26
REMARK    9  A    between atoms: C_18  and  O_22
REMARK   10  A    between atoms: O_22  and  C_23
REMARK   11  A    between atoms: C_23  and  O_24
REMARK   12  A    between atoms: O_24  and  C_25
REMARK   13  A    between atoms: O_27  and  C_28
REMARK   14  A    between atoms: C_28  and  O_29
REMARK   15  A    between atoms: O_29  and  C_30
REMARK   16  A    between atoms: O_31  and  C_32
REMARK   17  A    between atoms: C_32  and  O_33
REMARK   18  A    between atoms: O_33  and  C_34
REMARK                            x       y       z     vdW  Elec       q    Type
REMARK                         _______ _______ _______ _____ _____    ______ ____
ROOT
ATOM      1  C   UNL     1       7.350   0.603  24.217  0.00  0.00    +0.181 A 
ATOM      2  O   UNL     1       8.474   1.314  23.822  0.00  0.00    -0.451 OA
ATOM      3  C   UNL     1       8.576   2.633  24.178  0.00  0.00    +0.147 A 
ATOM      4  C   UNL     1       7.637   3.267  24.972  0.00  0.00    +0.109 A 
ATOM      5  C   UNL     1       7.828   4.589  25.384  0.00  0.00    +0.135 A 
ATOM      6  C   UNL     1       8.955   5.290  24.972  0.00  0.00    +0.092 A 
ATOM      7  C   UNL     1       9.894   4.667  24.150  0.00  0.00    +0.131 A 
ATOM      8  C   UNL     1       6.444   2.522  25.372  0.00  0.00    +0.238 A 
ATOM      9  O   UNL     1       5.644   3.063  26.132  0.00  0.00    -0.283 OA
ATOM     10  C   UNL     1       9.698   3.340  23.743  0.00  0.00    +0.093 A 
ATOM     11  C   UNL     1       6.286   1.123  24.870  0.00  0.00    +0.213 A 
ENDROOT
BRANCH   1  15
ATOM     12  C   UNL     1       7.821  -3.584  23.445  0.00  0.00    +0.165 A 
ATOM     13  C   UNL     1       6.977  -2.786  22.672  0.00  0.00    +0.050 A 
ATOM     14  C   UNL     1       6.832  -1.434  22.967  0.00  0.00    +0.015 A 
ATOM     15  C   UNL     1       7.525  -0.852  24.036  0.00  0.00    +0.025 A 
ATOM     16  C   UNL     1       8.288  -1.670  24.879  0.00  0.00    +0.061 A 
ATOM     17  C   UNL     1       8.412  -3.048  24.607  0.00  0.00    +0.166 A 
BRANCH  12  18
ATOM     18  O   UNL     1       8.094  -4.896  23.123  0.00  0.00    -0.463 OA
BRANCH  18  19
ATOM     19  C   UNL     1       6.933  -5.727  23.010  0.00  0.00    +0.394 C 
BRANCH  19  21
ATOM     20  C   UNL     1       6.171  -5.822  20.774  0.00  0.00    +0.198 C 
ATOM     21  O   UNL     1       6.903  -6.480  21.796  0.00  0.00    -0.347 OA
ENDBRANCH  19  21
ENDBRANCH  18  19
ENDBRANCH  12  18
BRANCH  17  22
ATOM     22  O   UNL     1       9.092  -3.946  25.391  0.00  0.00    -0.463 OA
BRANCH  22  23
ATOM     23  C   UNL     1       8.497  -4.334  26.624  0.00  0.00    +0.394 C 
BRANCH  23  24
ATOM     24  O   UNL     1       7.885  -5.626  26.539  0.00  0.00    -0.347 OA
ATOM     25  C   UNL     1       6.470  -5.548  26.650  0.00  0.00    +0.198 C 
ENDBRANCH  23  24
ENDBRANCH  22  23
ENDBRANCH  17  22
ENDBRANCH   1  15
BRANCH   5  26
ATOM     26  O   UNL     1       6.958   5.261  26.199  0.00  0.00    -0.506 OA
ATOM     27  H   UNL     1       7.363   5.326  27.094  0.00  0.00    +0.292 HD
ENDBRANCH   5  26
BRANCH   7  28
ATOM     28  O   UNL     1      11.018   5.263  23.655  0.00  0.00    -0.466 OA
BRANCH  28  29
ATOM     29  C   UNL     1      12.093   4.388  23.313  0.00  0.00    +0.394 C 
BRANCH  29  30
ATOM     30  O   UNL     1      13.334   5.093  23.285  0.00  0.00    -0.347 OA
ATOM     31  C   UNL     1      13.510   5.774  22.050  0.00  0.00    +0.198 C 
ENDBRANCH  29  30
ENDBRANCH  28  29
ENDBRANCH   7  28
BRANCH  11  32
ATOM     32  O   UNL     1       5.148   0.376  25.162  0.00  0.00    -0.459 OA
BRANCH  32  33
ATOM     33  C   UNL     1       5.115  -0.142  26.502  0.00  0.00    +0.394 C 
BRANCH  33  34
ATOM     34  O   UNL     1       5.218  -1.566  26.538  0.00  0.00    -0.347 OA
ATOM     35  C   UNL     1       4.206  -2.142  27.348  0.00  0.00    +0.198 C 
ENDBRANCH  33  34
ENDBRANCH  32  33
ENDBRANCH  11  32
TORSDOF 14
ENDMDL
MODEL 8
REMARK VINA RESULT:      -5.7      2.408      8.936
REMARK  Name = 
REMARK  18 active torsions:
REMARK  status: ('A' for Active; 'I' for Inactive)
REMARK    1  A    between atoms: C_1  and  O_2
REMARK    2  A    between atoms: O_2  and  C_3
REMARK    3  A    between atoms: C_3  and  O_4
REMARK    4  A    between atoms: O_4  and  C_5
REMARK    5  A    between atoms: C_6  and  O_31
REMARK    6  A    between atoms: C_8  and  C_11
REMARK    7  A    between atoms: C_12  and  O_27
REMARK    8  A    between atoms: C_16  and  O_26
REMARK    9  A    between atoms: C_18  and  O_22
REMARK   10  A    between atoms: O_22  and  C_23
REMARK   11  A    between atoms: C_23  and  O_24
REMARK   12  A    between atoms: O_24  and  C_25
REMARK   13  A    between atoms: O_27  and  C_28
REMARK   14  A    between atoms: C_28  and  O_29
REMARK   15  A    between atoms: O_29  and  C_30
REMARK   16  A    between atoms: O_31  and  C_32
REMARK   17  A    between atoms: C_32  and  O_33
REMARK   18  A    between atoms: O_33  and  C_34
REMARK                            x       y       z     vdW  Elec       q    Type
REMARK                         _______ _______ _______ _____ _____    ______ ____
ROOT
ATOM      1  C   UNL     1       6.280  -2.826  24.286  0.00  0.00    +0.181 A 
ATOM      2  O   UNL     1       6.263  -1.572  23.694  0.00  0.00    -0.451 OA
ATOM      3  C   UNL     1       7.438  -1.056  23.212  0.00  0.00    +0.147 A 
ATOM      4  C   UNL     1       8.627  -1.762  23.233  0.00  0.00    +0.109 A 
ATOM      5  C   UNL     1       9.781  -1.231  22.649  0.00  0.00    +0.135 A 
ATOM      6  C   UNL     1       9.749   0.030  22.067  0.00  0.00    +0.092 A 
ATOM      7  C   UNL     1       8.560   0.760  22.066  0.00  0.00    +0.131 A 
ATOM      8  C   UNL     1       8.647  -3.076  23.874  0.00  0.00    +0.238 A 
ATOM      9  O   UNL     1       9.687  -3.731  23.833  0.00  0.00    -0.283 OA
ATOM     10  C   UNL     1       7.406   0.221  22.650  0.00  0.00    +0.093 A 
ATOM     11  C   UNL     1       7.387  -3.571  24.507  0.00  0.00    +0.213 A 
ENDROOT
BRANCH   1  15
ATOM     12  C   UNL     1       2.287  -4.216  24.971  0.00  0.00    +0.165 A 
ATOM     13  C   UNL     1       3.015  -3.559  25.964  0.00  0.00    +0.050 A 
ATOM     14  C   UNL     1       4.319  -3.142  25.712  0.00  0.00    +0.015 A 
ATOM     15  C   UNL     1       4.920  -3.370  24.467  0.00  0.00    +0.025 A 
ATOM     16  C   UNL     1       4.232  -4.123  23.507  0.00  0.00    +0.061 A 
ATOM     17  C   UNL     1       2.924  -4.579  23.768  0.00  0.00    +0.166 A 
BRANCH  12  18
ATOM     18  O   UNL     1       0.957  -4.540  25.126  0.00  0.00    -0.463 OA
BRANCH  18  19
ATOM     19  C   UNL     1       0.674  -5.322  26.292  0.00  0.00    +0.394 C 
BRANCH  19  21
ATOM     20  C   UNL     1       1.776  -6.917  27.646  0.00  0.00    +0.198 C 
ATOM     21  O   UNL     1       1.401  -6.552  26.328  0.00  0.00    -0.347 OA
ENDBRANCH  19  21
ENDBRANCH  18  19
ENDBRANCH  12  18
BRANCH  17  22
ATOM     22  O   UNL     1       2.181  -5.362  22.920  0.00  0.00    -0.463 OA
BRANCH  22  23
ATOM     23  C   UNL     1       2.389  -6.769  22.963  0.00  0.00    +0.394 C 
BRANCH  23  24
ATOM     24  O   UNL     1       1.160  -7.494  22.856  0.00  0.00    -0.347 OA
ATOM     25  C   UNL     1       1.199  -8.710  23.590  0.00  0.00    +0.198 C 
ENDBRANCH  23  24
ENDBRANCH  22  23
ENDBRANCH  17  22
ENDBRANCH   1  15
BRANCH   5  26
ATOM     26  O   UNL     1      10.978  -1.893  22.601  0.00  0.00    -0.506 OA
ATOM     27  H   UNL     1      11.653  -1.341  23.059  0.00  0.00    +0.292 HD
ENDBRANCH   5  26
BRANCH   7  28
ATOM     28  O   UNL     1       8.416   2.020  21.557  0.00  0.00    -0.466 OA
BRANCH  28  29
ATOM     29  C   UNL     1       8.041   3.033  22.490  0.00  0.00    +0.394 C 
BRANCH  29  30
ATOM     30  O   UNL     1       9.118   3.329  23.380  0.00  0.00    -0.347 OA
ATOM     31  C   UNL     1       8.665   4.070  24.505  0.00  0.00    +0.198 C 
ENDBRANCH  29  30
ENDBRANCH  28  29
ENDBRANCH   7  28
BRANCH  11  32
ATOM     32  O   UNL     1       7.350  -4.785  25.187  0.00  0.00    -0.459 OA
BRANCH  32  33
ATOM     33  C   UNL     1       8.002  -4.758  26.468  0.00  0.00    +0.394 C 
BRANCH  33  34
ATOM     34  O   UNL     1       7.083  -4.560  27.543  0.00  0.00    -0.347 OA
ATOM     35  C   UNL     1       6.181  -5.647  27.667  0.00  0.00    +0.198 C 
ENDBRANCH  33  34
ENDBRANCH  32  33
ENDBRANCH  11  32
TORSDOF 14
ENDMDL
MODEL 9
REMARK VINA RESULT:      -5.5      2.373      8.005
REMARK  Name = 
REMARK  18 active torsions:
REMARK  status: ('A' for Active; 'I' for Inactive)
REMARK    1  A    between atoms: C_1  and  O_2
REMARK    2  A    between atoms: O_2  and  C_3
REMARK    3  A    between atoms: C_3  and  O_4
REMARK    4  A    between atoms: O_4  and  C_5
REMARK    5  A    between atoms: C_6  and  O_31
REMARK    6  A    between atoms: C_8  and  C_11
REMARK    7  A    between atoms: C_12  and  O_27
REMARK    8  A    between atoms: C_16  and  O_26
REMARK    9  A    between atoms: C_18  and  O_22
REMARK   10  A    between atoms: O_22  and  C_23
REMARK   11  A    between atoms: C_23  and  O_24
REMARK   12  A    between atoms: O_24  and  C_25
REMARK   13  A    between atoms: O_27  and  C_28
REMARK   14  A    between atoms: C_28  and  O_29
REMARK   15  A    between atoms: O_29  and  C_30
REMARK   16  A    between atoms: O_31  and  C_32
REMARK   17  A    between atoms: C_32  and  O_33
REMARK   18  A    between atoms: O_33  and  C_34
REMARK                            x       y       z     vdW  Elec       q    Type
REMARK                         _______ _______ _______ _____ _____    ______ ____
ROOT
ATOM      1  C   UNL     1       6.953  -0.693  23.560  0.00  0.00    +0.181 A 
ATOM      2  O   UNL     1       5.979   0.096  24.152  0.00  0.00    -0.451 OA
ATOM      3  C   UNL     1       5.988   1.446  23.913  0.00  0.00    +0.147 A 
ATOM      4  C   UNL     1       6.890   2.044  23.050  0.00  0.00    +0.109 A 
ATOM      5  C   UNL     1       6.805   3.410  22.767  0.00  0.00    +0.135 A 
ATOM      6  C   UNL     1       5.828   4.187  23.376  0.00  0.00    +0.092 A 
ATOM      7  C   UNL     1       4.932   3.597  24.267  0.00  0.00    +0.131 A 
ATOM      8  C   UNL     1       7.928   1.214  22.441  0.00  0.00    +0.238 A 
ATOM      9  O   UNL     1       8.686   1.732  21.623  0.00  0.00    -0.283 OA
ATOM     10  C   UNL     1       5.020   2.226  24.544  0.00  0.00    +0.093 A 
ATOM     11  C   UNL     1       7.982  -0.233  22.812  0.00  0.00    +0.213 A 
ENDROOT
BRANCH   1  15
ATOM     12  C   UNL     1       5.963  -4.860  23.590  0.00  0.00    +0.165 A 
ATOM     13  C   UNL     1       5.308  -3.957  22.751  0.00  0.00    +0.050 A 
ATOM     14  C   UNL     1       5.641  -2.606  22.787  0.00  0.00    +0.015 A 
ATOM     15  C   UNL     1       6.633  -2.130  23.654  0.00  0.00    +0.025 A 
ATOM     16  C   UNL     1       7.215  -3.015  24.572  0.00  0.00    +0.061 A 
ATOM     17  C   UNL     1       6.858  -4.378  24.566  0.00  0.00    +0.166 A 
BRANCH  12  18
ATOM     18  O   UNL     1       5.758  -6.220  23.509  0.00  0.00    -0.463 OA
BRANCH  18  19
ATOM     19  C   UNL     1       4.450  -6.642  23.909  0.00  0.00    +0.394 C 
BRANCH  19  21
ATOM     20  C   UNL     1       2.663  -6.132  25.370  0.00  0.00    +0.198 C 
ATOM     21  O   UNL     1       4.070  -6.142  25.193  0.00  0.00    -0.347 OA
ENDBRANCH  19  21
ENDBRANCH  18  19
ENDBRANCH  12  18
BRANCH  17  22
ATOM     22  O   UNL     1       7.329  -5.318  25.449  0.00  0.00    -0.463 OA
BRANCH  22  23
ATOM     23  C   UNL     1       7.872  -4.857  26.681  0.00  0.00    +0.394 C 
BRANCH  23  24
ATOM     24  O   UNL     1       7.509  -5.706  27.775  0.00  0.00    -0.347 OA
ATOM     25  C   UNL     1       6.117  -5.638  28.056  0.00  0.00    +0.198 C 
ENDBRANCH  23  24
ENDBRANCH  22  23
ENDBRANCH  17  22
ENDBRANCH   1  15
BRANCH   5  26
ATOM     26  O   UNL     1       7.640   4.055  21.895  0.00  0.00    -0.506 OA
ATOM     27  H   UNL     1       8.038   4.824  22.363  0.00  0.00    +0.292 HD
ENDBRANCH   5  26
BRANCH   7  28
ATOM     28  O   UNL     1       3.955   4.264  24.951  0.00  0.00    -0.466 OA
BRANCH  28  29
ATOM     29  C   UNL     1       2.626   3.769  24.786  0.00  0.00    +0.394 C 
BRANCH  29  30
ATOM     30  O   UNL     1       2.048   4.258  23.574  0.00  0.00    -0.347 OA
ATOM     31  C   UNL     1       1.587   3.189  22.758  0.00  0.00    +0.198 C 
ENDBRANCH  29  30
ENDBRANCH  28  29
ENDBRANCH   7  28
BRANCH  11  32
ATOM     32  O   UNL     1       8.980  -1.068  22.316  0.00  0.00    -0.459 OA
BRANCH  32  33
ATOM     33  C   UNL     1      10.096  -1.238  23.206  0.00  0.00    +0.394 C 
BRANCH  33  34
ATOM     34  O   UNL     1      10.815  -0.023  23.417  0.00  0.00    -0.347 OA
ATOM     35  C   UNL     1      10.777   0.378  24.778  0.00  0.00    +0.198 C 
ENDBRANCH  33  34
ENDBRANCH  32  33
ENDBRANCH  11  32
TORSDOF 14
ENDMDL
