MODEL 1
REMARK VINA RESULT:      -7.2      0.000      0.000
REMARK  Name = 
REMARK  18 active torsions:
REMARK  status: ('A' for Active; 'I' for Inactive)
REMARK    1  A    between atoms: C_3  and  O_54
REMARK    2  A    between atoms: C_4  and  O_53
REMARK    3  A    between atoms: C_6  and  C_7
REMARK    4  A    between atoms: C_8  and  O_20
REMARK    5  A    between atoms: C_12  and  O_19
REMARK    6  A    between atoms: C_14  and  O_18
REMARK    7  A    between atoms: O_20  and  C_21
REMARK    8  A    between atoms: C_23  and  O_52
REMARK    9  A    between atoms: C_25  and  O_51
REMARK   10  A    between atoms: C_27  and  C_34
REMARK   11  A    between atoms: C_29  and  C_32
REMARK   12  A    between atoms: C_32  and  O_33
REMARK   13  A    between atoms: C_34  and  C_35
REMARK   14  A    between atoms: C_37  and  O_50
REMARK   15  A    between atoms: C_39  and  O_49
REMARK   16  A    between atoms: C_41  and  O_48
REMARK   17  A    between atoms: C_43  and  C_46
REMARK   18  A    between atoms: C_46  and  O_47
REMARK                            x       y       z     vdW  Elec       q    Type
REMARK                         _______ _______ _______ _____ _____    ______ ____
ROOT
ATOM      1  C   UNL     1       7.238   0.218  25.733  0.00  0.00    +0.339 C 
ATOM      2  O   UNL     1       7.450   1.211  26.743  0.00  0.00    -0.334 OA
ATOM      3  C   UNL     1       6.492   2.274  26.969  0.00  0.00    +0.153 C 
ATOM      4  C   UNL     1       4.969   1.873  26.868  0.00  0.00    +0.054 C 
ATOM      5  C   UNL     1       4.916   0.365  26.677  0.00  0.00    +0.155 C 
ATOM      6  C   UNL     1       5.738  -0.002  25.447  0.00  0.00    +0.211 C 
ENDROOT
BRANCH   5   7
ATOM      7  O   UNL     1       5.373  -0.316  27.866  0.00  0.00    -0.389 OA
ATOM      8  H   UNL     1       4.718  -0.151  28.571  0.00  0.00    +0.210 HD
ENDBRANCH   5   7
BRANCH   6   9
ATOM      9  O   UNL     1       5.318   0.756  24.297  0.00  0.00    -0.383 OA
ATOM     10  H   UNL     1       5.225   1.692  24.557  0.00  0.00    +0.210 HD
ENDBRANCH   6   9
BRANCH   1  11
ATOM     11  O   UNL     1       7.805  -1.027  26.216  0.00  0.00    -0.453 OA
BRANCH  11  22
ATOM     12  C   UNL     1       8.620  -2.016  24.147  0.00  0.00    +0.181 A 
ATOM     13  O   UNL     1       8.585  -3.055  23.193  0.00  0.00    -0.451 OA
ATOM     14  C   UNL     1       7.554  -3.958  23.255  0.00  0.00    +0.147 A 
ATOM     15  C   UNL     1       6.819  -4.127  24.408  0.00  0.00    +0.109 A 
ATOM     16  C   UNL     1       5.731  -5.009  24.483  0.00  0.00    +0.135 A 
ATOM     17  C   UNL     1       5.387  -5.756  23.382  0.00  0.00    +0.091 A 
ATOM     18  C   UNL     1       6.152  -5.633  22.221  0.00  0.00    +0.124 A 
ATOM     19  C   UNL     1       7.210  -3.359  25.551  0.00  0.00    +0.238 A 
ATOM     20  O   UNL     1       6.830  -3.778  26.637  0.00  0.00    -0.283 OA
ATOM     21  C   UNL     1       7.223  -4.742  22.143  0.00  0.00    +0.092 A 
ATOM     22  C   UNL     1       7.918  -2.072  25.309  0.00  0.00    +0.214 A 
BRANCH  12  24
ATOM     23  C   UNL     1      10.451  -0.237  24.408  0.00  0.00    +0.015 A 
ATOM     24  C   UNL     1       9.390  -0.812  23.678  0.00  0.00    +0.025 A 
ATOM     25  C   UNL     1       8.996  -0.148  22.500  0.00  0.00    +0.060 A 
ATOM     26  C   UNL     1       9.493   1.119  22.202  0.00  0.00    +0.159 A 
ATOM     27  C   UNL     1      10.415   1.737  23.037  0.00  0.00    +0.158 A 
ATOM     28  C   UNL     1      10.943   1.043  24.110  0.00  0.00    +0.050 A 
BRANCH  26  29
ATOM     29  O   UNL     1       9.013   1.786  21.110  0.00  0.00    -0.503 OA
ATOM     30  H   UNL     1       8.744   1.079  20.489  0.00  0.00    +0.292 HD
ENDBRANCH  26  29
BRANCH  27  31
ATOM     31  O   UNL     1      10.745   3.038  22.778  0.00  0.00    -0.503 OA
ATOM     32  H   UNL     1       9.941   3.487  22.457  0.00  0.00    +0.292 HD
ENDBRANCH  27  31
ENDBRANCH  12  24
BRANCH  18  33
ATOM     33  O   UNL     1       5.864  -6.392  21.133  0.00  0.00    -0.507 OA
ATOM     34  H   UNL     1       6.612  -6.993  20.968  0.00  0.00    +0.292 HD
ENDBRANCH  18  33
BRANCH  16  35
ATOM     35  O   UNL     1       4.978  -5.165  25.619  0.00  0.00    -0.506 OA
ATOM     36  H   UNL     1       4.066  -4.864  25.419  0.00  0.00    +0.292 HD
ENDBRANCH  16  35
ENDBRANCH  11  22
ENDBRANCH   1  11
BRANCH   3  37
ATOM     37  C   UNL     1       6.818   2.687  28.434  0.00  0.00    +0.187 C 
BRANCH  37  38
ATOM     38  O   UNL     1       7.568   1.692  29.139  0.00  0.00    -0.392 OA
ATOM     39  H   UNL     1       8.430   1.589  28.704  0.00  0.00    +0.210 HD
ENDBRANCH  37  38
ENDBRANCH   3  37
BRANCH   4  40
ATOM     40  C   UNL     1       4.178   2.692  25.780  0.00  0.00    +0.043 C 
BRANCH  40  41
ATOM     41  C   UNL     1       4.888   3.945  25.111  0.00  0.00    +0.150 C 
ATOM     42  O   UNL     1       5.504   3.487  23.893  0.00  0.00    -0.366 OA
ATOM     43  C   UNL     1       5.878   4.445  22.875  0.00  0.00    +0.175 C 
ATOM     44  C   UNL     1       4.807   5.517  22.610  0.00  0.00    +0.176 C 
ATOM     45  C   UNL     1       4.343   6.164  23.921  0.00  0.00    +0.176 C 
ATOM     46  C   UNL     1       3.843   5.074  24.883  0.00  0.00    +0.174 C 
BRANCH  44  47
ATOM     47  O   UNL     1       3.692   4.881  21.958  0.00  0.00    -0.386 OA
ATOM     48  H   UNL     1       3.941   4.732  21.027  0.00  0.00    +0.210 HD
ENDBRANCH  44  47
BRANCH  45  49
ATOM     49  O   UNL     1       5.354   7.011  24.467  0.00  0.00    -0.386 OA
ATOM     50  H   UNL     1       5.224   7.928  24.167  0.00  0.00    +0.210 HD
ENDBRANCH  45  49
BRANCH  46  51
ATOM     51  O   UNL     1       2.626   4.527  24.355  0.00  0.00    -0.387 OA
ATOM     52  H   UNL     1       2.900   3.786  23.771  0.00  0.00    +0.210 HD
ENDBRANCH  46  51
BRANCH  43  53
ATOM     53  C   UNL     1       7.278   5.076  23.031  0.00  0.00    +0.190 C 
BRANCH  53  54
ATOM     54  O   UNL     1       8.268   4.436  22.235  0.00  0.00    -0.392 OA
ATOM     55  H   UNL     1       7.829   4.062  21.451  0.00  0.00    +0.210 HD
ENDBRANCH  53  54
ENDBRANCH  43  53
ENDBRANCH  40  41
ENDBRANCH   4  40
TORSDOF 18
ENDMDL
MODEL 2
REMARK VINA RESULT:      -6.9      2.243      8.397
REMARK  Name = 
REMARK  18 active torsions:
REMARK  status: ('A' for Active; 'I' for Inactive)
REMARK    1  A    between atoms: C_3  and  O_54
REMARK    2  A    between atoms: C_4  and  O_53
REMARK    3  A    between atoms: C_6  and  C_7
REMARK    4  A    between atoms: C_8  and  O_20
REMARK    5  A    between atoms: C_12  and  O_19
REMARK    6  A    between atoms: C_14  and  O_18
REMARK    7  A    between atoms: O_20  and  C_21
REMARK    8  A    between atoms: C_23  and  O_52
REMARK    9  A    between atoms: C_25  and  O_51
REMARK   10  A    between atoms: C_27  and  C_34
REMARK   11  A    between atoms: C_29  and  C_32
REMARK   12  A    between atoms: C_32  and  O_33
REMARK   13  A    between atoms: C_34  and  C_35
REMARK   14  A    between atoms: C_37  and  O_50
REMARK   15  A    between atoms: C_39  and  O_49
REMARK   16  A    between atoms: C_41  and  O_48
REMARK   17  A    between atoms: C_43  and  C_46
REMARK   18  A    between atoms: C_46  and  O_47
REMARK                            x       y       z     vdW  Elec       q    Type
REMARK                         _______ _______ _______ _____ _____    ______ ____
ROOT
ATOM      1  C   UNL     1       7.447  -2.220  26.023  0.00  0.00    +0.339 C 
ATOM      2  O   UNL     1       8.131  -3.436  26.351  0.00  0.00    -0.334 OA
ATOM      3  C   UNL     1       8.135  -4.567  25.446  0.00  0.00    +0.153 C 
ATOM      4  C   UNL     1       8.267  -4.229  23.909  0.00  0.00    +0.054 C 
ATOM      5  C   UNL     1       8.496  -2.729  23.800  0.00  0.00    +0.155 C 
ATOM      6  C   UNL     1       7.350  -2.006  24.499  0.00  0.00    +0.211 C 
ENDROOT
BRANCH   5   7
ATOM      7  O   UNL     1       9.786  -2.370  24.344  0.00  0.00    -0.389 OA
ATOM      8  H   UNL     1      10.361  -2.116  23.597  0.00  0.00    +0.210 HD
ENDBRANCH   5   7
BRANCH   6   9
ATOM      9  O   UNL     1       6.076  -2.449  23.998  0.00  0.00    -0.383 OA
ATOM     10  H   UNL     1       6.119  -3.411  23.839  0.00  0.00    +0.210 HD
ENDBRANCH   6   9
BRANCH   1  11
ATOM     11  O   UNL     1       8.203  -1.124  26.599  0.00  0.00    -0.453 OA
BRANCH  11  22
ATOM     12  C   UNL     1       6.836   0.867  26.295  0.00  0.00    +0.181 A 
ATOM     13  O   UNL     1       6.591   2.092  25.640  0.00  0.00    -0.451 OA
ATOM     14  C   UNL     1       7.319   2.382  24.514  0.00  0.00    +0.147 A 
ATOM     15  C   UNL     1       8.511   1.746  24.249  0.00  0.00    +0.109 A 
ATOM     16  C   UNL     1       9.252   1.991  23.083  0.00  0.00    +0.135 A 
ATOM     17  C   UNL     1       8.795   2.913  22.172  0.00  0.00    +0.091 A 
ATOM     18  C   UNL     1       7.613   3.602  22.449  0.00  0.00    +0.124 A 
ATOM     19  C   UNL     1       8.983   0.809  25.223  0.00  0.00    +0.238 A 
ATOM     20  O   UNL     1      10.179   0.548  25.185  0.00  0.00    -0.283 OA
ATOM     21  C   UNL     1       6.870   3.345  23.601  0.00  0.00    +0.092 A 
ATOM     22  C   UNL     1       7.971   0.147  26.092  0.00  0.00    +0.214 A 
BRANCH  12  24
ATOM     23  C   UNL     1       5.614   0.484  28.519  0.00  0.00    +0.015 A 
ATOM     24  C   UNL     1       5.666   0.392  27.112  0.00  0.00    +0.025 A 
ATOM     25  C   UNL     1       4.593  -0.264  26.478  0.00  0.00    +0.060 A 
ATOM     26  C   UNL     1       3.650  -0.965  27.227  0.00  0.00    +0.159 A 
ATOM     27  C   UNL     1       3.725  -1.000  28.613  0.00  0.00    +0.158 A 
ATOM     28  C   UNL     1       4.668  -0.231  29.270  0.00  0.00    +0.050 A 
BRANCH  26  29
ATOM     29  O   UNL     1       2.682  -1.683  26.582  0.00  0.00    -0.503 OA
ATOM     30  H   UNL     1       2.584  -2.497  27.115  0.00  0.00    +0.292 HD
ENDBRANCH  26  29
BRANCH  27  31
ATOM     31  O   UNL     1       2.869  -1.830  29.282  0.00  0.00    -0.503 OA
ATOM     32  H   UNL     1       3.362  -2.224  30.024  0.00  0.00    +0.292 HD
ENDBRANCH  27  31
ENDBRANCH  12  24
BRANCH  18  33
ATOM     33  O   UNL     1       7.163   4.552  21.589  0.00  0.00    -0.507 OA
ATOM     34  H   UNL     1       6.192   4.596  21.659  0.00  0.00    +0.292 HD
ENDBRANCH  18  33
BRANCH  16  35
ATOM     35  O   UNL     1      10.427   1.344  22.799  0.00  0.00    -0.506 OA
ATOM     36  H   UNL     1      10.975   1.944  22.248  0.00  0.00    +0.292 HD
ENDBRANCH  16  35
ENDBRANCH  11  22
ENDBRANCH   1  11
BRANCH   3  37
ATOM     37  C   UNL     1       9.403  -5.340  25.912  0.00  0.00    +0.187 C 
BRANCH  37  38
ATOM     38  O   UNL     1      10.452  -5.329  24.938  0.00  0.00    -0.392 OA
ATOM     39  H   UNL     1      11.304  -5.271  25.402  0.00  0.00    +0.210 HD
ENDBRANCH  37  38
ENDBRANCH   3  37
BRANCH   4  40
ATOM     40  C   UNL     1       7.064  -4.765  23.046  0.00  0.00    +0.043 C 
BRANCH  40  41
ATOM     41  C   UNL     1       5.978  -5.685  23.749  0.00  0.00    +0.150 C 
ATOM     42  O   UNL     1       5.745  -5.146  25.063  0.00  0.00    -0.366 OA
ATOM     43  C   UNL     1       4.546  -5.510  25.786  0.00  0.00    +0.175 C 
ATOM     44  C   UNL     1       3.273  -5.494  24.923  0.00  0.00    +0.176 C 
ATOM     45  C   UNL     1       3.477  -6.292  23.629  0.00  0.00    +0.176 C 
ATOM     46  C   UNL     1       4.696  -5.739  22.871  0.00  0.00    +0.174 C 
BRANCH  44  47
ATOM     47  O   UNL     1       2.967  -4.122  24.608  0.00  0.00    -0.386 OA
ATOM     48  H   UNL     1       2.954  -3.623  25.446  0.00  0.00    +0.210 HD
ENDBRANCH  44  47
BRANCH  45  49
ATOM     49  O   UNL     1       3.533  -7.694  23.888  0.00  0.00    -0.386 OA
ATOM     50  H   UNL     1       3.190  -7.886  24.778  0.00  0.00    +0.210 HD
ENDBRANCH  45  49
BRANCH  46  51
ATOM     51  O   UNL     1       4.370  -4.429  22.385  0.00  0.00    -0.387 OA
ATOM     52  H   UNL     1       3.805  -4.021  23.077  0.00  0.00    +0.210 HD
ENDBRANCH  46  51
BRANCH  43  53
ATOM     53  C   UNL     1       4.638  -6.803  26.626  0.00  0.00    +0.190 C 
BRANCH  53  54
ATOM     54  O   UNL     1       3.367  -7.382  26.896  0.00  0.00    -0.392 OA
ATOM     55  H   UNL     1       3.512  -8.235  27.339  0.00  0.00    +0.210 HD
ENDBRANCH  53  54
ENDBRANCH  43  53
ENDBRANCH  40  41
ENDBRANCH   4  40
TORSDOF 18
ENDMDL
MODEL 3
REMARK VINA RESULT:      -6.7      1.995      2.938
REMARK  Name = 
REMARK  18 active torsions:
REMARK  status: ('A' for Active; 'I' for Inactive)
REMARK    1  A    between atoms: C_3  and  O_54
REMARK    2  A    between atoms: C_4  and  O_53
REMARK    3  A    between atoms: C_6  and  C_7
REMARK    4  A    between atoms: C_8  and  O_20
REMARK    5  A    between atoms: C_12  and  O_19
REMARK    6  A    between atoms: C_14  and  O_18
REMARK    7  A    between atoms: O_20  and  C_21
REMARK    8  A    between atoms: C_23  and  O_52
REMARK    9  A    between atoms: C_25  and  O_51
REMARK   10  A    between atoms: C_27  and  C_34
REMARK   11  A    between atoms: C_29  and  C_32
REMARK   12  A    between atoms: C_32  and  O_33
REMARK   13  A    between atoms: C_34  and  C_35
REMARK   14  A    between atoms: C_37  and  O_50
REMARK   15  A    between atoms: C_39  and  O_49
REMARK   16  A    between atoms: C_41  and  O_48
REMARK   17  A    between atoms: C_43  and  C_46
REMARK   18  A    between atoms: C_46  and  O_47
REMARK                            x       y       z     vdW  Elec       q    Type
REMARK                         _______ _______ _______ _____ _____    ______ ____
ROOT
ATOM      1  C   UNL     1       6.673  -1.191  26.061  0.00  0.00    +0.339 C 
ATOM      2  O   UNL     1       7.710  -0.506  25.348  0.00  0.00    -0.334 OA
ATOM      3  C   UNL     1       7.707   0.937  25.215  0.00  0.00    +0.153 C 
ATOM      4  C   UNL     1       7.246   1.752  26.486  0.00  0.00    +0.054 C 
ATOM      5  C   UNL     1       7.040   0.749  27.610  0.00  0.00    +0.155 C 
ATOM      6  C   UNL     1       6.038  -0.304  27.151  0.00  0.00    +0.211 C 
ENDROOT
BRANCH   5   7
ATOM      7  O   UNL     1       8.301   0.169  28.013  0.00  0.00    -0.389 OA
ATOM      8  H   UNL     1       8.600  -0.419  27.292  0.00  0.00    +0.210 HD
ENDBRANCH   5   7
BRANCH   6   9
ATOM      9  O   UNL     1       4.826   0.308  26.674  0.00  0.00    -0.383 OA
ATOM     10  H   UNL     1       4.247  -0.388  26.309  0.00  0.00    +0.210 HD
ENDBRANCH   6   9
BRANCH   1  11
ATOM     11  O   UNL     1       7.271  -2.350  26.697  0.00  0.00    -0.453 OA
BRANCH  11  22
ATOM     12  C   UNL     1       7.340  -4.109  25.015  0.00  0.00    +0.181 A 
ATOM     13  O   UNL     1       6.842  -5.322  24.496  0.00  0.00    -0.451 OA
ATOM     14  C   UNL     1       5.661  -5.808  25.000  0.00  0.00    +0.147 A 
ATOM     15  C   UNL     1       5.182  -5.394  26.224  0.00  0.00    +0.109 A 
ATOM     16  C   UNL     1       3.957  -5.840  26.741  0.00  0.00    +0.135 A 
ATOM     17  C   UNL     1       3.205  -6.739  26.023  0.00  0.00    +0.091 A 
ATOM     18  C   UNL     1       3.700  -7.205  24.804  0.00  0.00    +0.124 A 
ATOM     19  C   UNL     1       5.993  -4.478  26.967  0.00  0.00    +0.238 A 
ATOM     20  O   UNL     1       5.772  -4.419  28.171  0.00  0.00    -0.283 OA
ATOM     21  C   UNL     1       4.911  -6.748  24.283  0.00  0.00    +0.092 A 
ATOM     22  C   UNL     1       6.921  -3.600  26.204  0.00  0.00    +0.214 A 
BRANCH  12  24
ATOM     23  C   UNL     1       9.651  -3.296  24.251  0.00  0.00    +0.015 A 
ATOM     24  C   UNL     1       8.256  -3.393  24.062  0.00  0.00    +0.025 A 
ATOM     25  C   UNL     1       7.715  -2.696  22.964  0.00  0.00    +0.060 A 
ATOM     26  C   UNL     1       8.494  -1.794  22.244  0.00  0.00    +0.159 A 
ATOM     27  C   UNL     1       9.829  -1.591  22.566  0.00  0.00    +0.158 A 
ATOM     28  C   UNL     1      10.431  -2.380  23.529  0.00  0.00    +0.050 A 
BRANCH  26  29
ATOM     29  O   UNL     1       7.915  -1.051  21.253  0.00  0.00    -0.503 OA
ATOM     30  H   UNL     1       7.363  -1.690  20.758  0.00  0.00    +0.292 HD
ENDBRANCH  26  29
BRANCH  27  31
ATOM     31  O   UNL     1      10.498  -0.584  21.929  0.00  0.00    -0.503 OA
ATOM     32  H   UNL     1      10.890  -0.957  21.118  0.00  0.00    +0.292 HD
ENDBRANCH  27  31
ENDBRANCH  12  24
BRANCH  18  33
ATOM     33  O   UNL     1       3.001  -8.128  24.095  0.00  0.00    -0.507 OA
ATOM     34  H   UNL     1       3.208  -9.012  24.449  0.00  0.00    +0.292 HD
ENDBRANCH  18  33
BRANCH  16  35
ATOM     35  O   UNL     1       3.460  -5.414  27.946  0.00  0.00    -0.506 OA
ATOM     36  H   UNL     1       4.189  -4.973  28.434  0.00  0.00    +0.292 HD
ENDBRANCH  16  35
ENDBRANCH  11  22
ENDBRANCH   1  11
BRANCH   3  37
ATOM     37  C   UNL     1       9.210   1.230  24.934  0.00  0.00    +0.187 C 
BRANCH  37  38
ATOM     38  O   UNL     1      10.092   0.369  25.661  0.00  0.00    -0.392 OA
ATOM     39  H   UNL     1      10.390   0.835  26.460  0.00  0.00    +0.210 HD
ENDBRANCH  37  38
ENDBRANCH   3  37
BRANCH   4  40
ATOM     40  C   UNL     1       6.006   2.684  26.213  0.00  0.00    +0.043 C 
BRANCH  40  41
ATOM     41  C   UNL     1       5.998   3.569  24.895  0.00  0.00    +0.150 C 
ATOM     42  O   UNL     1       7.353   3.634  24.415  0.00  0.00    -0.366 OA
ATOM     43  C   UNL     1       7.610   4.021  23.044  0.00  0.00    +0.175 C 
ATOM     44  C   UNL     1       6.669   3.355  22.026  0.00  0.00    +0.176 C 
ATOM     45  C   UNL     1       5.203   3.518  22.446  0.00  0.00    +0.176 C 
ATOM     46  C   UNL     1       5.009   2.957  23.864  0.00  0.00    +0.174 C 
BRANCH  44  47
ATOM     47  O   UNL     1       7.005   1.956  21.957  0.00  0.00    -0.386 OA
ATOM     48  H   UNL     1       7.248   1.757  21.034  0.00  0.00    +0.210 HD
ENDBRANCH  44  47
BRANCH  45  49
ATOM     49  O   UNL     1       4.764   4.867  22.282  0.00  0.00    -0.386 OA
ATOM     50  H   UNL     1       5.338   5.471  22.784  0.00  0.00    +0.210 HD
ENDBRANCH  45  49
BRANCH  46  51
ATOM     51  O   UNL     1       5.165   1.531  23.811  0.00  0.00    -0.387 OA
ATOM     52  H   UNL     1       4.289   1.159  24.055  0.00  0.00    +0.210 HD
ENDBRANCH  46  51
BRANCH  43  53
ATOM     53  C   UNL     1       7.731   5.539  22.789  0.00  0.00    +0.190 C 
BRANCH  53  54
ATOM     54  O   UNL     1       7.497   5.895  21.432  0.00  0.00    -0.392 OA
ATOM     55  H   UNL     1       7.036   6.751  21.420  0.00  0.00    +0.210 HD
ENDBRANCH  53  54
ENDBRANCH  43  53
ENDBRANCH  40  41
ENDBRANCH   4  40
TORSDOF 18
ENDMDL
MODEL 4
REMARK VINA RESULT:      -6.7      1.294      2.094
REMARK  Name = 
REMARK  18 active torsions:
REMARK  status: ('A' for Active; 'I' for Inactive)
REMARK    1  A    between atoms: C_3  and  O_54
REMARK    2  A    between atoms: C_4  and  O_53
REMARK    3  A    between atoms: C_6  and  C_7
REMARK    4  A    between atoms: C_8  and  O_20
REMARK    5  A    between atoms: C_12  and  O_19
REMARK    6  A    between atoms: C_14  and  O_18
REMARK    7  A    between atoms: O_20  and  C_21
REMARK    8  A    between atoms: C_23  and  O_52
REMARK    9  A    between atoms: C_25  and  O_51
REMARK   10  A    between atoms: C_27  and  C_34
REMARK   11  A    between atoms: C_29  and  C_32
REMARK   12  A    between atoms: C_32  and  O_33
REMARK   13  A    between atoms: C_34  and  C_35
REMARK   14  A    between atoms: C_37  and  O_50
REMARK   15  A    between atoms: C_39  and  O_49
REMARK   16  A    between atoms: C_41  and  O_48
REMARK   17  A    between atoms: C_43  and  C_46
REMARK   18  A    between atoms: C_46  and  O_47
REMARK                            x       y       z     vdW  Elec       q    Type
REMARK                         _______ _______ _______ _____ _____    ______ ____
ROOT
ATOM      1  C   UNL     1       6.567   0.497  25.605  0.00  0.00    +0.339 C 
ATOM      2  O   UNL     1       7.373   1.621  25.230  0.00  0.00    -0.334 OA
ATOM      3  C   UNL     1       6.853   2.972  25.277  0.00  0.00    +0.153 C 
ATOM      4  C   UNL     1       5.921   3.317  26.503  0.00  0.00    +0.054 C 
ATOM      5  C   UNL     1       5.925   2.106  27.422  0.00  0.00    +0.155 C 
ATOM      6  C   UNL     1       5.478   0.884  26.627  0.00  0.00    +0.211 C 
ENDROOT
BRANCH   5   7
ATOM      7  O   UNL     1       7.227   1.925  28.021  0.00  0.00    -0.389 OA
ATOM      8  H   UNL     1       7.228   1.059  28.472  0.00  0.00    +0.210 HD
ENDBRANCH   5   7
BRANCH   6   9
ATOM      9  O   UNL     1       4.220   1.126  25.970  0.00  0.00    -0.383 OA
ATOM     10  H   UNL     1       3.551   1.343  26.647  0.00  0.00    +0.210 HD
ENDBRANCH   6   9
BRANCH   1  11
ATOM     11  O   UNL     1       7.443  -0.488  26.211  0.00  0.00    -0.453 OA
BRANCH  11  22
ATOM     12  C   UNL     1       8.531  -1.742  24.432  0.00  0.00    +0.181 A 
ATOM     13  O   UNL     1       8.635  -2.911  23.650  0.00  0.00    -0.451 OA
ATOM     14  C   UNL     1       7.621  -3.833  23.722  0.00  0.00    +0.147 A 
ATOM     15  C   UNL     1       6.750  -3.857  24.789  0.00  0.00    +0.109 A 
ATOM     16  C   UNL     1       5.679  -4.758  24.865  0.00  0.00    +0.135 A 
ATOM     17  C   UNL     1       5.490  -5.673  23.857  0.00  0.00    +0.091 A 
ATOM     18  C   UNL     1       6.392  -5.695  22.793  0.00  0.00    +0.124 A 
ATOM     19  C   UNL     1       6.980  -2.913  25.841  0.00  0.00    +0.238 A 
ATOM     20  O   UNL     1       6.474  -3.180  26.924  0.00  0.00    -0.283 OA
ATOM     21  C   UNL     1       7.449  -4.786  22.710  0.00  0.00    +0.092 A 
ATOM     22  C   UNL     1       7.688  -1.650  25.495  0.00  0.00    +0.214 A 
BRANCH  12  24
ATOM     23  C   UNL     1      10.389   0.021  24.584  0.00  0.00    +0.015 A 
ATOM     24  C   UNL     1       9.330  -0.593  23.882  0.00  0.00    +0.025 A 
ATOM     25  C   UNL     1       8.970  -0.019  22.647  0.00  0.00    +0.060 A 
ATOM     26  C   UNL     1       9.496   1.211  22.258  0.00  0.00    +0.159 A 
ATOM     27  C   UNL     1      10.413   1.878  23.057  0.00  0.00    +0.158 A 
ATOM     28  C   UNL     1      10.909   1.265  24.193  0.00  0.00    +0.050 A 
BRANCH  26  29
ATOM     29  O   UNL     1       9.047   1.795  21.106  0.00  0.00    -0.503 OA
ATOM     30  H   UNL     1       9.689   1.516  20.423  0.00  0.00    +0.292 HD
ENDBRANCH  26  29
BRANCH  27  31
ATOM     31  O   UNL     1      10.772   3.148  22.701  0.00  0.00    -0.503 OA
ATOM     32  H   UNL     1       9.972   3.598  22.372  0.00  0.00    +0.292 HD
ENDBRANCH  27  31
ENDBRANCH  12  24
BRANCH  18  33
ATOM     33  O   UNL     1       6.258  -6.617  21.806  0.00  0.00    -0.507 OA
ATOM     34  H   UNL     1       6.569  -6.224  20.970  0.00  0.00    +0.292 HD
ENDBRANCH  18  33
BRANCH  16  35
ATOM     35  O   UNL     1       4.792  -4.772  25.911  0.00  0.00    -0.506 OA
ATOM     36  H   UNL     1       3.893  -4.912  25.542  0.00  0.00    +0.292 HD
ENDBRANCH  16  35
ENDBRANCH  11  22
ENDBRANCH   1  11
BRANCH   3  37
ATOM     37  C   UNL     1       8.161   3.810  25.375  0.00  0.00    +0.187 C 
BRANCH  37  38
ATOM     38  O   UNL     1       8.455   4.528  24.172  0.00  0.00    -0.392 OA
ATOM     39  H   UNL     1       9.391   4.786  24.187  0.00  0.00    +0.210 HD
ENDBRANCH  37  38
ENDBRANCH   3  37
BRANCH   4  40
ATOM     40  C   UNL     1       4.484   3.803  26.078  0.00  0.00    +0.043 C 
BRANCH  40  41
ATOM     41  C   UNL     1       4.236   4.196  24.560  0.00  0.00    +0.150 C 
ATOM     42  O   UNL     1       3.066   3.482  24.119  0.00  0.00    -0.366 OA
ATOM     43  C   UNL     1       2.361   3.922  22.934  0.00  0.00    +0.175 C 
ATOM     44  C   UNL     1       2.168   5.447  22.859  0.00  0.00    +0.176 C 
ATOM     45  C   UNL     1       3.495   6.180  23.093  0.00  0.00    +0.176 C 
ATOM     46  C   UNL     1       4.095   5.739  24.439  0.00  0.00    +0.174 C 
BRANCH  44  47
ATOM     47  O   UNL     1       1.215   5.824  23.872  0.00  0.00    -0.386 OA
ATOM     48  H   UNL     1       0.558   6.411  23.453  0.00  0.00    +0.210 HD
ENDBRANCH  44  47
BRANCH  45  49
ATOM     49  O   UNL     1       4.374   6.028  21.980  0.00  0.00    -0.386 OA
ATOM     50  H   UNL     1       3.987   5.422  21.324  0.00  0.00    +0.210 HD
ENDBRANCH  45  49
BRANCH  46  51
ATOM     51  O   UNL     1       3.264   6.248  25.493  0.00  0.00    -0.387 OA
ATOM     52  H   UNL     1       3.724   7.046  25.832  0.00  0.00    +0.210 HD
ENDBRANCH  46  51
BRANCH  43  53
ATOM     53  C   UNL     1       2.883   3.356  21.596  0.00  0.00    +0.190 C 
BRANCH  53  54
ATOM     54  O   UNL     1       2.609   4.206  20.488  0.00  0.00    -0.392 OA
ATOM     55  H   UNL     1       1.791   3.894  20.064  0.00  0.00    +0.210 HD
ENDBRANCH  53  54
ENDBRANCH  43  53
ENDBRANCH  40  41
ENDBRANCH   4  40
TORSDOF 18
ENDMDL
MODEL 5
REMARK VINA RESULT:      -6.6      1.404      2.596
REMARK  Name = 
REMARK  18 active torsions:
REMARK  status: ('A' for Active; 'I' for Inactive)
REMARK    1  A    between atoms: C_3  and  O_54
REMARK    2  A    between atoms: C_4  and  O_53
REMARK    3  A    between atoms: C_6  and  C_7
REMARK    4  A    between atoms: C_8  and  O_20
REMARK    5  A    between atoms: C_12  and  O_19
REMARK    6  A    between atoms: C_14  and  O_18
REMARK    7  A    between atoms: O_20  and  C_21
REMARK    8  A    between atoms: C_23  and  O_52
REMARK    9  A    between atoms: C_25  and  O_51
REMARK   10  A    between atoms: C_27  and  C_34
REMARK   11  A    between atoms: C_29  and  C_32
REMARK   12  A    between atoms: C_32  and  O_33
REMARK   13  A    between atoms: C_34  and  C_35
REMARK   14  A    between atoms: C_37  and  O_50
REMARK   15  A    between atoms: C_39  and  O_49
REMARK   16  A    between atoms: C_41  and  O_48
REMARK   17  A    between atoms: C_43  and  C_46
REMARK   18  A    between atoms: C_46  and  O_47
REMARK                            x       y       z     vdW  Elec       q    Type
REMARK                         _______ _______ _______ _____ _____    ______ ____
ROOT
ATOM      1  C   UNL     1       6.634  -0.330  26.440  0.00  0.00    +0.339 C 
ATOM      2  O   UNL     1       6.306   0.177  25.141  0.00  0.00    -0.334 OA
ATOM      3  C   UNL     1       5.546   1.400  24.978  0.00  0.00    +0.153 C 
ATOM      4  C   UNL     1       5.884   2.569  25.984  0.00  0.00    +0.054 C 
ATOM      5  C   UNL     1       7.072   2.112  26.816  0.00  0.00    +0.155 C 
ATOM      6  C   UNL     1       6.719   0.793  27.493  0.00  0.00    +0.211 C 
ENDROOT
BRANCH   5   7
ATOM      7  O   UNL     1       8.258   2.010  25.997  0.00  0.00    -0.389 OA
ATOM      8  H   UNL     1       8.191   1.183  25.482  0.00  0.00    +0.210 HD
ENDBRANCH   5   7
BRANCH   6   9
ATOM      9  O   UNL     1       5.487   0.902  28.230  0.00  0.00    -0.383 OA
ATOM     10  H   UNL     1       5.561   1.649  28.854  0.00  0.00    +0.210 HD
ENDBRANCH   6   9
BRANCH   1  11
ATOM     11  O   UNL     1       7.930  -0.976  26.344  0.00  0.00    -0.453 OA
BRANCH  11  22
ATOM     12  C   UNL     1       8.681  -2.051  24.294  0.00  0.00    +0.181 A 
ATOM     13  O   UNL     1       8.640  -3.143  23.402  0.00  0.00    -0.451 OA
ATOM     14  C   UNL     1       7.648  -4.077  23.565  0.00  0.00    +0.147 A 
ATOM     15  C   UNL     1       6.976  -4.206  24.760  0.00  0.00    +0.109 A 
ATOM     16  C   UNL     1       5.928  -5.120  24.939  0.00  0.00    +0.135 A 
ATOM     17  C   UNL     1       5.560  -5.941  23.899  0.00  0.00    +0.091 A 
ATOM     18  C   UNL     1       6.262  -5.856  22.697  0.00  0.00    +0.124 A 
ATOM     19  C   UNL     1       7.393  -3.361  25.839  0.00  0.00    +0.238 A 
ATOM     20  O   UNL     1       7.082  -3.731  26.964  0.00  0.00    -0.283 OA
ATOM     21  C   UNL     1       7.294  -4.934  22.515  0.00  0.00    +0.092 A 
ATOM     22  C   UNL     1       8.038  -2.065  25.492  0.00  0.00    +0.214 A 
BRANCH  12  24
ATOM     23  C   UNL     1      10.430  -0.176  24.381  0.00  0.00    +0.015 A 
ATOM     24  C   UNL     1       9.381  -0.849  23.722  0.00  0.00    +0.025 A 
ATOM     25  C   UNL     1       8.928  -0.289  22.511  0.00  0.00    +0.060 A 
ATOM     26  C   UNL     1       9.356   0.975  22.112  0.00  0.00    +0.159 A 
ATOM     27  C   UNL     1      10.267   1.692  22.876  0.00  0.00    +0.158 A 
ATOM     28  C   UNL     1      10.853   1.101  23.981  0.00  0.00    +0.050 A 
BRANCH  26  29
ATOM     29  O   UNL     1       8.819   1.540  20.990  0.00  0.00    -0.503 OA
ATOM     30  H   UNL     1       9.466   1.345  20.283  0.00  0.00    +0.292 HD
ENDBRANCH  26  29
BRANCH  27  31
ATOM     31  O   UNL     1      10.528   2.985  22.519  0.00  0.00    -0.503 OA
ATOM     32  H   UNL     1      10.474   3.530  23.325  0.00  0.00    +0.292 HD
ENDBRANCH  27  31
ENDBRANCH  12  24
BRANCH  18  33
ATOM     33  O   UNL     1       5.951  -6.686  21.668  0.00  0.00    -0.507 OA
ATOM     34  H   UNL     1       4.996  -6.614  21.490  0.00  0.00    +0.292 HD
ENDBRANCH  18  33
BRANCH  16  35
ATOM     35  O   UNL     1       5.237  -5.239  26.118  0.00  0.00    -0.506 OA
ATOM     36  H   UNL     1       5.035  -6.190  26.254  0.00  0.00    +0.292 HD
ENDBRANCH  16  35
ENDBRANCH  11  22
ENDBRANCH   1  11
BRANCH   3  37
ATOM     37  C   UNL     1       5.946   1.831  23.537  0.00  0.00    +0.187 C 
BRANCH  37  38
ATOM     38  O   UNL     1       4.833   2.287  22.762  0.00  0.00    -0.392 OA
ATOM     39  H   UNL     1       4.989   3.213  22.512  0.00  0.00    +0.210 HD
ENDBRANCH  37  38
ENDBRANCH   3  37
BRANCH   4  40
ATOM     40  C   UNL     1       4.643   3.041  26.830  0.00  0.00    +0.043 C 
BRANCH  40  41
ATOM     41  C   UNL     1       3.614   4.054  26.169  0.00  0.00    +0.150 C 
ATOM     42  O   UNL     1       4.119   4.383  24.861  0.00  0.00    -0.366 OA
ATOM     43  C   UNL     1       3.230   4.954  23.873  0.00  0.00    +0.175 C 
ATOM     44  C   UNL     1       1.857   4.265  23.803  0.00  0.00    +0.176 C 
ATOM     45  C   UNL     1       1.230   4.148  25.198  0.00  0.00    +0.176 C 
ATOM     46  C   UNL     1       2.199   3.411  26.136  0.00  0.00    +0.174 C 
BRANCH  44  47
ATOM     47  O   UNL     1       2.046   2.952  23.240  0.00  0.00    -0.386 OA
ATOM     48  H   UNL     1       1.611   2.941  22.368  0.00  0.00    +0.210 HD
ENDBRANCH  44  47
BRANCH  45  49
ATOM     49  O   UNL     1       0.799   5.421  25.680  0.00  0.00    -0.386 OA
ATOM     50  H   UNL     1       1.043   6.120  25.050  0.00  0.00    +0.210 HD
ENDBRANCH  45  49
BRANCH  46  51
ATOM     51  O   UNL     1       2.284   2.041  25.714  0.00  0.00    -0.387 OA
ATOM     52  H   UNL     1       3.188   1.744  25.957  0.00  0.00    +0.210 HD
ENDBRANCH  46  51
BRANCH  43  53
ATOM     53  C   UNL     1       3.086   6.491  23.910  0.00  0.00    +0.190 C 
BRANCH  53  54
ATOM     54  O   UNL     1       1.894   6.953  23.286  0.00  0.00    -0.392 OA
ATOM     55  H   UNL     1       1.593   6.266  22.666  0.00  0.00    +0.210 HD
ENDBRANCH  53  54
ENDBRANCH  43  53
ENDBRANCH  40  41
ENDBRANCH   4  40
TORSDOF 18
ENDMDL
MODEL 6
REMARK VINA RESULT:      -6.6      2.205      8.129
REMARK  Name = 
REMARK  18 active torsions:
REMARK  status: ('A' for Active; 'I' for Inactive)
REMARK    1  A    between atoms: C_3  and  O_54
REMARK    2  A    between atoms: C_4  and  O_53
REMARK    3  A    between atoms: C_6  and  C_7
REMARK    4  A    between atoms: C_8  and  O_20
REMARK    5  A    between atoms: C_12  and  O_19
REMARK    6  A    between atoms: C_14  and  O_18
REMARK    7  A    between atoms: O_20  and  C_21
REMARK    8  A    between atoms: C_23  and  O_52
REMARK    9  A    between atoms: C_25  and  O_51
REMARK   10  A    between atoms: C_27  and  C_34
REMARK   11  A    between atoms: C_29  and  C_32
REMARK   12  A    between atoms: C_32  and  O_33
REMARK   13  A    between atoms: C_34  and  C_35
REMARK   14  A    between atoms: C_37  and  O_50
REMARK   15  A    between atoms: C_39  and  O_49
REMARK   16  A    between atoms: C_41  and  O_48
REMARK   17  A    between atoms: C_43  and  C_46
REMARK   18  A    between atoms: C_46  and  O_47
REMARK                            x       y       z     vdW  Elec       q    Type
REMARK                         _______ _______ _______ _____ _____    ______ ____
ROOT
ATOM      1  C   UNL     1       7.582   1.634  23.432  0.00  0.00    +0.339 C 
ATOM      2  O   UNL     1       8.739   1.373  24.237  0.00  0.00    -0.334 OA
ATOM      3  C   UNL     1       9.325   0.050  24.308  0.00  0.00    +0.153 C 
ATOM      4  C   UNL     1       9.368  -0.767  22.957  0.00  0.00    +0.054 C 
ATOM      5  C   UNL     1       8.868   0.160  21.860  0.00  0.00    +0.155 C 
ATOM      6  C   UNL     1       7.481   0.665  22.237  0.00  0.00    +0.211 C 
ENDROOT
BRANCH   5   7
ATOM      7  O   UNL     1       9.804   1.239  21.639  0.00  0.00    -0.389 OA
ATOM      8  H   UNL     1       9.690   1.883  22.363  0.00  0.00    +0.210 HD
ENDBRANCH   5   7
BRANCH   6   9
ATOM      9  O   UNL     1       6.595  -0.429  22.536  0.00  0.00    -0.383 OA
ATOM     10  H   UNL     1       5.728  -0.067  22.802  0.00  0.00    +0.210 HD
ENDBRANCH   6   9
BRANCH   1  11
ATOM     11  O   UNL     1       7.699   2.988  22.923  0.00  0.00    -0.453 OA
BRANCH  11  22
ATOM     12  C   UNL     1       7.336   5.026  24.202  0.00  0.00    +0.181 A 
ATOM     13  O   UNL     1       6.464   5.902  24.882  0.00  0.00    -0.451 OA
ATOM     14  C   UNL     1       5.188   5.471  25.148  0.00  0.00    +0.147 A 
ATOM     15  C   UNL     1       4.624   4.429  24.445  0.00  0.00    +0.109 A 
ATOM     16  C   UNL     1       3.341   3.939  24.728  0.00  0.00    +0.135 A 
ATOM     17  C   UNL     1       2.597   4.524  25.725  0.00  0.00    +0.091 A 
ATOM     18  C   UNL     1       3.135   5.611  26.415  0.00  0.00    +0.124 A 
ATOM     19  C   UNL     1       5.405   3.852  23.393  0.00  0.00    +0.238 A 
ATOM     20  O   UNL     1       4.784   3.222  22.546  0.00  0.00    -0.283 OA
ATOM     21  C   UNL     1       4.419   6.087  26.143  0.00  0.00    +0.092 A 
ATOM     22  C   UNL     1       6.886   3.956  23.494  0.00  0.00    +0.214 A 
BRANCH  12  24
ATOM     23  C   UNL     1       9.228   6.334  25.340  0.00  0.00    +0.015 A 
ATOM     24  C   UNL     1       8.787   5.322  24.461  0.00  0.00    +0.025 A 
ATOM     25  C   UNL     1       9.780   4.634  23.736  0.00  0.00    +0.060 A 
ATOM     26  C   UNL     1      11.098   5.085  23.738  0.00  0.00    +0.159 A 
ATOM     27  C   UNL     1      11.470   6.195  24.484  0.00  0.00    +0.158 A 
ATOM     28  C   UNL     1      10.555   6.791  25.333  0.00  0.00    +0.050 A 
BRANCH  26  29
ATOM     29  O   UNL     1      12.018   4.463  22.941  0.00  0.00    -0.503 OA
ATOM     30  H   UNL     1      11.567   3.652  22.632  0.00  0.00    +0.292 HD
ENDBRANCH  26  29
BRANCH  27  31
ATOM     31  O   UNL     1      12.737   6.682  24.323  0.00  0.00    -0.503 OA
ATOM     32  H   UNL     1      12.838   7.444  24.923  0.00  0.00    +0.292 HD
ENDBRANCH  27  31
ENDBRANCH  12  24
BRANCH  18  33
ATOM     33  O   UNL     1       2.405   6.237  27.373  0.00  0.00    -0.507 OA
ATOM     34  H   UNL     1       2.387   5.672  28.167  0.00  0.00    +0.292 HD
ENDBRANCH  18  33
BRANCH  16  35
ATOM     35  O   UNL     1       2.781   2.887  24.050  0.00  0.00    -0.506 OA
ATOM     36  H   UNL     1       3.153   2.882  23.142  0.00  0.00    +0.292 HD
ENDBRANCH  16  35
ENDBRANCH  11  22
ENDBRANCH   1  11
BRANCH   3  37
ATOM     37  C   UNL     1      10.780   0.373  24.757  0.00  0.00    +0.187 C 
BRANCH  37  38
ATOM     38  O   UNL     1      11.309   1.546  24.130  0.00  0.00    -0.392 OA
ATOM     39  H   UNL     1      10.721   2.294  24.326  0.00  0.00    +0.210 HD
ENDBRANCH  37  38
ENDBRANCH   3  37
BRANCH   4  40
ATOM     40  C   UNL     1       8.609  -2.144  23.037  0.00  0.00    +0.043 C 
BRANCH  40  41
ATOM     41  C   UNL     1       8.234  -2.721  24.468  0.00  0.00    +0.150 C 
ATOM     42  O   UNL     1       6.811  -2.575  24.629  0.00  0.00    -0.366 OA
ATOM     43  C   UNL     1       6.119  -3.353  25.634  0.00  0.00    +0.175 C 
ATOM     44  C   UNL     1       6.556  -4.827  25.686  0.00  0.00    +0.176 C 
ATOM     45  C   UNL     1       8.083  -4.944  25.761  0.00  0.00    +0.176 C 
ATOM     46  C   UNL     1       8.716  -4.196  24.576  0.00  0.00    +0.174 C 
BRANCH  44  47
ATOM     47  O   UNL     1       6.074  -5.476  24.493  0.00  0.00    -0.386 OA
ATOM     48  H   UNL     1       6.716  -5.295  23.781  0.00  0.00    +0.210 HD
ENDBRANCH  44  47
BRANCH  45  49
ATOM     49  O   UNL     1       8.571  -4.539  27.040  0.00  0.00    -0.386 OA
ATOM     50  H   UNL     1       7.837  -4.474  27.676  0.00  0.00    +0.210 HD
ENDBRANCH  45  49
BRANCH  46  51
ATOM     51  O   UNL     1       8.405  -4.911  23.371  0.00  0.00    -0.387 OA
ATOM     52  H   UNL     1       9.214  -4.860  22.817  0.00  0.00    +0.210 HD
ENDBRANCH  46  51
BRANCH  43  53
ATOM     53  C   UNL     1       6.073  -2.731  27.047  0.00  0.00    +0.190 C 
BRANCH  53  54
ATOM     54  O   UNL     1       6.168  -1.312  27.032  0.00  0.00    -0.392 OA
ATOM     55  H   UNL     1       5.437  -0.966  26.492  0.00  0.00    +0.210 HD
ENDBRANCH  53  54
ENDBRANCH  43  53
ENDBRANCH  40  41
ENDBRANCH   4  40
TORSDOF 18
ENDMDL
MODEL 7
REMARK VINA RESULT:      -6.6      2.128      5.141
REMARK  Name = 
REMARK  18 active torsions:
REMARK  status: ('A' for Active; 'I' for Inactive)
REMARK    1  A    between atoms: C_3  and  O_54
REMARK    2  A    between atoms: C_4  and  O_53
REMARK    3  A    between atoms: C_6  and  C_7
REMARK    4  A    between atoms: C_8  and  O_20
REMARK    5  A    between atoms: C_12  and  O_19
REMARK    6  A    between atoms: C_14  and  O_18
REMARK    7  A    between atoms: O_20  and  C_21
REMARK    8  A    between atoms: C_23  and  O_52
REMARK    9  A    between atoms: C_25  and  O_51
REMARK   10  A    between atoms: C_27  and  C_34
REMARK   11  A    between atoms: C_29  and  C_32
REMARK   12  A    between atoms: C_32  and  O_33
REMARK   13  A    between atoms: C_34  and  C_35
REMARK   14  A    between atoms: C_37  and  O_50
REMARK   15  A    between atoms: C_39  and  O_49
REMARK   16  A    between atoms: C_41  and  O_48
REMARK   17  A    between atoms: C_43  and  C_46
REMARK   18  A    between atoms: C_46  and  O_47
REMARK                            x       y       z     vdW  Elec       q    Type
REMARK                         _______ _______ _______ _____ _____    ______ ____
ROOT
ATOM      1  C   UNL     1       7.533  -0.006  24.586  0.00  0.00    +0.339 C 
ATOM      2  O   UNL     1       7.888   0.097  23.202  0.00  0.00    -0.334 OA
ATOM      3  C   UNL     1       8.730   1.172  22.717  0.00  0.00    +0.153 C 
ATOM      4  C   UNL     1       9.931   1.591  23.652  0.00  0.00    +0.054 C 
ATOM      5  C   UNL     1       9.955   0.612  24.815  0.00  0.00    +0.155 C 
ATOM      6  C   UNL     1       8.595   0.633  25.503  0.00  0.00    +0.211 C 
ENDROOT
BRANCH   5   7
ATOM      7  O   UNL     1      10.319  -0.710  24.359  0.00  0.00    -0.389 OA
ATOM      8  H   UNL     1      11.248  -0.675  24.061  0.00  0.00    +0.210 HD
ENDBRANCH   5   7
BRANCH   6   9
ATOM      9  O   UNL     1       8.220   1.974  25.867  0.00  0.00    -0.383 OA
ATOM     10  H   UNL     1       8.788   2.270  26.603  0.00  0.00    +0.210 HD
ENDBRANCH   6   9
BRANCH   1  11
ATOM     11  O   UNL     1       7.431  -1.418  24.908  0.00  0.00    -0.453 OA
BRANCH  11  22
ATOM     12  C   UNL     1       5.103  -2.081  25.153  0.00  0.00    +0.181 A 
ATOM     13  O   UNL     1       4.017  -2.892  24.763  0.00  0.00    -0.451 OA
ATOM     14  C   UNL     1       4.269  -3.966  23.946  0.00  0.00    +0.147 A 
ATOM     15  C   UNL     1       5.419  -4.036  23.191  0.00  0.00    +0.109 A 
ATOM     16  C   UNL     1       5.723  -5.142  22.384  0.00  0.00    +0.135 A 
ATOM     17  C   UNL     1       4.840  -6.193  22.316  0.00  0.00    +0.091 A 
ATOM     18  C   UNL     1       3.647  -6.116  23.036  0.00  0.00    +0.124 A 
ATOM     19  C   UNL     1       6.312  -2.919  23.256  0.00  0.00    +0.238 A 
ATOM     20  O   UNL     1       7.103  -2.807  22.327  0.00  0.00    -0.283 OA
ATOM     21  C   UNL     1       3.354  -5.022  23.852  0.00  0.00    +0.092 A 
ATOM     22  C   UNL     1       6.290  -2.087  24.490  0.00  0.00    +0.214 A 
BRANCH  12  24
ATOM     23  C   UNL     1       4.755  -1.968  27.692  0.00  0.00    +0.015 A 
ATOM     24  C   UNL     1       4.851  -1.337  26.435  0.00  0.00    +0.025 A 
ATOM     25  C   UNL     1       4.602   0.049  26.400  0.00  0.00    +0.060 A 
ATOM     26  C   UNL     1       4.083   0.704  27.515  0.00  0.00    +0.159 A 
ATOM     27  C   UNL     1       3.837   0.015  28.694  0.00  0.00    +0.158 A 
ATOM     28  C   UNL     1       4.224  -1.308  28.811  0.00  0.00    +0.050 A 
BRANCH  26  29
ATOM     29  O   UNL     1       3.750   2.026  27.419  0.00  0.00    -0.503 OA
ATOM     30  H   UNL     1       4.119   2.432  28.229  0.00  0.00    +0.292 HD
ENDBRANCH  26  29
BRANCH  27  31
ATOM     31  O   UNL     1       3.183   0.673  29.698  0.00  0.00    -0.503 OA
ATOM     32  H   UNL     1       3.663   1.504  29.866  0.00  0.00    +0.292 HD
ENDBRANCH  27  31
ENDBRANCH  12  24
BRANCH  18  33
ATOM     33  O   UNL     1       2.735  -7.119  22.951  0.00  0.00    -0.507 OA
ATOM     34  H   UNL     1       1.996  -6.916  23.552  0.00  0.00    +0.292 HD
ENDBRANCH  18  33
BRANCH  16  35
ATOM     35  O   UNL     1       6.877  -5.232  21.649  0.00  0.00    -0.506 OA
ATOM     36  H   UNL     1       6.728  -5.886  20.933  0.00  0.00    +0.292 HD
ENDBRANCH  16  35
ENDBRANCH  11  22
ENDBRANCH   1  11
BRANCH   3  37
ATOM     37  C   UNL     1       9.293   0.562  21.401  0.00  0.00    +0.187 C 
BRANCH  37  38
ATOM     38  O   UNL     1       9.439  -0.860  21.463  0.00  0.00    -0.392 OA
ATOM     39  H   UNL     1      10.117  -1.073  22.125  0.00  0.00    +0.210 HD
ENDBRANCH  37  38
ENDBRANCH   3  37
BRANCH   4  40
ATOM     40  C   UNL     1       9.887   3.106  24.081  0.00  0.00    +0.043 C 
BRANCH  40  41
ATOM     41  C   UNL     1       8.822   4.060  23.392  0.00  0.00    +0.150 C 
ATOM     42  O   UNL     1       7.608   3.973  24.161  0.00  0.00    -0.366 OA
ATOM     43  C   UNL     1       6.601   5.003  24.030  0.00  0.00    +0.175 C 
ATOM     44  C   UNL     1       7.173   6.431  24.017  0.00  0.00    +0.176 C 
ATOM     45  C   UNL     1       8.315   6.555  23.000  0.00  0.00    +0.176 C 
ATOM     46  C   UNL     1       9.394   5.503  23.308  0.00  0.00    +0.174 C 
BRANCH  44  47
ATOM     47  O   UNL     1       7.662   6.726  25.339  0.00  0.00    -0.386 OA
ATOM     48  H   UNL     1       7.339   6.025  25.935  0.00  0.00    +0.210 HD
ENDBRANCH  44  47
BRANCH  45  49
ATOM     49  O   UNL     1       7.823   6.517  21.661  0.00  0.00    -0.386 OA
ATOM     50  H   UNL     1       7.520   7.401  21.388  0.00  0.00    +0.210 HD
ENDBRANCH  45  49
BRANCH  46  51
ATOM     51  O   UNL     1      10.033   5.858  24.543  0.00  0.00    -0.387 OA
ATOM     52  H   UNL     1      10.251   5.007  24.983  0.00  0.00    +0.210 HD
ENDBRANCH  46  51
BRANCH  43  53
ATOM     53  C   UNL     1       5.578   4.798  22.891  0.00  0.00    +0.190 C 
BRANCH  53  54
ATOM     54  O   UNL     1       6.104   4.053  21.800  0.00  0.00    -0.392 OA
ATOM     55  H   UNL     1       5.422   4.011  21.107  0.00  0.00    +0.210 HD
ENDBRANCH  53  54
ENDBRANCH  43  53
ENDBRANCH  40  41
ENDBRANCH   4  40
TORSDOF 18
ENDMDL
MODEL 8
REMARK VINA RESULT:      -6.5      2.103      5.650
REMARK  Name = 
REMARK  18 active torsions:
REMARK  status: ('A' for Active; 'I' for Inactive)
REMARK    1  A    between atoms: C_3  and  O_54
REMARK    2  A    between atoms: C_4  and  O_53
REMARK    3  A    between atoms: C_6  and  C_7
REMARK    4  A    between atoms: C_8  and  O_20
REMARK    5  A    between atoms: C_12  and  O_19
REMARK    6  A    between atoms: C_14  and  O_18
REMARK    7  A    between atoms: O_20  and  C_21
REMARK    8  A    between atoms: C_23  and  O_52
REMARK    9  A    between atoms: C_25  and  O_51
REMARK   10  A    between atoms: C_27  and  C_34
REMARK   11  A    between atoms: C_29  and  C_32
REMARK   12  A    between atoms: C_32  and  O_33
REMARK   13  A    between atoms: C_34  and  C_35
REMARK   14  A    between atoms: C_37  and  O_50
REMARK   15  A    between atoms: C_39  and  O_49
REMARK   16  A    between atoms: C_41  and  O_48
REMARK   17  A    between atoms: C_43  and  C_46
REMARK   18  A    between atoms: C_46  and  O_47
REMARK                            x       y       z     vdW  Elec       q    Type
REMARK                         _______ _______ _______ _____ _____    ______ ____
ROOT
ATOM      1  C   UNL     1       7.648  -0.184  24.604  0.00  0.00    +0.339 C 
ATOM      2  O   UNL     1       7.954  -0.099  23.207  0.00  0.00    -0.334 OA
ATOM      3  C   UNL     1       8.727   1.003  22.669  0.00  0.00    +0.153 C 
ATOM      4  C   UNL     1       9.935   1.504  23.555  0.00  0.00    +0.054 C 
ATOM      5  C   UNL     1      10.043   0.556  24.739  0.00  0.00    +0.155 C 
ATOM      6  C   UNL     1       8.706   0.530  25.470  0.00  0.00    +0.211 C 
ENDROOT
BRANCH   5   7
ATOM      7  O   UNL     1      10.458  -0.758  24.304  0.00  0.00    -0.389 OA
ATOM      8  H   UNL     1      10.347  -0.797  23.335  0.00  0.00    +0.210 HD
ENDBRANCH   5   7
BRANCH   6   9
ATOM      9  O   UNL     1       8.277   1.860  25.813  0.00  0.00    -0.383 OA
ATOM     10  H   UNL     1       7.906   1.846  26.716  0.00  0.00    +0.210 HD
ENDBRANCH   6   9
BRANCH   1  11
ATOM     11  O   UNL     1       7.626  -1.589  24.963  0.00  0.00    -0.453 OA
BRANCH  11  22
ATOM     12  C   UNL     1       5.679  -3.047  24.888  0.00  0.00    +0.181 A 
ATOM     13  O   UNL     1       4.416  -3.424  25.390  0.00  0.00    -0.451 OA
ATOM     14  C   UNL     1       3.784  -2.574  26.263  0.00  0.00    +0.147 A 
ATOM     15  C   UNL     1       4.485  -1.613  26.958  0.00  0.00    +0.109 A 
ATOM     16  C   UNL     1       3.857  -0.702  27.821  0.00  0.00    +0.135 A 
ATOM     17  C   UNL     1       2.498  -0.773  28.008  0.00  0.00    +0.091 A 
ATOM     18  C   UNL     1       1.780  -1.771  27.349  0.00  0.00    +0.124 A 
ATOM     19  C   UNL     1       5.903  -1.574  26.770  0.00  0.00    +0.238 A 
ATOM     20  O   UNL     1       6.547  -1.009  27.645  0.00  0.00    -0.283 OA
ATOM     21  C   UNL     1       2.403  -2.666  26.477  0.00  0.00    +0.092 A 
ATOM     22  C   UNL     1       6.445  -2.096  25.485  0.00  0.00    +0.214 A 
BRANCH  12  24
ATOM     23  C   UNL     1       6.022  -3.006  22.346  0.00  0.00    +0.015 A 
ATOM     24  C   UNL     1       6.009  -3.699  23.574  0.00  0.00    +0.025 A 
ATOM     25  C   UNL     1       6.230  -5.090  23.521  0.00  0.00    +0.060 A 
ATOM     26  C   UNL     1       6.246  -5.758  22.298  0.00  0.00    +0.159 A 
ATOM     27  C   UNL     1       6.083  -5.065  21.106  0.00  0.00    +0.158 A 
ATOM     28  C   UNL     1       6.029  -3.683  21.116  0.00  0.00    +0.050 A 
BRANCH  26  29
ATOM     29  O   UNL     1       6.354  -7.120  22.282  0.00  0.00    -0.503 OA
ATOM     30  H   UNL     1       6.137  -7.373  21.362  0.00  0.00    +0.292 HD
ENDBRANCH  26  29
BRANCH  27  31
ATOM     31  O   UNL     1       5.949  -5.790  19.955  0.00  0.00    -0.503 OA
ATOM     32  H   UNL     1       5.077  -5.580  19.575  0.00  0.00    +0.292 HD
ENDBRANCH  27  31
ENDBRANCH  12  24
BRANCH  18  33
ATOM     33  O   UNL     1       0.443  -1.894  27.550  0.00  0.00    -0.507 OA
ATOM     34  H   UNL     1       0.061  -1.003  27.645  0.00  0.00    +0.292 HD
ENDBRANCH  18  33
BRANCH  16  35
ATOM     35  O   UNL     1       4.543   0.274  28.497  0.00  0.00    -0.506 OA
ATOM     36  H   UNL     1       5.459   0.298  28.145  0.00  0.00    +0.292 HD
ENDBRANCH  16  35
ENDBRANCH  11  22
ENDBRANCH   1  11
BRANCH   3  37
ATOM     37  C   UNL     1       9.279   0.388  21.350  0.00  0.00    +0.187 C 
BRANCH  37  38
ATOM     38  O   UNL     1       9.834  -0.919  21.534  0.00  0.00    -0.392 OA
ATOM     39  H   UNL     1       9.213  -1.573  21.173  0.00  0.00    +0.210 HD
ENDBRANCH  37  38
ENDBRANCH   3  37
BRANCH   4  40
ATOM     40  C   UNL     1       9.831   3.025  23.949  0.00  0.00    +0.043 C 
BRANCH  40  41
ATOM     41  C   UNL     1       8.725   3.917  23.241  0.00  0.00    +0.150 C 
ATOM     42  O   UNL     1       7.506   3.765  23.992  0.00  0.00    -0.366 OA
ATOM     43  C   UNL     1       6.446   4.738  23.844  0.00  0.00    +0.175 C 
ATOM     44  C   UNL     1       6.939   6.195  23.836  0.00  0.00    +0.176 C 
ATOM     45  C   UNL     1       8.087   6.380  22.836  0.00  0.00    +0.176 C 
ATOM     46  C   UNL     1       9.217   5.390  23.163  0.00  0.00    +0.174 C 
BRANCH  44  47
ATOM     47  O   UNL     1       7.391   6.519  25.165  0.00  0.00    -0.386 OA
ATOM     48  H   UNL     1       6.946   5.910  25.784  0.00  0.00    +0.210 HD
ENDBRANCH  44  47
BRANCH  45  49
ATOM     49  O   UNL     1       7.618   6.314  21.490  0.00  0.00    -0.386 OA
ATOM     50  H   UNL     1       7.389   7.203  21.169  0.00  0.00    +0.210 HD
ENDBRANCH  45  49
BRANCH  46  51
ATOM     51  O   UNL     1       9.817   5.781  24.406  0.00  0.00    -0.387 OA
ATOM     52  H   UNL     1      10.452   6.496  24.181  0.00  0.00    +0.210 HD
ENDBRANCH  46  51
BRANCH  43  53
ATOM     53  C   UNL     1       5.453   4.475  22.691  0.00  0.00    +0.190 C 
BRANCH  53  54
ATOM     54  O   UNL     1       4.798   5.655  22.242  0.00  0.00    -0.392 OA
ATOM     55  H   UNL     1       3.838   5.508  22.298  0.00  0.00    +0.210 HD
ENDBRANCH  53  54
ENDBRANCH  43  53
ENDBRANCH  40  41
ENDBRANCH   4  40
TORSDOF 18
ENDMDL
MODEL 9
REMARK VINA RESULT:      -6.4      2.833      8.664
REMARK  Name = 
REMARK  18 active torsions:
REMARK  status: ('A' for Active; 'I' for Inactive)
REMARK    1  A    between atoms: C_3  and  O_54
REMARK    2  A    between atoms: C_4  and  O_53
REMARK    3  A    between atoms: C_6  and  C_7
REMARK    4  A    between atoms: C_8  and  O_20
REMARK    5  A    between atoms: C_12  and  O_19
REMARK    6  A    between atoms: C_14  and  O_18
REMARK    7  A    between atoms: O_20  and  C_21
REMARK    8  A    between atoms: C_23  and  O_52
REMARK    9  A    between atoms: C_25  and  O_51
REMARK   10  A    between atoms: C_27  and  C_34
REMARK   11  A    between atoms: C_29  and  C_32
REMARK   12  A    between atoms: C_32  and  O_33
REMARK   13  A    between atoms: C_34  and  C_35
REMARK   14  A    between atoms: C_37  and  O_50
REMARK   15  A    between atoms: C_39  and  O_49
REMARK   16  A    between atoms: C_41  and  O_48
REMARK   17  A    between atoms: C_43  and  C_46
REMARK   18  A    between atoms: C_46  and  O_47
REMARK                            x       y       z     vdW  Elec       q    Type
REMARK                         _______ _______ _______ _____ _____    ______ ____
ROOT
ATOM      1  C   UNL     1       5.361  -2.551  25.184  0.00  0.00    +0.339 C 
ATOM      2  O   UNL     1       6.605  -2.916  25.795  0.00  0.00    -0.334 OA
ATOM      3  C   UNL     1       6.845  -4.264  26.269  0.00  0.00    +0.153 C 
ATOM      4  C   UNL     1       6.282  -5.431  25.368  0.00  0.00    +0.054 C 
ATOM      5  C   UNL     1       5.719  -4.790  24.109  0.00  0.00    +0.155 C 
ATOM      6  C   UNL     1       4.674  -3.755  24.509  0.00  0.00    +0.211 C 
ENDROOT
BRANCH   5   7
ATOM      7  O   UNL     1       6.779  -4.220  23.310  0.00  0.00    -0.389 OA
ATOM      8  H   UNL     1       6.365  -3.669  22.619  0.00  0.00    +0.210 HD
ENDBRANCH   5   7
BRANCH   6   9
ATOM      9  O   UNL     1       3.680  -4.332  25.376  0.00  0.00    -0.383 OA
ATOM     10  H   UNL     1       4.032  -4.353  26.286  0.00  0.00    +0.210 HD
ENDBRANCH   6   9
BRANCH   1  11
ATOM     11  O   UNL     1       5.647  -1.552  24.171  0.00  0.00    -0.453 OA
BRANCH  11  22
ATOM     12  C   UNL     1       6.841   0.223  25.332  0.00  0.00    +0.181 A 
ATOM     13  O   UNL     1       7.927   1.120  25.403  0.00  0.00    -0.451 OA
ATOM     14  C   UNL     1       8.713   1.277  24.288  0.00  0.00    +0.147 A 
ATOM     15  C   UNL     1       8.733   0.331  23.287  0.00  0.00    +0.109 A 
ATOM     16  C   UNL     1       9.490   0.490  22.118  0.00  0.00    +0.135 A 
ATOM     17  C   UNL     1      10.265   1.614  21.960  0.00  0.00    +0.091 A 
ATOM     18  C   UNL     1      10.293   2.559  22.986  0.00  0.00    +0.124 A 
ATOM     19  C   UNL     1       7.940  -0.845  23.484  0.00  0.00    +0.238 A 
ATOM     20  O   UNL     1       8.250  -1.821  22.812  0.00  0.00    -0.283 OA
ATOM     21  C   UNL     1       9.526   2.408  24.142  0.00  0.00    +0.092 A 
ATOM     22  C   UNL     1       6.751  -0.737  24.373  0.00  0.00    +0.214 A 
BRANCH  12  24
ATOM     23  C   UNL     1       5.767   0.071  27.657  0.00  0.00    +0.015 A 
ATOM     24  C   UNL     1       5.756   0.533  26.324  0.00  0.00    +0.025 A 
ATOM     25  C   UNL     1       4.612   1.243  25.909  0.00  0.00    +0.060 A 
ATOM     26  C   UNL     1       3.476   1.290  26.714  0.00  0.00    +0.159 A 
ATOM     27  C   UNL     1       3.459   0.674  27.957  0.00  0.00    +0.158 A 
ATOM     28  C   UNL     1       4.618   0.112  28.462  0.00  0.00    +0.050 A 
BRANCH  26  29
ATOM     29  O   UNL     1       2.345   1.893  26.240  0.00  0.00    -0.503 OA
ATOM     30  H   UNL     1       1.715   1.157  26.098  0.00  0.00    +0.292 HD
ENDBRANCH  26  29
BRANCH  27  31
ATOM     31  O   UNL     1       2.271   0.618  28.631  0.00  0.00    -0.503 OA
ATOM     32  H   UNL     1       1.814   1.468  28.491  0.00  0.00    +0.292 HD
ENDBRANCH  27  31
ENDBRANCH  12  24
BRANCH  18  33
ATOM     33  O   UNL     1      11.084   3.658  22.877  0.00  0.00    -0.507 OA
ATOM     34  H   UNL     1      11.165   4.069  23.756  0.00  0.00    +0.292 HD
ENDBRANCH  18  33
BRANCH  16  35
ATOM     35  O   UNL     1       9.497  -0.435  21.105  0.00  0.00    -0.506 OA
ATOM     36  H   UNL     1       9.828   0.009  20.295  0.00  0.00    +0.292 HD
ENDBRANCH  16  35
ENDBRANCH  11  22
ENDBRANCH   1  11
BRANCH   3  37
ATOM     37  C   UNL     1       8.400  -4.324  26.274  0.00  0.00    +0.187 C 
BRANCH  37  38
ATOM     38  O   UNL     1       8.981  -3.830  25.063  0.00  0.00    -0.392 OA
ATOM     39  H   UNL     1       9.824  -3.397  25.278  0.00  0.00    +0.210 HD
ENDBRANCH  37  38
ENDBRANCH   3  37
BRANCH   4  40
ATOM     40  C   UNL     1       5.270  -6.371  26.125  0.00  0.00    +0.043 C 
BRANCH  40  41
ATOM     41  C   UNL     1       4.570  -5.828  27.442  0.00  0.00    +0.150 C 
ATOM     42  O   UNL     1       3.165  -6.122  27.332  0.00  0.00    -0.366 OA
ATOM     43  C   UNL     1       2.336  -6.115  28.518  0.00  0.00    +0.175 C 
ATOM     44  C   UNL     1       2.979  -6.816  29.727  0.00  0.00    +0.176 C 
ATOM     45  C   UNL     1       4.402  -6.298  29.969  0.00  0.00    +0.176 C 
ATOM     46  C   UNL     1       5.237  -6.473  28.689  0.00  0.00    +0.174 C 
BRANCH  44  47
ATOM     47  O   UNL     1       3.014  -8.231  29.455  0.00  0.00    -0.386 OA
ATOM     48  H   UNL     1       2.194  -8.619  29.812  0.00  0.00    +0.210 HD
ENDBRANCH  44  47
BRANCH  45  49
ATOM     49  O   UNL     1       4.389  -4.967  30.485  0.00  0.00    -0.386 OA
ATOM     50  H   UNL     1       4.165  -4.976  31.432  0.00  0.00    +0.210 HD
ENDBRANCH  45  49
BRANCH  46  51
ATOM     51  O   UNL     1       5.446  -7.876  28.472  0.00  0.00    -0.387 OA
ATOM     52  H   UNL     1       5.616  -7.973  27.510  0.00  0.00    +0.210 HD
ENDBRANCH  46  51
BRANCH  43  53
ATOM     53  C   UNL     1       1.745  -4.745  28.913  0.00  0.00    +0.190 C 
BRANCH  53  54
ATOM     54  O   UNL     1       1.874  -3.767  27.888  0.00  0.00    -0.392 OA
ATOM     55  H   UNL     1       2.788  -3.798  27.556  0.00  0.00    +0.210 HD
ENDBRANCH  53  54
ENDBRANCH  43  53
ENDBRANCH  40  41
ENDBRANCH   4  40
TORSDOF 18
ENDMDL
