MODEL 1
REMARK VINA RESULT:      -8.1      0.000      0.000
REMARK  Name = 
REMARK  12 active torsions:
REMARK  status: ('A' for Active; 'I' for Inactive)
REMARK    1  A    between atoms: C_3  and  O_34
REMARK    2  A    between atoms: C_4  and  O_21
REMARK    3  A    between atoms: C_6  and  C_7
REMARK    4  A    between atoms: C_8  and  O_20
REMARK    5  A    between atoms: C_12  and  O_19
REMARK    6  A    between atoms: C_14  and  O_18
REMARK    7  A    between atoms: O_21  and  C_22
REMARK    8  A    between atoms: C_23  and  O_33
REMARK    9  A    between atoms: C_24  and  O_32
REMARK   10  A    between atoms: C_25  and  O_31
REMARK   11  A    between atoms: C_26  and  C_28
REMARK   12  A    between atoms: C_28  and  O_30
REMARK                            x       y       z     vdW  Elec       q    Type
REMARK                         _______ _______ _______ _____ _____    ______ ____
ROOT
ATOM      1  C   UNL     1       9.815  -0.956  23.203  0.00  0.00    +0.011 A 
ATOM      2  C   UNL     1       8.765  -0.439  23.977  0.00  0.00    -0.001 A 
ATOM      3  C   UNL     1       8.135  -1.273  24.928  0.00  0.00    +0.057 A 
ATOM      4  C   UNL     1       8.557  -2.583  25.115  0.00  0.00    +0.166 A 
ATOM      5  C   UNL     1       9.622  -3.070  24.349  0.00  0.00    +0.159 A 
ATOM      6  C   UNL     1      10.244  -2.273  23.389  0.00  0.00    +0.049 A 
ENDROOT
BRANCH   2   7
ATOM      7  C   UNL     1       8.234   0.976  23.796  0.00  0.00    +0.240 C 
ATOM      8  O   UNL     1       9.312   1.932  23.704  0.00  0.00    -0.480 OA
ATOM      9  C   UNL     1       8.881   3.223  23.502  0.00  0.00    +0.139 A 
ATOM     10  C   UNL     1       7.618   3.548  22.997  0.00  0.00    +0.103 A 
ATOM     11  C   UNL     1       7.233   4.887  22.853  0.00  0.00    +0.134 A 
ATOM     12  C   UNL     1       8.120   5.912  23.172  0.00  0.00    +0.091 A 
ATOM     13  C   UNL     1       9.391   5.578  23.642  0.00  0.00    +0.124 A 
ATOM     14  C   UNL     1       6.713   2.455  22.625  0.00  0.00    +0.202 C 
ATOM     15  O   UNL     1       5.522   2.677  22.412  0.00  0.00    -0.289 OA
ATOM     16  C   UNL     1       9.773   4.249  23.806  0.00  0.00    +0.092 A 
ATOM     17  C   UNL     1       7.326   1.072  22.565  0.00  0.00    +0.230 C 
BRANCH  11  18
ATOM     18  O   UNL     1       5.996   5.262  22.402  0.00  0.00    -0.506 OA
ATOM     19  H   UNL     1       5.650   5.973  22.987  0.00  0.00    +0.292 HD
ENDBRANCH  11  18
BRANCH  13  20
ATOM     20  O   UNL     1      10.295   6.545  23.957  0.00  0.00    -0.507 OA
ATOM     21  H   UNL     1      11.075   6.128  24.366  0.00  0.00    +0.292 HD
ENDBRANCH  13  20
BRANCH  17  22
ATOM     22  O   UNL     1       6.293   0.087  22.562  0.00  0.00    -0.380 OA
ATOM     23  H   UNL     1       5.686   0.291  23.298  0.00  0.00    +0.211 HD
ENDBRANCH  17  22
ENDBRANCH   2   7
BRANCH   5  24
ATOM     24  O   UNL     1      10.052  -4.357  24.555  0.00  0.00    -0.503 OA
ATOM     25  H   UNL     1       9.655  -4.695  25.372  0.00  0.00    +0.292 HD
ENDBRANCH   5  24
BRANCH   4  26
ATOM     26  O   UNL     1       8.078  -3.408  26.079  0.00  0.00    -0.457 OA
BRANCH  26  27
ATOM     27  C   UNL     1       6.892  -4.178  25.920  0.00  0.00    +0.340 C 
ATOM     28  O   UNL     1       6.370  -4.177  24.570  0.00  0.00    -0.322 OA
ATOM     29  C   UNL     1       4.954  -4.467  24.592  0.00  0.00    +0.261 C 
ATOM     30  C   UNL     1       4.676  -5.853  25.198  0.00  0.00    +0.185 C 
ATOM     31  C   UNL     1       5.340  -5.970  26.585  0.00  0.00    +0.180 C 
ATOM     32  C   UNL     1       6.848  -5.613  26.506  0.00  0.00    +0.214 C 
BRANCH  29  33
ATOM     33  C   UNL     1       4.355  -4.318  23.195  0.00  0.00    +0.337 C 
ATOM     34  O   UNL     1       4.884  -3.725  22.267  0.00  0.00    -0.248 OA
BRANCH  33  35
ATOM     35  O   UNL     1       3.182  -4.985  23.064  0.00  0.00    -0.479 OA
ATOM     36  H   UNL     1       3.318  -5.948  23.221  0.00  0.00    +0.295 HD
ENDBRANCH  33  35
ENDBRANCH  29  33
BRANCH  30  37
ATOM     37  O   UNL     1       5.192  -6.935  24.403  0.00  0.00    -0.386 OA
ATOM     38  H   UNL     1       4.548  -7.174  23.713  0.00  0.00    +0.210 HD
ENDBRANCH  30  37
BRANCH  31  39
ATOM     39  O   UNL     1       5.132  -7.276  27.124  0.00  0.00    -0.386 OA
ATOM     40  H   UNL     1       4.279  -7.249  27.601  0.00  0.00    +0.210 HD
ENDBRANCH  31  39
BRANCH  32  41
ATOM     41  O   UNL     1       7.482  -5.722  27.779  0.00  0.00    -0.383 OA
ATOM     42  H   UNL     1       7.209  -6.547  28.209  0.00  0.00    +0.210 HD
ENDBRANCH  32  41
ENDBRANCH  26  27
ENDBRANCH   4  26
TORSDOF 12
ENDMDL
MODEL 2
REMARK VINA RESULT:      -7.8      1.722      2.081
REMARK  Name = 
REMARK  12 active torsions:
REMARK  status: ('A' for Active; 'I' for Inactive)
REMARK    1  A    between atoms: C_3  and  O_34
REMARK    2  A    between atoms: C_4  and  O_21
REMARK    3  A    between atoms: C_6  and  C_7
REMARK    4  A    between atoms: C_8  and  O_20
REMARK    5  A    between atoms: C_12  and  O_19
REMARK    6  A    between atoms: C_14  and  O_18
REMARK    7  A    between atoms: O_21  and  C_22
REMARK    8  A    between atoms: C_23  and  O_33
REMARK    9  A    between atoms: C_24  and  O_32
REMARK   10  A    between atoms: C_25  and  O_31
REMARK   11  A    between atoms: C_26  and  C_28
REMARK   12  A    between atoms: C_28  and  O_30
REMARK                            x       y       z     vdW  Elec       q    Type
REMARK                         _______ _______ _______ _____ _____    ______ ____
ROOT
ATOM      1  C   UNL     1       9.864  -0.843  23.072  0.00  0.00    +0.011 A 
ATOM      2  C   UNL     1       9.421  -0.139  24.201  0.00  0.00    -0.001 A 
ATOM      3  C   UNL     1       8.968  -0.861  25.328  0.00  0.00    +0.057 A 
ATOM      4  C   UNL     1       8.977  -2.249  25.334  0.00  0.00    +0.166 A 
ATOM      5  C   UNL     1       9.447  -2.931  24.205  0.00  0.00    +0.159 A 
ATOM      6  C   UNL     1       9.878  -2.240  23.072  0.00  0.00    +0.049 A 
ENDROOT
BRANCH   2   7
ATOM      7  C   UNL     1       9.354   1.381  24.245  0.00  0.00    +0.240 C 
ATOM      8  O   UNL     1      10.530   1.974  23.656  0.00  0.00    -0.480 OA
ATOM      9  C   UNL     1      10.498   3.350  23.638  0.00  0.00    +0.139 A 
ATOM     10  C   UNL     1       9.322   4.099  23.748  0.00  0.00    +0.103 A 
ATOM     11  C   UNL     1       9.369   5.499  23.761  0.00  0.00    +0.134 A 
ATOM     12  C   UNL     1      10.586   6.162  23.623  0.00  0.00    +0.091 A 
ATOM     13  C   UNL     1      11.750   5.408  23.478  0.00  0.00    +0.124 A 
ATOM     14  C   UNL     1       8.046   3.382  23.849  0.00  0.00    +0.202 C 
ATOM     15  O   UNL     1       7.023   3.975  24.190  0.00  0.00    -0.289 OA
ATOM     16  C   UNL     1      11.713   4.015  23.483  0.00  0.00    +0.092 A 
ATOM     17  C   UNL     1       8.088   1.898  23.552  0.00  0.00    +0.230 C 
BRANCH  11  18
ATOM     18  O   UNL     1       8.256   6.280  23.907  0.00  0.00    -0.506 OA
ATOM     19  H   UNL     1       7.850   6.419  23.022  0.00  0.00    +0.292 HD
ENDBRANCH  11  18
BRANCH  13  20
ATOM     20  O   UNL     1      12.961   6.012  23.328  0.00  0.00    -0.507 OA
ATOM     21  H   UNL     1      12.977   6.824  23.867  0.00  0.00    +0.292 HD
ENDBRANCH  13  20
BRANCH  17  22
ATOM     22  O   UNL     1       6.899   1.276  24.038  0.00  0.00    -0.380 OA
ATOM     23  H   UNL     1       6.424   0.904  23.272  0.00  0.00    +0.211 HD
ENDBRANCH  17  22
ENDBRANCH   2   7
BRANCH   5  24
ATOM     24  O   UNL     1       9.478  -4.303  24.224  0.00  0.00    -0.503 OA
ATOM     25  H   UNL     1      10.361  -4.595  24.498  0.00  0.00    +0.292 HD
ENDBRANCH   5  24
BRANCH   4  26
ATOM     26  O   UNL     1       8.663  -3.010  26.412  0.00  0.00    -0.457 OA
BRANCH  26  27
ATOM     27  C   UNL     1       7.371  -3.573  26.613  0.00  0.00    +0.340 C 
ATOM     28  O   UNL     1       6.306  -2.840  25.962  0.00  0.00    -0.322 OA
ATOM     29  C   UNL     1       5.053  -3.097  26.635  0.00  0.00    +0.261 C 
ATOM     30  C   UNL     1       4.688  -4.590  26.585  0.00  0.00    +0.185 C 
ATOM     31  C   UNL     1       5.854  -5.440  27.131  0.00  0.00    +0.180 C 
ATOM     32  C   UNL     1       7.177  -5.095  26.398  0.00  0.00    +0.214 C 
BRANCH  29  33
ATOM     33  C   UNL     1       3.946  -2.214  26.061  0.00  0.00    +0.337 C 
ATOM     34  O   UNL     1       2.853  -2.616  25.692  0.00  0.00    -0.248 OA
BRANCH  33  35
ATOM     35  O   UNL     1       4.278  -0.899  26.070  0.00  0.00    -0.479 OA
ATOM     36  H   UNL     1       3.489  -0.347  25.866  0.00  0.00    +0.295 HD
ENDBRANCH  33  35
ENDBRANCH  29  33
BRANCH  30  37
ATOM     37  O   UNL     1       4.419  -5.067  25.255  0.00  0.00    -0.386 OA
ATOM     38  H   UNL     1       3.640  -5.650  25.265  0.00  0.00    +0.210 HD
ENDBRANCH  30  37
BRANCH  31  39
ATOM     39  O   UNL     1       5.540  -6.830  27.032  0.00  0.00    -0.386 OA
ATOM     40  H   UNL     1       5.437  -7.160  27.947  0.00  0.00    +0.210 HD
ENDBRANCH  31  39
BRANCH  32  41
ATOM     41  O   UNL     1       8.267  -5.877  26.883  0.00  0.00    -0.383 OA
ATOM     42  H   UNL     1       8.394  -6.649  26.310  0.00  0.00    +0.210 HD
ENDBRANCH  32  41
ENDBRANCH  26  27
ENDBRANCH   4  26
TORSDOF 12
ENDMDL
MODEL 3
REMARK VINA RESULT:      -7.8      1.898      8.928
REMARK  Name = 
REMARK  12 active torsions:
REMARK  status: ('A' for Active; 'I' for Inactive)
REMARK    1  A    between atoms: C_3  and  O_34
REMARK    2  A    between atoms: C_4  and  O_21
REMARK    3  A    between atoms: C_6  and  C_7
REMARK    4  A    between atoms: C_8  and  O_20
REMARK    5  A    between atoms: C_12  and  O_19
REMARK    6  A    between atoms: C_14  and  O_18
REMARK    7  A    between atoms: O_21  and  C_22
REMARK    8  A    between atoms: C_23  and  O_33
REMARK    9  A    between atoms: C_24  and  O_32
REMARK   10  A    between atoms: C_25  and  O_31
REMARK   11  A    between atoms: C_26  and  C_28
REMARK   12  A    between atoms: C_28  and  O_30
REMARK                            x       y       z     vdW  Elec       q    Type
REMARK                         _______ _______ _______ _____ _____    ______ ____
ROOT
ATOM      1  C   UNL     1       9.006  -1.664  21.927  0.00  0.00    +0.011 A 
ATOM      2  C   UNL     1       7.840  -1.657  22.707  0.00  0.00    -0.001 A 
ATOM      3  C   UNL     1       7.245  -0.420  23.043  0.00  0.00    +0.057 A 
ATOM      4  C   UNL     1       7.788   0.776  22.595  0.00  0.00    +0.166 A 
ATOM      5  C   UNL     1       8.939   0.744  21.798  0.00  0.00    +0.159 A 
ATOM      6  C   UNL     1       9.557  -0.463  21.472  0.00  0.00    +0.049 A 
ENDROOT
BRANCH   2   7
ATOM      7  C   UNL     1       7.215  -2.931  23.258  0.00  0.00    +0.240 C 
ATOM      8  O   UNL     1       7.246  -2.948  24.701  0.00  0.00    -0.480 OA
ATOM      9  C   UNL     1       6.656  -4.065  25.247  0.00  0.00    +0.139 A 
ATOM     10  C   UNL     1       5.743  -4.872  24.561  0.00  0.00    +0.103 A 
ATOM     11  C   UNL     1       5.212  -6.018  25.168  0.00  0.00    +0.134 A 
ATOM     12  C   UNL     1       5.555  -6.343  26.478  0.00  0.00    +0.091 A 
ATOM     13  C   UNL     1       6.440  -5.512  27.167  0.00  0.00    +0.124 A 
ATOM     14  C   UNL     1       5.361  -4.489  23.198  0.00  0.00    +0.202 C 
ATOM     15  O   UNL     1       4.762  -5.283  22.472  0.00  0.00    -0.289 OA
ATOM     16  C   UNL     1       6.987  -4.383  26.563  0.00  0.00    +0.092 A 
ATOM     17  C   UNL     1       5.779  -3.105  22.751  0.00  0.00    +0.230 C 
BRANCH  11  18
ATOM     18  O   UNL     1       4.347  -6.864  24.530  0.00  0.00    -0.506 OA
ATOM     19  H   UNL     1       3.500  -6.886  25.031  0.00  0.00    +0.292 HD
ENDBRANCH  11  18
BRANCH  13  20
ATOM     20  O   UNL     1       6.796  -5.784  28.452  0.00  0.00    -0.507 OA
ATOM     21  H   UNL     1       6.496  -6.682  28.680  0.00  0.00    +0.292 HD
ENDBRANCH  13  20
BRANCH  17  22
ATOM     22  O   UNL     1       5.678  -3.007  21.330  0.00  0.00    -0.380 OA
ATOM     23  H   UNL     1       5.150  -2.214  21.123  0.00  0.00    +0.211 HD
ENDBRANCH  17  22
ENDBRANCH   2   7
BRANCH   5  24
ATOM     24  O   UNL     1       9.458   1.927  21.336  0.00  0.00    -0.503 OA
ATOM     25  H   UNL     1       9.453   2.576  22.056  0.00  0.00    +0.292 HD
ENDBRANCH   5  24
BRANCH   4  26
ATOM     26  O   UNL     1       7.216   1.991  22.782  0.00  0.00    -0.457 OA
BRANCH  26  27
ATOM     27  C   UNL     1       7.628   2.892  23.804  0.00  0.00    +0.340 C 
ATOM     28  O   UNL     1       8.173   4.136  23.304  0.00  0.00    -0.322 OA
ATOM     29  C   UNL     1       9.050   4.720  24.293  0.00  0.00    +0.261 C 
ATOM     30  C   UNL     1       8.294   5.034  25.595  0.00  0.00    +0.185 C 
ATOM     31  C   UNL     1       7.563   3.773  26.102  0.00  0.00    +0.180 C 
ATOM     32  C   UNL     1       6.667   3.171  24.988  0.00  0.00    +0.214 C 
BRANCH  29  33
ATOM     33  C   UNL     1       9.754   5.951  23.726  0.00  0.00    +0.337 C 
ATOM     34  O   UNL     1       9.436   7.108  23.958  0.00  0.00    -0.248 OA
BRANCH  33  35
ATOM     35  O   UNL     1      10.837   5.625  22.977  0.00  0.00    -0.479 OA
ATOM     36  H   UNL     1      11.241   6.436  22.592  0.00  0.00    +0.295 HD
ENDBRANCH  33  35
ENDBRANCH  29  33
BRANCH  30  37
ATOM     37  O   UNL     1       7.292   6.055  25.440  0.00  0.00    -0.386 OA
ATOM     38  H   UNL     1       6.601   5.944  26.116  0.00  0.00    +0.210 HD
ENDBRANCH  30  37
BRANCH  31  39
ATOM     39  O   UNL     1       6.812   4.077  27.279  0.00  0.00    -0.386 OA
ATOM     40  H   UNL     1       6.057   4.629  26.994  0.00  0.00    +0.210 HD
ENDBRANCH  31  39
BRANCH  32  41
ATOM     41  O   UNL     1       5.976   2.007  25.439  0.00  0.00    -0.383 OA
ATOM     42  H   UNL     1       6.073   1.297  24.786  0.00  0.00    +0.210 HD
ENDBRANCH  32  41
ENDBRANCH  26  27
ENDBRANCH   4  26
TORSDOF 12
ENDMDL
MODEL 4
REMARK VINA RESULT:      -7.8      1.606      8.700
REMARK  Name = 
REMARK  12 active torsions:
REMARK  status: ('A' for Active; 'I' for Inactive)
REMARK    1  A    between atoms: C_3  and  O_34
REMARK    2  A    between atoms: C_4  and  O_21
REMARK    3  A    between atoms: C_6  and  C_7
REMARK    4  A    between atoms: C_8  and  O_20
REMARK    5  A    between atoms: C_12  and  O_19
REMARK    6  A    between atoms: C_14  and  O_18
REMARK    7  A    between atoms: O_21  and  C_22
REMARK    8  A    between atoms: C_23  and  O_33
REMARK    9  A    between atoms: C_24  and  O_32
REMARK   10  A    between atoms: C_25  and  O_31
REMARK   11  A    between atoms: C_26  and  C_28
REMARK   12  A    between atoms: C_28  and  O_30
REMARK                            x       y       z     vdW  Elec       q    Type
REMARK                         _______ _______ _______ _____ _____    ______ ____
ROOT
ATOM      1  C   UNL     1       9.054  -1.440  21.856  0.00  0.00    +0.011 A 
ATOM      2  C   UNL     1       8.188  -1.414  22.960  0.00  0.00    -0.001 A 
ATOM      3  C   UNL     1       8.037  -0.212  23.688  0.00  0.00    +0.057 A 
ATOM      4  C   UNL     1       8.717   0.938  23.311  0.00  0.00    +0.166 A 
ATOM      5  C   UNL     1       9.557   0.896  22.192  0.00  0.00    +0.159 A 
ATOM      6  C   UNL     1       9.739  -0.284  21.471  0.00  0.00    +0.049 A 
ENDROOT
BRANCH   2   7
ATOM      7  C   UNL     1       7.440  -2.648  23.444  0.00  0.00    +0.240 C 
ATOM      8  O   UNL     1       7.685  -2.892  24.845  0.00  0.00    -0.480 OA
ATOM      9  C   UNL     1       6.999  -3.978  25.338  0.00  0.00    +0.139 A 
ATOM     10  C   UNL     1       5.866  -4.523  24.725  0.00  0.00    +0.103 A 
ATOM     11  C   UNL     1       5.241  -5.655  25.263  0.00  0.00    +0.134 A 
ATOM     12  C   UNL     1       5.716  -6.226  26.441  0.00  0.00    +0.091 A 
ATOM     13  C   UNL     1       6.825  -5.655  27.066  0.00  0.00    +0.124 A 
ATOM     14  C   UNL     1       5.355  -3.881  23.509  0.00  0.00    +0.202 C 
ATOM     15  O   UNL     1       4.525  -4.453  22.803  0.00  0.00    -0.289 OA
ATOM     16  C   UNL     1       7.463  -4.542  26.525  0.00  0.00    +0.092 A 
ATOM     17  C   UNL     1       5.936  -2.523  23.176  0.00  0.00    +0.230 C 
BRANCH  11  18
ATOM     18  O   UNL     1       4.155  -6.253  24.684  0.00  0.00    -0.506 OA
ATOM     19  H   UNL     1       4.268  -7.228  24.734  0.00  0.00    +0.292 HD
ENDBRANCH  11  18
BRANCH  13  20
ATOM     20  O   UNL     1       7.318  -6.172  28.224  0.00  0.00    -0.507 OA
ATOM     21  H   UNL     1       7.709  -7.045  28.040  0.00  0.00    +0.292 HD
ENDBRANCH  13  20
BRANCH  17  22
ATOM     22  O   UNL     1       5.641  -2.193  21.819  0.00  0.00    -0.380 OA
ATOM     23  H   UNL     1       6.451  -1.821  21.421  0.00  0.00    +0.211 HD
ENDBRANCH  17  22
ENDBRANCH   2   7
BRANCH   5  24
ATOM     24  O   UNL     1      10.208   2.041  21.809  0.00  0.00    -0.503 OA
ATOM     25  H   UNL     1      11.111   2.024  22.161  0.00  0.00    +0.292 HD
ENDBRANCH   5  24
BRANCH   4  26
ATOM     26  O   UNL     1       8.542   2.152  23.890  0.00  0.00    -0.457 OA
BRANCH  26  27
ATOM     27  C   UNL     1       7.688   3.153  23.348  0.00  0.00    +0.340 C 
ATOM     28  O   UNL     1       6.331   3.097  23.848  0.00  0.00    -0.322 OA
ATOM     29  C   UNL     1       5.433   3.713  22.898  0.00  0.00    +0.261 C 
ATOM     30  C   UNL     1       5.785   5.193  22.673  0.00  0.00    +0.185 C 
ATOM     31  C   UNL     1       7.270   5.331  22.280  0.00  0.00    +0.180 C 
ATOM     32  C   UNL     1       8.182   4.621  23.316  0.00  0.00    +0.214 C 
BRANCH  29  33
ATOM     33  C   UNL     1       3.981   3.527  23.334  0.00  0.00    +0.337 C 
ATOM     34  O   UNL     1       3.468   4.063  24.306  0.00  0.00    -0.248 OA
BRANCH  33  35
ATOM     35  O   UNL     1       3.280   2.745  22.475  0.00  0.00    -0.479 OA
ATOM     36  H   UNL     1       2.791   2.048  22.969  0.00  0.00    +0.295 HD
ENDBRANCH  33  35
ENDBRANCH  29  33
BRANCH  30  37
ATOM     37  O   UNL     1       5.591   6.009  23.841  0.00  0.00    -0.386 OA
ATOM     38  H   UNL     1       6.388   6.544  24.006  0.00  0.00    +0.210 HD
ENDBRANCH  30  37
BRANCH  31  39
ATOM     39  O   UNL     1       7.615   6.709  22.127  0.00  0.00    -0.386 OA
ATOM     40  H   UNL     1       7.814   7.048  23.023  0.00  0.00    +0.210 HD
ENDBRANCH  31  39
BRANCH  32  41
ATOM     41  O   UNL     1       9.562   4.744  22.974  0.00  0.00    -0.383 OA
ATOM     42  H   UNL     1      10.109   4.520  23.743  0.00  0.00    +0.210 HD
ENDBRANCH  32  41
ENDBRANCH  26  27
ENDBRANCH   4  26
TORSDOF 12
ENDMDL
MODEL 5
REMARK VINA RESULT:      -7.7      1.619      8.892
REMARK  Name = 
REMARK  12 active torsions:
REMARK  status: ('A' for Active; 'I' for Inactive)
REMARK    1  A    between atoms: C_3  and  O_34
REMARK    2  A    between atoms: C_4  and  O_21
REMARK    3  A    between atoms: C_6  and  C_7
REMARK    4  A    between atoms: C_8  and  O_20
REMARK    5  A    between atoms: C_12  and  O_19
REMARK    6  A    between atoms: C_14  and  O_18
REMARK    7  A    between atoms: O_21  and  C_22
REMARK    8  A    between atoms: C_23  and  O_33
REMARK    9  A    between atoms: C_24  and  O_32
REMARK   10  A    between atoms: C_25  and  O_31
REMARK   11  A    between atoms: C_26  and  C_28
REMARK   12  A    between atoms: C_28  and  O_30
REMARK                            x       y       z     vdW  Elec       q    Type
REMARK                         _______ _______ _______ _____ _____    ______ ____
ROOT
ATOM      1  C   UNL     1       9.502  -2.663  23.759  0.00  0.00    +0.011 A 
ATOM      2  C   UNL     1       8.435  -2.356  24.617  0.00  0.00    -0.001 A 
ATOM      3  C   UNL     1       8.244  -1.016  25.026  0.00  0.00    +0.057 A 
ATOM      4  C   UNL     1       9.084  -0.008  24.573  0.00  0.00    +0.166 A 
ATOM      5  C   UNL     1      10.128  -0.334  23.698  0.00  0.00    +0.159 A 
ATOM      6  C   UNL     1      10.349  -1.651  23.299  0.00  0.00    +0.049 A 
ENDROOT
BRANCH   2   7
ATOM      7  C   UNL     1       7.500  -3.419  25.175  0.00  0.00    +0.240 C 
ATOM      8  O   UNL     1       6.814  -4.121  24.117  0.00  0.00    -0.480 OA
ATOM      9  C   UNL     1       5.985  -5.120  24.572  0.00  0.00    +0.139 A 
ATOM     10  C   UNL     1       6.102  -5.709  25.835  0.00  0.00    +0.103 A 
ATOM     11  C   UNL     1       5.196  -6.695  26.246  0.00  0.00    +0.134 A 
ATOM     12  C   UNL     1       4.193  -7.132  25.385  0.00  0.00    +0.091 A 
ATOM     13  C   UNL     1       4.105  -6.564  24.113  0.00  0.00    +0.124 A 
ATOM     14  C   UNL     1       7.191  -5.267  26.712  0.00  0.00    +0.202 C 
ATOM     15  O   UNL     1       7.193  -5.568  27.905  0.00  0.00    -0.289 OA
ATOM     16  C   UNL     1       4.990  -5.569  23.705  0.00  0.00    +0.092 A 
ATOM     17  C   UNL     1       8.259  -4.407  26.069  0.00  0.00    +0.230 C 
BRANCH  11  18
ATOM     18  O   UNL     1       5.239  -7.276  27.484  0.00  0.00    -0.506 OA
ATOM     19  H   UNL     1       4.324  -7.325  27.842  0.00  0.00    +0.292 HD
ENDBRANCH  11  18
BRANCH  13  20
ATOM     20  O   UNL     1       3.148  -6.966  23.233  0.00  0.00    -0.507 OA
ATOM     21  H   UNL     1       3.567  -7.492  22.529  0.00  0.00    +0.292 HD
ENDBRANCH  13  20
BRANCH  17  22
ATOM     22  O   UNL     1       9.028  -3.757  27.082  0.00  0.00    -0.380 OA
ATOM     23  H   UNL     1       8.483  -3.039  27.454  0.00  0.00    +0.211 HD
ENDBRANCH  17  22
ENDBRANCH   2   7
BRANCH   5  24
ATOM     24  O   UNL     1      10.940   0.670  23.234  0.00  0.00    -0.503 OA
ATOM     25  H   UNL     1      11.717   0.739  23.810  0.00  0.00    +0.292 HD
ENDBRANCH   5  24
BRANCH   4  26
ATOM     26  O   UNL     1       8.901   1.311  24.832  0.00  0.00    -0.457 OA
BRANCH  26  27
ATOM     27  C   UNL     1       8.025   2.135  24.071  0.00  0.00    +0.340 C 
ATOM     28  O   UNL     1       6.704   2.273  24.647  0.00  0.00    -0.322 OA
ATOM     29  C   UNL     1       5.752   2.610  23.613  0.00  0.00    +0.261 C 
ATOM     30  C   UNL     1       6.108   3.947  22.939  0.00  0.00    +0.185 C 
ATOM     31  C   UNL     1       7.565   3.915  22.434  0.00  0.00    +0.180 C 
ATOM     32  C   UNL     1       8.535   3.512  23.576  0.00  0.00    +0.214 C 
BRANCH  29  33
ATOM     33  C   UNL     1       4.331   2.608  24.172  0.00  0.00    +0.337 C 
ATOM     34  O   UNL     1       3.393   3.234  23.701  0.00  0.00    -0.248 OA
BRANCH  33  35
ATOM     35  O   UNL     1       4.193   1.766  25.227  0.00  0.00    -0.479 OA
ATOM     36  H   UNL     1       4.642   0.910  25.040  0.00  0.00    +0.295 HD
ENDBRANCH  33  35
ENDBRANCH  29  33
BRANCH  30  37
ATOM     37  O   UNL     1       6.004   5.076  23.824  0.00  0.00    -0.386 OA
ATOM     38  H   UNL     1       5.074   5.355  23.895  0.00  0.00    +0.210 HD
ENDBRANCH  30  37
BRANCH  31  39
ATOM     39  O   UNL     1       7.916   5.175  21.860  0.00  0.00    -0.386 OA
ATOM     40  H   UNL     1       8.034   5.799  22.605  0.00  0.00    +0.210 HD
ENDBRANCH  31  39
BRANCH  32  41
ATOM     41  O   UNL     1       9.890   3.485  23.130  0.00  0.00    -0.383 OA
ATOM     42  H   UNL     1      10.057   4.242  22.547  0.00  0.00    +0.210 HD
ENDBRANCH  32  41
ENDBRANCH  26  27
ENDBRANCH   4  26
TORSDOF 12
ENDMDL
MODEL 6
REMARK VINA RESULT:      -7.6      2.256      8.342
REMARK  Name = 
REMARK  12 active torsions:
REMARK  status: ('A' for Active; 'I' for Inactive)
REMARK    1  A    between atoms: C_3  and  O_34
REMARK    2  A    between atoms: C_4  and  O_21
REMARK    3  A    between atoms: C_6  and  C_7
REMARK    4  A    between atoms: C_8  and  O_20
REMARK    5  A    between atoms: C_12  and  O_19
REMARK    6  A    between atoms: C_14  and  O_18
REMARK    7  A    between atoms: O_21  and  C_22
REMARK    8  A    between atoms: C_23  and  O_33
REMARK    9  A    between atoms: C_24  and  O_32
REMARK   10  A    between atoms: C_25  and  O_31
REMARK   11  A    between atoms: C_26  and  C_28
REMARK   12  A    between atoms: C_28  and  O_30
REMARK                            x       y       z     vdW  Elec       q    Type
REMARK                         _______ _______ _______ _____ _____    ______ ____
ROOT
ATOM      1  C   UNL     1       9.148  -1.680  22.094  0.00  0.00    +0.011 A 
ATOM      2  C   UNL     1       7.889  -1.634  22.710  0.00  0.00    -0.001 A 
ATOM      3  C   UNL     1       7.250  -0.385  22.879  0.00  0.00    +0.057 A 
ATOM      4  C   UNL     1       7.844   0.785  22.425  0.00  0.00    +0.166 A 
ATOM      5  C   UNL     1       9.090   0.713  21.791  0.00  0.00    +0.159 A 
ATOM      6  C   UNL     1       9.750  -0.505  21.634  0.00  0.00    +0.049 A 
ENDROOT
BRANCH   2   7
ATOM      7  C   UNL     1       7.200  -2.876  23.259  0.00  0.00    +0.240 C 
ATOM      8  O   UNL     1       7.385  -2.989  24.686  0.00  0.00    -0.480 OA
ATOM      9  C   UNL     1       6.747  -4.077  25.235  0.00  0.00    +0.139 A 
ATOM     10  C   UNL     1       5.688  -4.748  24.615  0.00  0.00    +0.103 A 
ATOM     11  C   UNL     1       5.111  -5.875  25.216  0.00  0.00    +0.134 A 
ATOM     12  C   UNL     1       5.558  -6.315  26.459  0.00  0.00    +0.091 A 
ATOM     13  C   UNL     1       6.592  -5.619  27.087  0.00  0.00    +0.124 A 
ATOM     14  C   UNL     1       5.201  -4.244  23.326  0.00  0.00    +0.202 C 
ATOM     15  O   UNL     1       4.451  -4.928  22.632  0.00  0.00    -0.289 OA
ATOM     16  C   UNL     1       7.183  -4.510  26.486  0.00  0.00    +0.092 A 
ATOM     17  C   UNL     1       5.707  -2.879  22.909  0.00  0.00    +0.230 C 
BRANCH  11  18
ATOM     18  O   UNL     1       4.101  -6.593  24.636  0.00  0.00    -0.506 OA
ATOM     19  H   UNL     1       4.264  -7.550  24.792  0.00  0.00    +0.292 HD
ENDBRANCH  11  18
BRANCH  13  20
ATOM     20  O   UNL     1       7.055  -6.005  28.307  0.00  0.00    -0.507 OA
ATOM     21  H   UNL     1       7.997  -6.241  28.227  0.00  0.00    +0.292 HD
ENDBRANCH  13  20
BRANCH  17  22
ATOM     22  O   UNL     1       5.465  -2.681  21.517  0.00  0.00    -0.380 OA
ATOM     23  H   UNL     1       6.150  -2.074  21.180  0.00  0.00    +0.211 HD
ENDBRANCH  17  22
ENDBRANCH   2   7
BRANCH   5  24
ATOM     24  O   UNL     1       9.662   1.869  21.323  0.00  0.00    -0.503 OA
ATOM     25  H   UNL     1      10.453   1.644  20.809  0.00  0.00    +0.292 HD
ENDBRANCH   5  24
BRANCH   4  26
ATOM     26  O   UNL     1       7.248   2.003  22.452  0.00  0.00    -0.457 OA
BRANCH  26  27
ATOM     27  C   UNL     1       7.081   2.757  23.647  0.00  0.00    +0.340 C 
ATOM     28  O   UNL     1       6.279   2.091  24.652  0.00  0.00    -0.322 OA
ATOM     29  C   UNL     1       5.695   3.070  25.541  0.00  0.00    +0.261 C 
ATOM     30  C   UNL     1       6.780   3.879  26.272  0.00  0.00    +0.185 C 
ATOM     31  C   UNL     1       7.761   4.494  25.253  0.00  0.00    +0.180 C 
ATOM     32  C   UNL     1       8.326   3.404  24.305  0.00  0.00    +0.214 C 
BRANCH  29  33
ATOM     33  C   UNL     1       4.723   2.402  26.511  0.00  0.00    +0.337 C 
ATOM     34  O   UNL     1       4.746   2.533  27.726  0.00  0.00    -0.248 OA
BRANCH  33  35
ATOM     35  O   UNL     1       3.766   1.686  25.870  0.00  0.00    -0.479 OA
ATOM     36  H   UNL     1       3.122   2.292  25.435  0.00  0.00    +0.295 HD
ENDBRANCH  33  35
ENDBRANCH  29  33
BRANCH  30  37
ATOM     37  O   UNL     1       7.570   3.085  27.175  0.00  0.00    -0.386 OA
ATOM     38  H   UNL     1       7.029   2.361  27.537  0.00  0.00    +0.210 HD
ENDBRANCH  30  37
BRANCH  31  39
ATOM     39  O   UNL     1       8.803   5.197  25.932  0.00  0.00    -0.386 OA
ATOM     40  H   UNL     1       9.333   4.523  26.404  0.00  0.00    +0.210 HD
ENDBRANCH  31  39
BRANCH  32  41
ATOM     41  O   UNL     1       9.242   3.952  23.359  0.00  0.00    -0.383 OA
ATOM     42  H   UNL     1       8.930   4.824  23.071  0.00  0.00    +0.210 HD
ENDBRANCH  32  41
ENDBRANCH  26  27
ENDBRANCH   4  26
TORSDOF 12
ENDMDL
MODEL 7
REMARK VINA RESULT:      -7.5      1.589      9.307
REMARK  Name = 
REMARK  12 active torsions:
REMARK  status: ('A' for Active; 'I' for Inactive)
REMARK    1  A    between atoms: C_3  and  O_34
REMARK    2  A    between atoms: C_4  and  O_21
REMARK    3  A    between atoms: C_6  and  C_7
REMARK    4  A    between atoms: C_8  and  O_20
REMARK    5  A    between atoms: C_12  and  O_19
REMARK    6  A    between atoms: C_14  and  O_18
REMARK    7  A    between atoms: O_21  and  C_22
REMARK    8  A    between atoms: C_23  and  O_33
REMARK    9  A    between atoms: C_24  and  O_32
REMARK   10  A    between atoms: C_25  and  O_31
REMARK   11  A    between atoms: C_26  and  C_28
REMARK   12  A    between atoms: C_28  and  O_30
REMARK                            x       y       z     vdW  Elec       q    Type
REMARK                         _______ _______ _______ _____ _____    ______ ____
ROOT
ATOM      1  C   UNL     1       8.929  -1.996  23.023  0.00  0.00    +0.011 A 
ATOM      2  C   UNL     1       7.637  -1.860  23.553  0.00  0.00    -0.001 A 
ATOM      3  C   UNL     1       6.932  -0.653  23.345  0.00  0.00    +0.057 A 
ATOM      4  C   UNL     1       7.494   0.382  22.610  0.00  0.00    +0.166 A 
ATOM      5  C   UNL     1       8.775   0.215  22.070  0.00  0.00    +0.159 A 
ATOM      6  C   UNL     1       9.499  -0.958  22.281  0.00  0.00    +0.049 A 
ENDROOT
BRANCH   2   7
ATOM      7  C   UNL     1       6.979  -2.943  24.395  0.00  0.00    +0.240 C 
ATOM      8  O   UNL     1       6.424  -3.986  23.566  0.00  0.00    -0.480 OA
ATOM      9  C   UNL     1       5.851  -5.009  24.286  0.00  0.00    +0.139 A 
ATOM     10  C   UNL     1       6.141  -5.269  25.629  0.00  0.00    +0.103 A 
ATOM     11  C   UNL     1       5.489  -6.305  26.310  0.00  0.00    +0.134 A 
ATOM     12  C   UNL     1       4.574  -7.116  25.645  0.00  0.00    +0.091 A 
ATOM     13  C   UNL     1       4.316  -6.873  24.295  0.00  0.00    +0.124 A 
ATOM     14  C   UNL     1       7.140  -4.431  26.301  0.00  0.00    +0.202 C 
ATOM     15  O   UNL     1       7.253  -4.456  27.526  0.00  0.00    -0.289 OA
ATOM     16  C   UNL     1       4.946  -5.832  23.617  0.00  0.00    +0.092 A 
ATOM     17  C   UNL     1       7.969  -3.533  25.407  0.00  0.00    +0.230 C 
BRANCH  11  18
ATOM     18  O   UNL     1       5.705  -6.578  27.633  0.00  0.00    -0.506 OA
ATOM     19  H   UNL     1       6.428  -5.998  27.961  0.00  0.00    +0.292 HD
ENDBRANCH  11  18
BRANCH  13  20
ATOM     20  O   UNL     1       3.437  -7.646  23.601  0.00  0.00    -0.507 OA
ATOM     21  H   UNL     1       2.824  -7.067  23.112  0.00  0.00    +0.292 HD
ENDBRANCH  13  20
BRANCH  17  22
ATOM     22  O   UNL     1       8.615  -2.533  26.195  0.00  0.00    -0.380 OA
ATOM     23  H   UNL     1       8.041  -1.744  26.203  0.00  0.00    +0.211 HD
ENDBRANCH  17  22
ENDBRANCH   2   7
BRANCH   5  24
ATOM     24  O   UNL     1       9.317   1.231  21.324  0.00  0.00    -0.503 OA
ATOM     25  H   UNL     1       8.873   1.261  20.462  0.00  0.00    +0.292 HD
ENDBRANCH   5  24
BRANCH   4  26
ATOM     26  O   UNL     1       6.841   1.523  22.276  0.00  0.00    -0.457 OA
BRANCH  26  27
ATOM     27  C   UNL     1       6.767   2.653  23.137  0.00  0.00    +0.340 C 
ATOM     28  O   UNL     1       7.718   3.696  22.816  0.00  0.00    -0.322 OA
ATOM     29  C   UNL     1       7.979   4.499  23.989  0.00  0.00    +0.261 C 
ATOM     30  C   UNL     1       6.697   5.179  24.499  0.00  0.00    +0.185 C 
ATOM     31  C   UNL     1       5.590   4.128  24.719  0.00  0.00    +0.180 C 
ATOM     32  C   UNL     1       5.380   3.274  23.440  0.00  0.00    +0.214 C 
BRANCH  29  33
ATOM     33  C   UNL     1       9.094   5.506  23.712  0.00  0.00    +0.337 C 
ATOM     34  O   UNL     1      10.095   5.647  24.398  0.00  0.00    -0.248 OA
BRANCH  33  35
ATOM     35  O   UNL     1       8.891   6.196  22.562  0.00  0.00    -0.479 OA
ATOM     36  H   UNL     1       8.001   6.617  22.570  0.00  0.00    +0.295 HD
ENDBRANCH  33  35
ENDBRANCH  29  33
BRANCH  30  37
ATOM     37  O   UNL     1       6.165   6.151  23.582  0.00  0.00    -0.386 OA
ATOM     38  H   UNL     1       6.531   7.030  23.784  0.00  0.00    +0.210 HD
ENDBRANCH  30  37
BRANCH  31  39
ATOM     39  O   UNL     1       4.380   4.763  25.136  0.00  0.00    -0.386 OA
ATOM     40  H   UNL     1       4.353   5.633  24.689  0.00  0.00    +0.210 HD
ENDBRANCH  31  39
BRANCH  32  41
ATOM     41  O   UNL     1       4.353   2.300  23.621  0.00  0.00    -0.383 OA
ATOM     42  H   UNL     1       3.494   2.743  23.704  0.00  0.00    +0.210 HD
ENDBRANCH  32  41
ENDBRANCH  26  27
ENDBRANCH   4  26
TORSDOF 12
ENDMDL
MODEL 8
REMARK VINA RESULT:      -7.4      1.069      2.387
REMARK  Name = 
REMARK  12 active torsions:
REMARK  status: ('A' for Active; 'I' for Inactive)
REMARK    1  A    between atoms: C_3  and  O_34
REMARK    2  A    between atoms: C_4  and  O_21
REMARK    3  A    between atoms: C_6  and  C_7
REMARK    4  A    between atoms: C_8  and  O_20
REMARK    5  A    between atoms: C_12  and  O_19
REMARK    6  A    between atoms: C_14  and  O_18
REMARK    7  A    between atoms: O_21  and  C_22
REMARK    8  A    between atoms: C_23  and  O_33
REMARK    9  A    between atoms: C_24  and  O_32
REMARK   10  A    between atoms: C_25  and  O_31
REMARK   11  A    between atoms: C_26  and  C_28
REMARK   12  A    between atoms: C_28  and  O_30
REMARK                            x       y       z     vdW  Elec       q    Type
REMARK                         _______ _______ _______ _____ _____    ______ ____
ROOT
ATOM      1  C   UNL     1       9.971  -1.721  23.399  0.00  0.00    +0.011 A 
ATOM      2  C   UNL     1       9.013  -0.889  23.998  0.00  0.00    -0.001 A 
ATOM      3  C   UNL     1       8.166  -1.424  24.995  0.00  0.00    +0.057 A 
ATOM      4  C   UNL     1       8.286  -2.747  25.397  0.00  0.00    +0.166 A 
ATOM      5  C   UNL     1       9.266  -3.551  24.803  0.00  0.00    +0.159 A 
ATOM      6  C   UNL     1      10.098  -3.053  23.801  0.00  0.00    +0.049 A 
ENDROOT
BRANCH   2   7
ATOM      7  C   UNL     1       8.808   0.559  23.578  0.00  0.00    +0.240 C 
ATOM      8  O   UNL     1       7.410   0.918  23.602  0.00  0.00    -0.480 OA
ATOM      9  C   UNL     1       7.178   2.232  23.266  0.00  0.00    +0.139 A 
ATOM     10  C   UNL     1       8.154   3.232  23.328  0.00  0.00    +0.103 A 
ATOM     11  C   UNL     1       7.855   4.542  22.933  0.00  0.00    +0.134 A 
ATOM     12  C   UNL     1       6.570   4.874  22.514  0.00  0.00    +0.091 A 
ATOM     13  C   UNL     1       5.593   3.879  22.488  0.00  0.00    +0.124 A 
ATOM     14  C   UNL     1       9.490   2.872  23.814  0.00  0.00    +0.202 C 
ATOM     15  O   UNL     1      10.438   3.642  23.659  0.00  0.00    -0.289 OA
ATOM     16  C   UNL     1       5.888   2.569  22.861  0.00  0.00    +0.092 A 
ATOM     17  C   UNL     1       9.621   1.511  24.464  0.00  0.00    +0.230 C 
BRANCH  11  18
ATOM     18  O   UNL     1       8.781   5.550  22.935  0.00  0.00    -0.506 OA
ATOM     19  H   UNL     1       8.358   6.368  22.591  0.00  0.00    +0.292 HD
ENDBRANCH  11  18
BRANCH  13  20
ATOM     20  O   UNL     1       4.320   4.158  22.096  0.00  0.00    -0.507 OA
ATOM     21  H   UNL     1       3.701   3.835  22.776  0.00  0.00    +0.292 HD
ENDBRANCH  13  20
BRANCH  17  22
ATOM     22  O   UNL     1      10.999   1.148  24.547  0.00  0.00    -0.380 OA
ATOM     23  H   UNL     1      11.256   1.168  25.487  0.00  0.00    +0.211 HD
ENDBRANCH  17  22
ENDBRANCH   2   7
BRANCH   5  24
ATOM     24  O   UNL     1       9.398  -4.852  25.220  0.00  0.00    -0.503 OA
ATOM     25  H   UNL     1       8.690  -5.054  25.852  0.00  0.00    +0.292 HD
ENDBRANCH   5  24
BRANCH   4  26
ATOM     26  O   UNL     1       7.587  -3.300  26.419  0.00  0.00    -0.457 OA
BRANCH  26  27
ATOM     27  C   UNL     1       6.435  -4.112  26.219  0.00  0.00    +0.340 C 
ATOM     28  O   UNL     1       6.052  -4.253  24.830  0.00  0.00    -0.322 OA
ATOM     29  C   UNL     1       4.646  -4.574  24.740  0.00  0.00    +0.261 C 
ATOM     30  C   UNL     1       4.329  -5.903  25.447  0.00  0.00    +0.185 C 
ATOM     31  C   UNL     1       4.851  -5.870  26.898  0.00  0.00    +0.180 C 
ATOM     32  C   UNL     1       6.354  -5.485  26.934  0.00  0.00    +0.214 C 
BRANCH  29  33
ATOM     33  C   UNL     1       4.189  -4.575  23.282  0.00  0.00    +0.337 C 
ATOM     34  O   UNL     1       3.333  -5.313  22.818  0.00  0.00    -0.248 OA
BRANCH  33  35
ATOM     35  O   UNL     1       4.790  -3.602  22.553  0.00  0.00    -0.479 OA
ATOM     36  H   UNL     1       5.744  -3.540  22.789  0.00  0.00    +0.295 HD
ENDBRANCH  33  35
ENDBRANCH  29  33
BRANCH  30  37
ATOM     37  O   UNL     1       4.940  -7.043  24.817  0.00  0.00    -0.386 OA
ATOM     38  H   UNL     1       4.842  -6.977  23.850  0.00  0.00    +0.210 HD
ENDBRANCH  30  37
BRANCH  31  39
ATOM     39  O   UNL     1       4.611  -7.124  27.539  0.00  0.00    -0.386 OA
ATOM     40  H   UNL     1       5.285  -7.746  27.198  0.00  0.00    +0.210 HD
ENDBRANCH  31  39
BRANCH  32  41
ATOM     41  O   UNL     1       6.858  -5.456  28.269  0.00  0.00    -0.383 OA
ATOM     42  H   UNL     1       6.801  -4.553  28.619  0.00  0.00    +0.210 HD
ENDBRANCH  32  41
ENDBRANCH  26  27
ENDBRANCH   4  26
TORSDOF 12
ENDMDL
MODEL 9
REMARK VINA RESULT:      -7.3      2.126      9.159
REMARK  Name = 
REMARK  12 active torsions:
REMARK  status: ('A' for Active; 'I' for Inactive)
REMARK    1  A    between atoms: C_3  and  O_34
REMARK    2  A    between atoms: C_4  and  O_21
REMARK    3  A    between atoms: C_6  and  C_7
REMARK    4  A    between atoms: C_8  and  O_20
REMARK    5  A    between atoms: C_12  and  O_19
REMARK    6  A    between atoms: C_14  and  O_18
REMARK    7  A    between atoms: O_21  and  C_22
REMARK    8  A    between atoms: C_23  and  O_33
REMARK    9  A    between atoms: C_24  and  O_32
REMARK   10  A    between atoms: C_25  and  O_31
REMARK   11  A    between atoms: C_26  and  C_28
REMARK   12  A    between atoms: C_28  and  O_30
REMARK                            x       y       z     vdW  Elec       q    Type
REMARK                         _______ _______ _______ _____ _____    ______ ____
ROOT
ATOM      1  C   UNL     1       7.627  -3.361  22.661  0.00  0.00    +0.011 A 
ATOM      2  C   UNL     1       7.591  -2.972  24.009  0.00  0.00    -0.001 A 
ATOM      3  C   UNL     1       8.257  -1.789  24.401  0.00  0.00    +0.057 A 
ATOM      4  C   UNL     1       8.923  -1.005  23.468  0.00  0.00    +0.166 A 
ATOM      5  C   UNL     1       8.925  -1.400  22.125  0.00  0.00    +0.159 A 
ATOM      6  C   UNL     1       8.294  -2.575  21.718  0.00  0.00    +0.049 A 
ENDROOT
BRANCH   2   7
ATOM      7  C   UNL     1       6.908  -3.804  25.084  0.00  0.00    +0.240 C 
ATOM      8  O   UNL     1       5.610  -4.260  24.648  0.00  0.00    -0.480 OA
ATOM      9  C   UNL     1       4.968  -5.050  25.574  0.00  0.00    +0.139 A 
ATOM     10  C   UNL     1       5.627  -5.717  26.612  0.00  0.00    +0.103 A 
ATOM     11  C   UNL     1       4.903  -6.474  27.543  0.00  0.00    +0.134 A 
ATOM     12  C   UNL     1       3.522  -6.605  27.420  0.00  0.00    +0.091 A 
ATOM     13  C   UNL     1       2.877  -5.965  26.361  0.00  0.00    +0.124 A 
ATOM     14  C   UNL     1       7.086  -5.602  26.700  0.00  0.00    +0.202 C 
ATOM     15  O   UNL     1       7.680  -5.959  27.717  0.00  0.00    -0.289 OA
ATOM     16  C   UNL     1       3.589  -5.195  25.444  0.00  0.00    +0.092 A 
ATOM     17  C   UNL     1       7.781  -4.994  25.500  0.00  0.00    +0.230 C 
BRANCH  11  18
ATOM     18  O   UNL     1       5.490  -7.114  28.600  0.00  0.00    -0.506 OA
ATOM     19  H   UNL     1       4.862  -7.783  28.952  0.00  0.00    +0.292 HD
ENDBRANCH  11  18
BRANCH  13  20
ATOM     20  O   UNL     1       1.531  -6.074  26.194  0.00  0.00    -0.507 OA
ATOM     21  H   UNL     1       1.351  -6.457  25.316  0.00  0.00    +0.292 HD
ENDBRANCH  13  20
BRANCH  17  22
ATOM     22  O   UNL     1       9.108  -4.607  25.857  0.00  0.00    -0.380 OA
ATOM     23  H   UNL     1       9.345  -5.081  26.677  0.00  0.00    +0.211 HD
ENDBRANCH  17  22
ENDBRANCH   2   7
BRANCH   5  24
ATOM     24  O   UNL     1       9.563  -0.610  21.203  0.00  0.00    -0.503 OA
ATOM     25  H   UNL     1      10.182  -1.155  20.694  0.00  0.00    +0.292 HD
ENDBRANCH   5  24
BRANCH   4  26
ATOM     26  O   UNL     1       9.490   0.195  23.747  0.00  0.00    -0.457 OA
BRANCH  26  27
ATOM     27  C   UNL     1       8.739   1.397  23.868  0.00  0.00    +0.340 C 
ATOM     28  O   UNL     1       8.627   1.883  25.226  0.00  0.00    -0.322 OA
ATOM     29  C   UNL     1       7.451   2.715  25.354  0.00  0.00    +0.261 C 
ATOM     30  C   UNL     1       7.529   3.940  24.427  0.00  0.00    +0.185 C 
ATOM     31  C   UNL     1       7.800   3.491  22.976  0.00  0.00    +0.180 C 
ATOM     32  C   UNL     1       9.049   2.573  22.907  0.00  0.00    +0.214 C 
BRANCH  29  33
ATOM     33  C   UNL     1       7.230   3.110  26.812  0.00  0.00    +0.337 C 
ATOM     34  O   UNL     1       6.893   4.222  27.192  0.00  0.00    -0.248 OA
BRANCH  33  35
ATOM     35  O   UNL     1       7.379   2.061  27.659  0.00  0.00    -0.479 OA
ATOM     36  H   UNL     1       7.160   2.333  28.580  0.00  0.00    +0.295 HD
ENDBRANCH  33  35
ENDBRANCH  29  33
BRANCH  30  37
ATOM     37  O   UNL     1       8.584   4.853  24.777  0.00  0.00    -0.386 OA
ATOM     38  H   UNL     1       9.380   4.355  25.032  0.00  0.00    +0.210 HD
ENDBRANCH  30  37
BRANCH  31  39
ATOM     39  O   UNL     1       7.931   4.629  22.123  0.00  0.00    -0.386 OA
ATOM     40  H   UNL     1       7.594   4.360  21.244  0.00  0.00    +0.210 HD
ENDBRANCH  31  39
BRANCH  32  41
ATOM     41  O   UNL     1       9.320   2.153  21.571  0.00  0.00    -0.383 OA
ATOM     42  H   UNL     1       9.884   1.364  21.586  0.00  0.00    +0.210 HD
ENDBRANCH  32  41
ENDBRANCH  26  27
ENDBRANCH   4  26
TORSDOF 12
ENDMDL
