MODEL 1
REMARK VINA RESULT:      -7.1      0.000      0.000
REMARK  Name = 
REMARK  22 active torsions:
REMARK  status: ('A' for Active; 'I' for Inactive)
REMARK    1  A    between atoms: C_1  and  C_2
REMARK    2  A    between atoms: C_3  and  O_62
REMARK    3  A    between atoms: C_5  and  O_61
REMARK    4  A    between atoms: C_6  and  O_60
REMARK    5  A    between atoms: C_8  and  O_11
REMARK    6  A    between atoms: O_11  and  C_12
REMARK    7  A    between atoms: C_14  and  C_59
REMARK    8  A    between atoms: C_16  and  O_23
REMARK    9  A    between atoms: C_18  and  O_22
REMARK   10  A    between atoms: C_20  and  O_21
REMARK   11  A    between atoms: O_23  and  C_24
REMARK   12  A    between atoms: C_25  and  C_51
REMARK   13  A    between atoms: C_29  and  O_36
REMARK   14  A    between atoms: C_31  and  O_35
REMARK   15  A    between atoms: O_36  and  C_37
REMARK   16  A    between atoms: C_39  and  O_50
REMARK   17  A    between atoms: C_40  and  O_49
REMARK   18  A    between atoms: C_42  and  O_48
REMARK   19  A    between atoms: C_44  and  C_46
REMARK   20  A    between atoms: C_46  and  O_47
REMARK   21  A    between atoms: C_53  and  O_58
REMARK   22  A    between atoms: C_54  and  O_57
REMARK                            x       y       z     vdW  Elec       q    Type
REMARK                         _______ _______ _______ _____ _____    ______ ____
ROOT
ATOM      1  C   UNL     1       7.735  -2.526  25.536  0.00  0.00    +0.214 A 
ATOM      2  C   UNL     1       7.342  -3.816  26.253  0.00  0.00    +0.238 A 
ATOM      3  O   UNL     1       7.741  -4.065  27.380  0.00  0.00    -0.283 OA
ATOM      4  C   UNL     1       6.478  -4.767  25.497  0.00  0.00    +0.109 A 
ATOM      5  C   UNL     1       6.230  -4.452  24.180  0.00  0.00    +0.147 A 
ATOM      6  C   UNL     1       5.294  -5.124  23.400  0.00  0.00    +0.093 A 
ATOM      7  C   UNL     1       4.611  -6.211  23.911  0.00  0.00    +0.131 A 
ATOM      8  C   UNL     1       4.967  -6.662  25.189  0.00  0.00    +0.092 A 
ATOM      9  O   UNL     1       6.924  -3.512  23.507  0.00  0.00    -0.451 OA
ATOM     10  C   UNL     1       5.883  -5.934  25.986  0.00  0.00    +0.135 A 
ATOM     11  C   UNL     1       7.605  -2.527  24.188  0.00  0.00    +0.181 A 
ENDROOT
BRANCH  11  12
ATOM     12  C   UNL     1       8.042  -1.534  23.158  0.00  0.00    +0.025 A 
ATOM     13  C   UNL     1       9.320  -1.494  22.595  0.00  0.00    +0.015 A 
ATOM     14  C   UNL     1       9.753  -0.346  21.909  0.00  0.00    +0.050 A 
ATOM     15  C   UNL     1       8.913   0.757  21.786  0.00  0.00    +0.158 A 
ATOM     16  C   UNL     1       7.610   0.702  22.253  0.00  0.00    +0.159 A 
ATOM     17  C   UNL     1       7.167  -0.436  22.906  0.00  0.00    +0.060 A 
BRANCH  16  18
ATOM     18  O   UNL     1       6.821   1.808  22.098  0.00  0.00    -0.503 OA
ATOM     19  H   UNL     1       6.337   1.960  22.928  0.00  0.00    +0.292 HD
ENDBRANCH  16  18
BRANCH  15  20
ATOM     20  O   UNL     1       9.384   1.915  21.235  0.00  0.00    -0.503 OA
ATOM     21  H   UNL     1       9.332   2.569  21.964  0.00  0.00    +0.292 HD
ENDBRANCH  15  20
ENDBRANCH  11  12
BRANCH  10  22
ATOM     22  O   UNL     1       6.186  -6.393  27.235  0.00  0.00    -0.506 OA
ATOM     23  H   UNL     1       6.030  -7.349  27.295  0.00  0.00    +0.292 HD
ENDBRANCH  10  22
BRANCH   7  24
ATOM     24  O   UNL     1       3.620  -6.880  23.242  0.00  0.00    -0.461 OA
BRANCH  24  25
ATOM     25  C   UNL     1       2.355  -6.193  23.087  0.00  0.00    +0.339 C 
ATOM     26  O   UNL     1       1.972  -5.382  24.203  0.00  0.00    -0.331 OA
ATOM     27  C   UNL     1       1.664  -6.115  25.398  0.00  0.00    +0.179 C 
ATOM     28  C   UNL     1       0.573  -7.182  25.167  0.00  0.00    +0.177 C 
ATOM     29  C   UNL     1       0.861  -8.054  23.946  0.00  0.00    +0.180 C 
ATOM     30  C   UNL     1       1.232  -7.192  22.744  0.00  0.00    +0.214 C 
BRANCH  30  31
ATOM     31  O   UNL     1       1.579  -8.038  21.641  0.00  0.00    -0.383 OA
ATOM     32  H   UNL     1       2.491  -8.352  21.793  0.00  0.00    +0.210 HD
ENDBRANCH  30  31
BRANCH  29  33
ATOM     33  O   UNL     1       1.910  -8.981  24.267  0.00  0.00    -0.386 OA
ATOM     34  H   UNL     1       2.243  -9.301  23.407  0.00  0.00    +0.210 HD
ENDBRANCH  29  33
BRANCH  28  35
ATOM     35  O   UNL     1       0.443  -8.017  26.326  0.00  0.00    -0.386 OA
ATOM     36  H   UNL     1       0.660  -7.430  27.085  0.00  0.00    +0.210 HD
ENDBRANCH  28  35
BRANCH  27  37
ATOM     37  C   UNL     1       1.160  -5.106  26.455  0.00  0.00    +0.190 C 
BRANCH  37  38
ATOM     38  O   UNL     1       1.361  -5.554  27.791  0.00  0.00    -0.392 OA
ATOM     39  H   UNL     1       1.755  -4.810  28.295  0.00  0.00    +0.210 HD
ENDBRANCH  37  38
ENDBRANCH  27  37
ENDBRANCH  24  25
ENDBRANCH   7  24
BRANCH   1  40
ATOM     40  O   UNL     1       8.268  -1.440  26.203  0.00  0.00    -0.453 OA
BRANCH  40  44
ATOM     41  C   UNL     1       6.119   2.257  26.346  0.00  0.00    +0.181 C 
ATOM     42  C   UNL     1       7.476   2.155  27.094  0.00  0.00    +0.180 C 
ATOM     43  C   UNL     1       8.278   0.931  26.593  0.00  0.00    +0.214 C 
ATOM     44  C   UNL     1       7.425  -0.367  26.678  0.00  0.00    +0.339 C 
ATOM     45  O   UNL     1       6.206  -0.170  25.920  0.00  0.00    -0.334 OA
ATOM     46  C   UNL     1       5.415   0.879  26.522  0.00  0.00    +0.151 C 
ATOM     47  C   UNL     1       3.972   0.806  26.025  0.00  0.00    +0.041 C 
BRANCH  43  48
ATOM     48  O   UNL     1       8.726   1.158  25.239  0.00  0.00    -0.383 OA
ATOM     49  H   UNL     1       9.590   0.702  25.153  0.00  0.00    +0.210 HD
ENDBRANCH  43  48
BRANCH  42  50
ATOM     50  O   UNL     1       7.260   2.046  28.505  0.00  0.00    -0.386 OA
ATOM     51  H   UNL     1       8.033   2.439  28.951  0.00  0.00    +0.210 HD
ENDBRANCH  42  50
BRANCH  41  52
ATOM     52  O   UNL     1       6.463   2.635  25.005  0.00  0.00    -0.340 OA
BRANCH  52  56
ATOM     53  C   UNL     1       4.691   6.349  24.182  0.00  0.00    +0.041 C 
ATOM     54  C   UNL     1       5.492   5.577  23.129  0.00  0.00    +0.149 C 
ATOM     55  O   UNL     1       5.687   4.203  23.502  0.00  0.00    -0.343 OA
ATOM     56  C   UNL     1       6.514   4.012  24.659  0.00  0.00    +0.282 C 
ATOM     57  C   UNL     1       7.936   4.575  24.417  0.00  0.00    +0.201 C 
ATOM     58  C   UNL     1       7.838   6.044  23.973  0.00  0.00    +0.179 C 
ATOM     59  C   UNL     1       6.848   6.222  22.812  0.00  0.00    +0.174 C 
BRANCH  59  60
ATOM     60  O   UNL     1       7.422   5.602  21.646  0.00  0.00    -0.387 OA
ATOM     61  H   UNL     1       7.784   6.334  21.096  0.00  0.00    +0.210 HD
ENDBRANCH  59  60
BRANCH  58  62
ATOM     62  O   UNL     1       9.141   6.494  23.570  0.00  0.00    -0.386 OA
ATOM     63  H   UNL     1       9.672   6.530  24.396  0.00  0.00    +0.210 HD
ENDBRANCH  58  62
BRANCH  57  64
ATOM     64  O   UNL     1       8.647   3.826  23.414  0.00  0.00    -0.384 OA
ATOM     65  H   UNL     1       7.960   3.491  22.801  0.00  0.00    +0.210 HD
ENDBRANCH  57  64
ENDBRANCH  52  56
ENDBRANCH  41  52
ENDBRANCH  40  44
ENDBRANCH   1  40
TORSDOF 20
ENDMDL
MODEL 2
REMARK VINA RESULT:      -6.7      2.103     10.275
REMARK  Name = 
REMARK  22 active torsions:
REMARK  status: ('A' for Active; 'I' for Inactive)
REMARK    1  A    between atoms: C_1  and  C_2
REMARK    2  A    between atoms: C_3  and  O_62
REMARK    3  A    between atoms: C_5  and  O_61
REMARK    4  A    between atoms: C_6  and  O_60
REMARK    5  A    between atoms: C_8  and  O_11
REMARK    6  A    between atoms: O_11  and  C_12
REMARK    7  A    between atoms: C_14  and  C_59
REMARK    8  A    between atoms: C_16  and  O_23
REMARK    9  A    between atoms: C_18  and  O_22
REMARK   10  A    between atoms: C_20  and  O_21
REMARK   11  A    between atoms: O_23  and  C_24
REMARK   12  A    between atoms: C_25  and  C_51
REMARK   13  A    between atoms: C_29  and  O_36
REMARK   14  A    between atoms: C_31  and  O_35
REMARK   15  A    between atoms: O_36  and  C_37
REMARK   16  A    between atoms: C_39  and  O_50
REMARK   17  A    between atoms: C_40  and  O_49
REMARK   18  A    between atoms: C_42  and  O_48
REMARK   19  A    between atoms: C_44  and  C_46
REMARK   20  A    between atoms: C_46  and  O_47
REMARK   21  A    between atoms: C_53  and  O_58
REMARK   22  A    between atoms: C_54  and  O_57
REMARK                            x       y       z     vdW  Elec       q    Type
REMARK                         _______ _______ _______ _____ _____    ______ ____
ROOT
ATOM      1  C   UNL     1       8.606  -0.521  26.008  0.00  0.00    +0.214 A 
ATOM      2  C   UNL     1       9.580   0.351  25.220  0.00  0.00    +0.238 A 
ATOM      3  O   UNL     1      10.754   0.040  25.092  0.00  0.00    -0.283 OA
ATOM      4  C   UNL     1       9.034   1.614  24.645  0.00  0.00    +0.109 A 
ATOM      5  C   UNL     1       7.742   1.935  24.994  0.00  0.00    +0.147 A 
ATOM      6  C   UNL     1       7.026   2.967  24.394  0.00  0.00    +0.093 A 
ATOM      7  C   UNL     1       7.627   3.776  23.449  0.00  0.00    +0.131 A 
ATOM      8  C   UNL     1       8.992   3.583  23.200  0.00  0.00    +0.092 A 
ATOM      9  O   UNL     1       7.081   1.328  26.000  0.00  0.00    -0.451 OA
ATOM     10  C   UNL     1       9.689   2.496  23.780  0.00  0.00    +0.135 A 
ATOM     11  C   UNL     1       7.475   0.085  26.443  0.00  0.00    +0.181 A 
ENDROOT
BRANCH  11  12
ATOM     12  C   UNL     1       6.399  -0.389  27.367  0.00  0.00    +0.025 A 
ATOM     13  C   UNL     1       5.508  -1.424  27.074  0.00  0.00    +0.015 A 
ATOM     14  C   UNL     1       4.331  -1.577  27.828  0.00  0.00    +0.050 A 
ATOM     15  C   UNL     1       4.046  -0.700  28.869  0.00  0.00    +0.158 A 
ATOM     16  C   UNL     1       4.960   0.273  29.238  0.00  0.00    +0.159 A 
ATOM     17  C   UNL     1       6.135   0.413  28.517  0.00  0.00    +0.060 A 
BRANCH  16  18
ATOM     18  O   UNL     1       4.638   1.103  30.275  0.00  0.00    -0.503 OA
ATOM     19  H   UNL     1       5.085   1.956  30.138  0.00  0.00    +0.292 HD
ENDBRANCH  16  18
BRANCH  15  20
ATOM     20  O   UNL     1       2.842  -0.772  29.510  0.00  0.00    -0.503 OA
ATOM     21  H   UNL     1       2.211  -0.346  28.892  0.00  0.00    +0.292 HD
ENDBRANCH  15  20
ENDBRANCH  11  12
BRANCH  10  22
ATOM     22  O   UNL     1      11.013   2.329  23.494  0.00  0.00    -0.506 OA
ATOM     23  H   UNL     1      11.188   2.525  22.560  0.00  0.00    +0.292 HD
ENDBRANCH  10  22
BRANCH   7  24
ATOM     24  O   UNL     1       6.975   4.761  22.754  0.00  0.00    -0.461 OA
BRANCH  24  25
ATOM     25  C   UNL     1       7.106   6.113  23.255  0.00  0.00    +0.339 C 
ATOM     26  O   UNL     1       6.680   6.293  24.611  0.00  0.00    -0.331 OA
ATOM     27  C   UNL     1       5.270   6.130  24.823  0.00  0.00    +0.179 C 
ATOM     28  C   UNL     1       4.430   7.052  23.915  0.00  0.00    +0.177 C 
ATOM     29  C   UNL     1       4.862   6.981  22.452  0.00  0.00    +0.180 C 
ATOM     30  C   UNL     1       6.376   7.108  22.331  0.00  0.00    +0.214 C 
BRANCH  30  31
ATOM     31  O   UNL     1       6.759   6.952  20.959  0.00  0.00    -0.383 OA
ATOM     32  H   UNL     1       7.103   6.044  20.857  0.00  0.00    +0.210 HD
ENDBRANCH  30  31
BRANCH  29  33
ATOM     33  O   UNL     1       4.395   5.748  21.884  0.00  0.00    -0.386 OA
ATOM     34  H   UNL     1       5.081   5.483  21.241  0.00  0.00    +0.210 HD
ENDBRANCH  29  33
BRANCH  28  35
ATOM     35  O   UNL     1       3.040   6.714  24.017  0.00  0.00    -0.386 OA
ATOM     36  H   UNL     1       2.995   6.039  24.730  0.00  0.00    +0.210 HD
ENDBRANCH  28  35
BRANCH  27  37
ATOM     37  C   UNL     1       4.971   6.474  26.299  0.00  0.00    +0.190 C 
BRANCH  37  38
ATOM     38  O   UNL     1       3.650   6.124  26.696  0.00  0.00    -0.392 OA
ATOM     39  H   UNL     1       3.049   6.356  25.956  0.00  0.00    +0.210 HD
ENDBRANCH  37  38
ENDBRANCH  27  37
ENDBRANCH  24  25
ENDBRANCH   7  24
BRANCH   1  40
ATOM     40  O   UNL     1       8.885  -1.835  26.334  0.00  0.00    -0.453 OA
BRANCH  40  44
ATOM     41  C   UNL     1       7.071  -5.227  24.461  0.00  0.00    +0.181 C 
ATOM     42  C   UNL     1       8.339  -5.446  25.330  0.00  0.00    +0.180 C 
ATOM     43  C   UNL     1       8.591  -4.218  26.236  0.00  0.00    +0.214 C 
ATOM     44  C   UNL     1       8.632  -2.907  25.399  0.00  0.00    +0.339 C 
ATOM     45  O   UNL     1       7.391  -2.791  24.661  0.00  0.00    -0.334 OA
ATOM     46  C   UNL     1       7.277  -3.876  23.714  0.00  0.00    +0.151 C 
ATOM     47  C   UNL     1       6.231  -3.544  22.651  0.00  0.00    +0.041 C 
BRANCH  43  48
ATOM     48  O   UNL     1       7.571  -4.141  27.254  0.00  0.00    -0.383 OA
ATOM     49  H   UNL     1       7.991  -3.728  28.038  0.00  0.00    +0.210 HD
ENDBRANCH  43  48
BRANCH  42  50
ATOM     50  O   UNL     1       9.481  -5.673  24.496  0.00  0.00    -0.386 OA
ATOM     51  H   UNL     1       9.650  -4.851  24.000  0.00  0.00    +0.210 HD
ENDBRANCH  42  50
BRANCH  41  52
ATOM     52  O   UNL     1       5.974  -5.289  25.385  0.00  0.00    -0.340 OA
BRANCH  52  56
ATOM     53  C   UNL     1       2.260  -4.919  23.466  0.00  0.00    +0.041 C 
ATOM     54  C   UNL     1       2.378  -5.206  24.965  0.00  0.00    +0.149 C 
ATOM     55  O   UNL     1       3.697  -4.931  25.465  0.00  0.00    -0.343 OA
ATOM     56  C   UNL     1       4.720  -5.794  24.948  0.00  0.00    +0.282 C 
ATOM     57  C   UNL     1       4.439  -7.269  25.326  0.00  0.00    +0.201 C 
ATOM     58  C   UNL     1       3.024  -7.656  24.866  0.00  0.00    +0.179 C 
ATOM     59  C   UNL     1       1.974  -6.639  25.338  0.00  0.00    +0.174 C 
BRANCH  59  60
ATOM     60  O   UNL     1       1.858  -6.758  26.768  0.00  0.00    -0.387 OA
ATOM     61  H   UNL     1       2.410  -7.531  27.025  0.00  0.00    +0.210 HD
ENDBRANCH  59  60
BRANCH  58  62
ATOM     62  O   UNL     1       2.707  -8.956  25.389  0.00  0.00    -0.386 OA
ATOM     63  H   UNL     1       3.189  -9.593  24.818  0.00  0.00    +0.210 HD
ENDBRANCH  58  62
BRANCH  57  64
ATOM     64  O   UNL     1       4.550  -7.490  26.745  0.00  0.00    -0.384 OA
ATOM     65  H   UNL     1       5.427  -7.905  26.878  0.00  0.00    +0.210 HD
ENDBRANCH  57  64
ENDBRANCH  52  56
ENDBRANCH  41  52
ENDBRANCH  40  44
ENDBRANCH   1  40
TORSDOF 20
ENDMDL
MODEL 3
REMARK VINA RESULT:      -6.6      2.646      8.799
REMARK  Name = 
REMARK  22 active torsions:
REMARK  status: ('A' for Active; 'I' for Inactive)
REMARK    1  A    between atoms: C_1  and  C_2
REMARK    2  A    between atoms: C_3  and  O_62
REMARK    3  A    between atoms: C_5  and  O_61
REMARK    4  A    between atoms: C_6  and  O_60
REMARK    5  A    between atoms: C_8  and  O_11
REMARK    6  A    between atoms: O_11  and  C_12
REMARK    7  A    between atoms: C_14  and  C_59
REMARK    8  A    between atoms: C_16  and  O_23
REMARK    9  A    between atoms: C_18  and  O_22
REMARK   10  A    between atoms: C_20  and  O_21
REMARK   11  A    between atoms: O_23  and  C_24
REMARK   12  A    between atoms: C_25  and  C_51
REMARK   13  A    between atoms: C_29  and  O_36
REMARK   14  A    between atoms: C_31  and  O_35
REMARK   15  A    between atoms: O_36  and  C_37
REMARK   16  A    between atoms: C_39  and  O_50
REMARK   17  A    between atoms: C_40  and  O_49
REMARK   18  A    between atoms: C_42  and  O_48
REMARK   19  A    between atoms: C_44  and  C_46
REMARK   20  A    between atoms: C_46  and  O_47
REMARK   21  A    between atoms: C_53  and  O_58
REMARK   22  A    between atoms: C_54  and  O_57
REMARK                            x       y       z     vdW  Elec       q    Type
REMARK                         _______ _______ _______ _____ _____    ______ ____
ROOT
ATOM      1  C   UNL     1       7.260  -0.897  26.357  0.00  0.00    +0.214 A 
ATOM      2  C   UNL     1       5.919  -1.096  27.058  0.00  0.00    +0.238 A 
ATOM      3  O   UNL     1       5.628  -2.157  27.588  0.00  0.00    -0.283 OA
ATOM      4  C   UNL     1       4.972   0.056  27.034  0.00  0.00    +0.109 A 
ATOM      5  C   UNL     1       5.346   1.137  26.268  0.00  0.00    +0.147 A 
ATOM      6  C   UNL     1       4.676   2.356  26.294  0.00  0.00    +0.093 A 
ATOM      7  C   UNL     1       3.535   2.509  27.058  0.00  0.00    +0.131 A 
ATOM      8  C   UNL     1       3.033   1.377  27.713  0.00  0.00    +0.092 A 
ATOM      9  O   UNL     1       6.349   1.087  25.368  0.00  0.00    -0.451 OA
ATOM     10  C   UNL     1       3.757   0.161  27.717  0.00  0.00    +0.135 A 
ATOM     11  C   UNL     1       7.325   0.120  25.465  0.00  0.00    +0.181 A 
ENDROOT
BRANCH  11  12
ATOM     12  C   UNL     1       8.389   0.502  24.485  0.00  0.00    +0.025 A 
ATOM     13  C   UNL     1       9.640   1.014  24.840  0.00  0.00    +0.015 A 
ATOM     14  C   UNL     1      10.435   1.662  23.879  0.00  0.00    +0.050 A 
ATOM     15  C   UNL     1       9.984   1.797  22.570  0.00  0.00    +0.158 A 
ATOM     16  C   UNL     1       8.792   1.214  22.174  0.00  0.00    +0.159 A 
ATOM     17  C   UNL     1       8.014   0.551  23.110  0.00  0.00    +0.060 A 
BRANCH  16  18
ATOM     18  O   UNL     1       8.397   1.366  20.874  0.00  0.00    -0.503 OA
ATOM     19  H   UNL     1       9.180   1.575  20.337  0.00  0.00    +0.292 HD
ENDBRANCH  16  18
BRANCH  15  20
ATOM     20  O   UNL     1      10.701   2.540  21.675  0.00  0.00    -0.503 OA
ATOM     21  H   UNL     1      11.576   2.655  22.101  0.00  0.00    +0.292 HD
ENDBRANCH  15  20
ENDBRANCH  11  12
BRANCH  10  22
ATOM     22  O   UNL     1       3.246  -0.914  28.387  0.00  0.00    -0.506 OA
ATOM     23  H   UNL     1       2.782  -0.627  29.189  0.00  0.00    +0.292 HD
ENDBRANCH  10  22
BRANCH   7  24
ATOM     24  O   UNL     1       2.860   3.693  27.203  0.00  0.00    -0.461 OA
BRANCH  24  25
ATOM     25  C   UNL     1       1.506   3.741  26.693  0.00  0.00    +0.339 C 
ATOM     26  O   UNL     1       1.352   3.258  25.354  0.00  0.00    -0.331 OA
ATOM     27  C   UNL     1       1.980   4.067  24.349  0.00  0.00    +0.179 C 
ATOM     28  C   UNL     1       1.509   5.536  24.400  0.00  0.00    +0.177 C 
ATOM     29  C   UNL     1       1.570   6.118  25.810  0.00  0.00    +0.180 C 
ATOM     30  C   UNL     1       0.930   5.166  26.815  0.00  0.00    +0.214 C 
BRANCH  30  31
ATOM     31  O   UNL     1       1.078   5.699  28.137  0.00  0.00    -0.383 OA
ATOM     32  H   UNL     1       1.654   5.085  28.632  0.00  0.00    +0.210 HD
ENDBRANCH  30  31
BRANCH  29  33
ATOM     33  O   UNL     1       2.939   6.389  26.148  0.00  0.00    -0.386 OA
ATOM     34  H   UNL     1       3.462   5.725  25.660  0.00  0.00    +0.210 HD
ENDBRANCH  29  33
BRANCH  28  35
ATOM     35  O   UNL     1       2.305   6.341  23.519  0.00  0.00    -0.386 OA
ATOM     36  H   UNL     1       1.920   6.195  22.626  0.00  0.00    +0.210 HD
ENDBRANCH  28  35
BRANCH  27  37
ATOM     37  C   UNL     1       1.617   3.473  22.969  0.00  0.00    +0.190 C 
BRANCH  37  38
ATOM     38  O   UNL     1       2.685   2.739  22.381  0.00  0.00    -0.392 OA
ATOM     39  H   UNL     1       3.283   2.457  23.105  0.00  0.00    +0.210 HD
ENDBRANCH  37  38
ENDBRANCH  27  37
ENDBRANCH  24  25
ENDBRANCH   7  24
BRANCH   1  40
ATOM     40  O   UNL     1       8.332  -1.748  26.551  0.00  0.00    -0.453 OA
BRANCH  40  44
ATOM     41  C   UNL     1       8.040  -5.451  24.428  0.00  0.00    +0.181 C 
ATOM     42  C   UNL     1       9.084  -5.328  25.571  0.00  0.00    +0.180 C 
ATOM     43  C   UNL     1       8.761  -4.111  26.469  0.00  0.00    +0.214 C 
ATOM     44  C   UNL     1       8.617  -2.815  25.620  0.00  0.00    +0.339 C 
ATOM     45  O   UNL     1       7.598  -3.033  24.613  0.00  0.00    -0.334 OA
ATOM     46  C   UNL     1       8.017  -4.073  23.703  0.00  0.00    +0.151 C 
ATOM     47  C   UNL     1       7.193  -4.017  22.418  0.00  0.00    +0.041 C 
BRANCH  43  48
ATOM     48  O   UNL     1       7.556  -4.362  27.222  0.00  0.00    -0.383 OA
ATOM     49  H   UNL     1       7.751  -4.110  28.150  0.00  0.00    +0.210 HD
ENDBRANCH  43  48
BRANCH  42  50
ATOM     50  O   UNL     1      10.403  -5.192  25.029  0.00  0.00    -0.386 OA
ATOM     51  H   UNL     1      10.312  -5.060  24.067  0.00  0.00    +0.210 HD
ENDBRANCH  42  50
BRANCH  41  52
ATOM     52  O   UNL     1       6.825  -5.855  25.078  0.00  0.00    -0.340 OA
BRANCH  52  56
ATOM     53  C   UNL     1       3.756  -2.994  24.983  0.00  0.00    +0.041 C 
ATOM     54  C   UNL     1       3.520  -4.428  25.466  0.00  0.00    +0.149 C 
ATOM     55  O   UNL     1       4.751  -5.109  25.757  0.00  0.00    -0.343 OA
ATOM     56  C   UNL     1       5.583  -5.348  24.612  0.00  0.00    +0.282 C 
ATOM     57  C   UNL     1       4.854  -6.245  23.581  0.00  0.00    +0.201 C 
ATOM     58  C   UNL     1       3.494  -5.620  23.228  0.00  0.00    +0.179 C 
ATOM     59  C   UNL     1       2.687  -5.266  24.486  0.00  0.00    +0.174 C 
BRANCH  59  60
ATOM     60  O   UNL     1       2.288  -6.498  25.114  0.00  0.00    -0.387 OA
ATOM     61  H   UNL     1       2.618  -7.222  24.534  0.00  0.00    +0.210 HD
ENDBRANCH  59  60
BRANCH  58  62
ATOM     62  O   UNL     1       2.752  -6.550  22.424  0.00  0.00    -0.386 OA
ATOM     63  H   UNL     1       3.398  -6.913  21.780  0.00  0.00    +0.210 HD
ENDBRANCH  58  62
BRANCH  57  64
ATOM     64  O   UNL     1       4.644  -7.578  24.082  0.00  0.00    -0.384 OA
ATOM     65  H   UNL     1       3.963  -7.973  23.500  0.00  0.00    +0.210 HD
ENDBRANCH  57  64
ENDBRANCH  52  56
ENDBRANCH  41  52
ENDBRANCH  40  44
ENDBRANCH   1  40
TORSDOF 20
ENDMDL
MODEL 4
REMARK VINA RESULT:      -6.5      2.613      9.953
REMARK  Name = 
REMARK  22 active torsions:
REMARK  status: ('A' for Active; 'I' for Inactive)
REMARK    1  A    between atoms: C_1  and  C_2
REMARK    2  A    between atoms: C_3  and  O_62
REMARK    3  A    between atoms: C_5  and  O_61
REMARK    4  A    between atoms: C_6  and  O_60
REMARK    5  A    between atoms: C_8  and  O_11
REMARK    6  A    between atoms: O_11  and  C_12
REMARK    7  A    between atoms: C_14  and  C_59
REMARK    8  A    between atoms: C_16  and  O_23
REMARK    9  A    between atoms: C_18  and  O_22
REMARK   10  A    between atoms: C_20  and  O_21
REMARK   11  A    between atoms: O_23  and  C_24
REMARK   12  A    between atoms: C_25  and  C_51
REMARK   13  A    between atoms: C_29  and  O_36
REMARK   14  A    between atoms: C_31  and  O_35
REMARK   15  A    between atoms: O_36  and  C_37
REMARK   16  A    between atoms: C_39  and  O_50
REMARK   17  A    between atoms: C_40  and  O_49
REMARK   18  A    between atoms: C_42  and  O_48
REMARK   19  A    between atoms: C_44  and  C_46
REMARK   20  A    between atoms: C_46  and  O_47
REMARK   21  A    between atoms: C_53  and  O_58
REMARK   22  A    between atoms: C_54  and  O_57
REMARK                            x       y       z     vdW  Elec       q    Type
REMARK                         _______ _______ _______ _____ _____    ______ ____
ROOT
ATOM      1  C   UNL     1       7.933  -0.191  25.254  0.00  0.00    +0.214 A 
ATOM      2  C   UNL     1       8.531   0.636  24.119  0.00  0.00    +0.238 A 
ATOM      3  O   UNL     1       9.635   0.384  23.661  0.00  0.00    -0.283 OA
ATOM      4  C   UNL     1       7.717   1.782  23.622  0.00  0.00    +0.109 A 
ATOM      5  C   UNL     1       6.568   2.064  24.326  0.00  0.00    +0.147 A 
ATOM      6  C   UNL     1       5.607   2.967  23.882  0.00  0.00    +0.093 A 
ATOM      7  C   UNL     1       5.810   3.689  22.721  0.00  0.00    +0.131 A 
ATOM      8  C   UNL     1       7.046   3.551  22.077  0.00  0.00    +0.092 A 
ATOM      9  O   UNL     1       6.306   1.546  25.543  0.00  0.00    -0.451 OA
ATOM     10  C   UNL     1       7.988   2.589  22.514  0.00  0.00    +0.135 A 
ATOM     11  C   UNL     1       6.935   0.394  25.960  0.00  0.00    +0.181 A 
ENDROOT
BRANCH  11  12
ATOM     12  C   UNL     1       6.243  -0.027  27.217  0.00  0.00    +0.025 A 
ATOM     13  C   UNL     1       5.309  -1.063  27.293  0.00  0.00    +0.015 A 
ATOM     14  C   UNL     1       4.462  -1.169  28.411  0.00  0.00    +0.050 A 
ATOM     15  C   UNL     1       4.548  -0.245  29.447  0.00  0.00    +0.158 A 
ATOM     16  C   UNL     1       5.531   0.731  29.437  0.00  0.00    +0.159 A 
ATOM     17  C   UNL     1       6.387   0.826  28.352  0.00  0.00    +0.060 A 
BRANCH  16  18
ATOM     18  O   UNL     1       5.582   1.609  30.484  0.00  0.00    -0.503 OA
ATOM     19  H   UNL     1       6.496   1.929  30.574  0.00  0.00    +0.292 HD
ENDBRANCH  16  18
BRANCH  15  20
ATOM     20  O   UNL     1       3.638  -0.275  30.465  0.00  0.00    -0.503 OA
ATOM     21  H   UNL     1       3.913  -1.038  31.015  0.00  0.00    +0.292 HD
ENDBRANCH  15  20
ENDBRANCH  11  12
BRANCH  10  22
ATOM     22  O   UNL     1       9.172   2.469  21.844  0.00  0.00    -0.506 OA
ATOM     23  H   UNL     1       9.018   2.392  20.889  0.00  0.00    +0.292 HD
ENDBRANCH  10  22
BRANCH   7  24
ATOM     24  O   UNL     1       4.885   4.538  22.172  0.00  0.00    -0.461 OA
BRANCH  24  25
ATOM     25  C   UNL     1       3.517   4.399  22.626  0.00  0.00    +0.339 C 
ATOM     26  O   UNL     1       2.710   3.520  21.834  0.00  0.00    -0.331 OA
ATOM     27  C   UNL     1       2.439   3.990  20.506  0.00  0.00    +0.179 C 
ATOM     28  C   UNL     1       1.795   5.393  20.499  0.00  0.00    +0.177 C 
ATOM     29  C   UNL     1       2.551   6.385  21.379  0.00  0.00    +0.180 C 
ATOM     30  C   UNL     1       2.842   5.779  22.748  0.00  0.00    +0.214 C 
BRANCH  30  31
ATOM     31  O   UNL     1       3.625   6.698  23.520  0.00  0.00    -0.383 OA
ATOM     32  H   UNL     1       4.548   6.621  23.211  0.00  0.00    +0.210 HD
ENDBRANCH  30  31
BRANCH  29  33
ATOM     33  O   UNL     1       3.763   6.775  20.714  0.00  0.00    -0.386 OA
ATOM     34  H   UNL     1       3.477   7.318  19.954  0.00  0.00    +0.210 HD
ENDBRANCH  29  33
BRANCH  28  35
ATOM     35  O   UNL     1       1.729   5.901  19.159  0.00  0.00    -0.386 OA
ATOM     36  H   UNL     1       2.605   5.690  18.766  0.00  0.00    +0.210 HD
ENDBRANCH  28  35
BRANCH  27  37
ATOM     37  C   UNL     1       1.467   2.990  19.839  0.00  0.00    +0.190 C 
BRANCH  37  38
ATOM     38  O   UNL     1       1.513   1.695  20.426  0.00  0.00    -0.392 OA
ATOM     39  H   UNL     1       1.442   1.039  19.701  0.00  0.00    +0.210 HD
ENDBRANCH  37  38
ENDBRANCH  27  37
ENDBRANCH  24  25
ENDBRANCH   7  24
BRANCH   1  40
ATOM     40  O   UNL     1       8.424  -1.434  25.605  0.00  0.00    -0.453 OA
BRANCH  40  44
ATOM     41  C   UNL     1       6.613  -5.012  24.113  0.00  0.00    +0.181 C 
ATOM     42  C   UNL     1       7.898  -5.132  24.976  0.00  0.00    +0.180 C 
ATOM     43  C   UNL     1       8.153  -3.818  25.750  0.00  0.00    +0.214 C 
ATOM     44  C   UNL     1       8.167  -2.596  24.786  0.00  0.00    +0.339 C 
ATOM     45  O   UNL     1       6.912  -2.566  24.061  0.00  0.00    -0.334 OA
ATOM     46  C   UNL     1       6.793  -3.741  23.230  0.00  0.00    +0.151 C 
ATOM     47  C   UNL     1       5.726  -3.526  22.158  0.00  0.00    +0.041 C 
BRANCH  43  48
ATOM     48  O   UNL     1       7.148  -3.647  26.773  0.00  0.00    -0.383 OA
ATOM     49  H   UNL     1       6.281  -3.781  26.335  0.00  0.00    +0.210 HD
ENDBRANCH  43  48
BRANCH  42  50
ATOM     50  O   UNL     1       9.028  -5.432  24.149  0.00  0.00    -0.386 OA
ATOM     51  H   UNL     1       9.453  -6.232  24.512  0.00  0.00    +0.210 HD
ENDBRANCH  42  50
BRANCH  41  52
ATOM     52  O   UNL     1       5.532  -4.990  25.057  0.00  0.00    -0.340 OA
BRANCH  52  56
ATOM     53  C   UNL     1       1.608  -5.047  23.570  0.00  0.00    +0.041 C 
ATOM     54  C   UNL     1       1.930  -5.363  25.034  0.00  0.00    +0.149 C 
ATOM     55  O   UNL     1       3.252  -4.934  25.400  0.00  0.00    -0.343 OA
ATOM     56  C   UNL     1       4.311  -5.641  24.736  0.00  0.00    +0.282 C 
ATOM     57  C   UNL     1       4.262  -7.151  25.076  0.00  0.00    +0.201 C 
ATOM     58  C   UNL     1       2.865  -7.704  24.754  0.00  0.00    +0.179 C 
ATOM     59  C   UNL     1       1.755  -6.847  25.383  0.00  0.00    +0.174 C 
BRANCH  59  60
ATOM     60  O   UNL     1       1.818  -7.024  26.810  0.00  0.00    -0.387 OA
ATOM     61  H   UNL     1       1.058  -6.523  27.183  0.00  0.00    +0.210 HD
ENDBRANCH  59  60
BRANCH  58  62
ATOM     62  O   UNL     1       2.775  -9.050  25.249  0.00  0.00    -0.386 OA
ATOM     63  H   UNL     1       2.669  -8.964  26.222  0.00  0.00    +0.210 HD
ENDBRANCH  58  62
BRANCH  57  64
ATOM     64  O   UNL     1       4.561  -7.398  26.462  0.00  0.00    -0.384 OA
ATOM     65  H   UNL     1       5.447  -7.814  26.470  0.00  0.00    +0.210 HD
ENDBRANCH  57  64
ENDBRANCH  52  56
ENDBRANCH  41  52
ENDBRANCH  40  44
ENDBRANCH   1  40
TORSDOF 20
ENDMDL
MODEL 5
REMARK VINA RESULT:      -6.4      2.511      6.941
REMARK  Name = 
REMARK  22 active torsions:
REMARK  status: ('A' for Active; 'I' for Inactive)
REMARK    1  A    between atoms: C_1  and  C_2
REMARK    2  A    between atoms: C_3  and  O_62
REMARK    3  A    between atoms: C_5  and  O_61
REMARK    4  A    between atoms: C_6  and  O_60
REMARK    5  A    between atoms: C_8  and  O_11
REMARK    6  A    between atoms: O_11  and  C_12
REMARK    7  A    between atoms: C_14  and  C_59
REMARK    8  A    between atoms: C_16  and  O_23
REMARK    9  A    between atoms: C_18  and  O_22
REMARK   10  A    between atoms: C_20  and  O_21
REMARK   11  A    between atoms: O_23  and  C_24
REMARK   12  A    between atoms: C_25  and  C_51
REMARK   13  A    between atoms: C_29  and  O_36
REMARK   14  A    between atoms: C_31  and  O_35
REMARK   15  A    between atoms: O_36  and  C_37
REMARK   16  A    between atoms: C_39  and  O_50
REMARK   17  A    between atoms: C_40  and  O_49
REMARK   18  A    between atoms: C_42  and  O_48
REMARK   19  A    between atoms: C_44  and  C_46
REMARK   20  A    between atoms: C_46  and  O_47
REMARK   21  A    between atoms: C_53  and  O_58
REMARK   22  A    between atoms: C_54  and  O_57
REMARK                            x       y       z     vdW  Elec       q    Type
REMARK                         _______ _______ _______ _____ _____    ______ ____
ROOT
ATOM      1  C   UNL     1       7.947  -2.460  25.833  0.00  0.00    +0.214 A 
ATOM      2  C   UNL     1       8.125  -1.271  26.774  0.00  0.00    +0.238 A 
ATOM      3  O   UNL     1       9.231  -0.829  27.041  0.00  0.00    -0.283 OA
ATOM      4  C   UNL     1       6.884  -0.700  27.375  0.00  0.00    +0.109 A 
ATOM      5  C   UNL     1       5.716  -1.386  27.128  0.00  0.00    +0.147 A 
ATOM      6  C   UNL     1       4.459  -0.884  27.449  0.00  0.00    +0.093 A 
ATOM      7  C   UNL     1       4.336   0.323  28.111  0.00  0.00    +0.131 A 
ATOM      8  C   UNL     1       5.513   0.958  28.528  0.00  0.00    +0.092 A 
ATOM      9  O   UNL     1       5.690  -2.635  26.622  0.00  0.00    -0.451 OA
ATOM     10  C   UNL     1       6.781   0.460  28.147  0.00  0.00    +0.135 A 
ATOM     11  C   UNL     1       6.771  -3.127  25.925  0.00  0.00    +0.181 A 
ENDROOT
BRANCH  11  12
ATOM     12  C   UNL     1       6.318  -4.411  25.305  0.00  0.00    +0.025 A 
ATOM     13  C   UNL     1       6.213  -4.628  23.929  0.00  0.00    +0.015 A 
ATOM     14  C   UNL     1       5.466  -5.714  23.441  0.00  0.00    +0.050 A 
ATOM     15  C   UNL     1       4.828  -6.580  24.323  0.00  0.00    +0.158 A 
ATOM     16  C   UNL     1       4.998  -6.440  25.690  0.00  0.00    +0.159 A 
ATOM     17  C   UNL     1       5.755  -5.387  26.179  0.00  0.00    +0.060 A 
BRANCH  16  18
ATOM     18  O   UNL     1       4.359  -7.323  26.515  0.00  0.00    -0.503 OA
ATOM     19  H   UNL     1       3.502  -6.941  26.771  0.00  0.00    +0.292 HD
ENDBRANCH  16  18
BRANCH  15  20
ATOM     20  O   UNL     1       3.998  -7.553  23.842  0.00  0.00    -0.503 OA
ATOM     21  H   UNL     1       4.603  -8.210  23.438  0.00  0.00    +0.292 HD
ENDBRANCH  15  20
ENDBRANCH  11  12
BRANCH  10  22
ATOM     22  O   UNL     1       7.903   1.122  28.554  0.00  0.00    -0.506 OA
ATOM     23  H   UNL     1       7.679   1.807  29.203  0.00  0.00    +0.292 HD
ENDBRANCH  10  22
BRANCH   7  24
ATOM     24  O   UNL     1       3.139   0.926  28.395  0.00  0.00    -0.461 OA
BRANCH  24  25
ATOM     25  C   UNL     1       2.080   0.772  27.418  0.00  0.00    +0.339 C 
ATOM     26  O   UNL     1       2.344   1.379  26.148  0.00  0.00    -0.331 OA
ATOM     27  C   UNL     1       2.400   2.812  26.169  0.00  0.00    +0.179 C 
ATOM     28  C   UNL     1       1.119   3.441  26.759  0.00  0.00    +0.177 C 
ATOM     29  C   UNL     1       0.717   2.804  28.087  0.00  0.00    +0.180 C 
ATOM     30  C   UNL     1       0.741   1.283  27.985  0.00  0.00    +0.214 C 
BRANCH  30  31
ATOM     31  O   UNL     1       0.443   0.715  29.266  0.00  0.00    -0.383 OA
ATOM     32  H   UNL     1       1.287   0.642  29.752  0.00  0.00    +0.210 HD
ENDBRANCH  30  31
BRANCH  29  33
ATOM     33  O   UNL     1       1.600   3.271  29.118  0.00  0.00    -0.386 OA
ATOM     34  H   UNL     1       2.497   3.015  28.827  0.00  0.00    +0.210 HD
ENDBRANCH  29  33
BRANCH  28  35
ATOM     35  O   UNL     1       1.300   4.852  26.944  0.00  0.00    -0.386 OA
ATOM     36  H   UNL     1       0.794   5.067  27.758  0.00  0.00    +0.210 HD
ENDBRANCH  28  35
BRANCH  27  37
ATOM     37  C   UNL     1       2.570   3.300  24.712  0.00  0.00    +0.190 C 
BRANCH  37  38
ATOM     38  O   UNL     1       3.570   2.581  23.998  0.00  0.00    -0.392 OA
ATOM     39  H   UNL     1       3.312   2.577  23.052  0.00  0.00    +0.210 HD
ENDBRANCH  37  38
ENDBRANCH  27  37
ENDBRANCH  24  25
ENDBRANCH   7  24
BRANCH   1  40
ATOM     40  O   UNL     1       8.951  -2.893  24.987  0.00  0.00    -0.453 OA
BRANCH  40  44
ATOM     41  C   UNL     1       9.530   0.445  22.372  0.00  0.00    +0.181 C 
ATOM     42  C   UNL     1       9.083  -0.911  21.762  0.00  0.00    +0.180 C 
ATOM     43  C   UNL     1       8.532  -1.845  22.865  0.00  0.00    +0.214 C 
ATOM     44  C   UNL     1       9.555  -1.998  24.027  0.00  0.00    +0.339 C 
ATOM     45  O   UNL     1       9.873  -0.680  24.540  0.00  0.00    -0.334 OA
ATOM     46  C   UNL     1      10.529   0.102  23.518  0.00  0.00    +0.151 C 
ATOM     47  C   UNL     1      11.249   1.295  24.144  0.00  0.00    +0.041 C 
BRANCH  43  48
ATOM     48  O   UNL     1       7.275  -1.336  23.357  0.00  0.00    -0.383 OA
ATOM     49  H   UNL     1       7.492  -0.723  24.092  0.00  0.00    +0.210 HD
ENDBRANCH  43  48
BRANCH  42  50
ATOM     50  O   UNL     1      10.181  -1.545  21.096  0.00  0.00    -0.386 OA
ATOM     51  H   UNL     1      10.857  -0.863  20.930  0.00  0.00    +0.210 HD
ENDBRANCH  42  50
BRANCH  41  52
ATOM     52  O   UNL     1       8.312   1.098  22.757  0.00  0.00    -0.340 OA
BRANCH  52  56
ATOM     53  C   UNL     1       9.804   4.740  24.216  0.00  0.00    +0.041 C 
ATOM     54  C   UNL     1       8.415   4.217  24.594  0.00  0.00    +0.149 C 
ATOM     55  O   UNL     1       8.262   2.821  24.290  0.00  0.00    -0.343 OA
ATOM     56  C   UNL     1       8.290   2.513  22.888  0.00  0.00    +0.282 C 
ATOM     57  C   UNL     1       7.131   3.222  22.146  0.00  0.00    +0.201 C 
ATOM     58  C   UNL     1       7.180   4.730  22.439  0.00  0.00    +0.179 C 
ATOM     59  C   UNL     1       7.274   5.014  23.946  0.00  0.00    +0.174 C 
BRANCH  59  60
ATOM     60  O   UNL     1       6.018   4.642  24.543  0.00  0.00    -0.387 OA
ATOM     61  H   UNL     1       6.238   4.085  25.324  0.00  0.00    +0.210 HD
ENDBRANCH  59  60
BRANCH  58  62
ATOM     62  O   UNL     1       5.997   5.345  21.905  0.00  0.00    -0.386 OA
ATOM     63  H   UNL     1       6.318   6.036  21.286  0.00  0.00    +0.210 HD
ENDBRANCH  58  62
BRANCH  57  64
ATOM     64  O   UNL     1       5.846   2.707  22.541  0.00  0.00    -0.384 OA
ATOM     65  H   UNL     1       5.739   1.864  22.052  0.00  0.00    +0.210 HD
ENDBRANCH  57  64
ENDBRANCH  52  56
ENDBRANCH  41  52
ENDBRANCH  40  44
ENDBRANCH   1  40
TORSDOF 20
ENDMDL
MODEL 6
REMARK VINA RESULT:      -6.2      3.251      5.416
REMARK  Name = 
REMARK  22 active torsions:
REMARK  status: ('A' for Active; 'I' for Inactive)
REMARK    1  A    between atoms: C_1  and  C_2
REMARK    2  A    between atoms: C_3  and  O_62
REMARK    3  A    between atoms: C_5  and  O_61
REMARK    4  A    between atoms: C_6  and  O_60
REMARK    5  A    between atoms: C_8  and  O_11
REMARK    6  A    between atoms: O_11  and  C_12
REMARK    7  A    between atoms: C_14  and  C_59
REMARK    8  A    between atoms: C_16  and  O_23
REMARK    9  A    between atoms: C_18  and  O_22
REMARK   10  A    between atoms: C_20  and  O_21
REMARK   11  A    between atoms: O_23  and  C_24
REMARK   12  A    between atoms: C_25  and  C_51
REMARK   13  A    between atoms: C_29  and  O_36
REMARK   14  A    between atoms: C_31  and  O_35
REMARK   15  A    between atoms: O_36  and  C_37
REMARK   16  A    between atoms: C_39  and  O_50
REMARK   17  A    between atoms: C_40  and  O_49
REMARK   18  A    between atoms: C_42  and  O_48
REMARK   19  A    between atoms: C_44  and  C_46
REMARK   20  A    between atoms: C_46  and  O_47
REMARK   21  A    between atoms: C_53  and  O_58
REMARK   22  A    between atoms: C_54  and  O_57
REMARK                            x       y       z     vdW  Elec       q    Type
REMARK                         _______ _______ _______ _____ _____    ______ ____
ROOT
ATOM      1  C   UNL     1       5.392   1.677  26.027  0.00  0.00    +0.214 A 
ATOM      2  C   UNL     1       4.651   0.723  26.960  0.00  0.00    +0.238 A 
ATOM      3  O   UNL     1       4.175   1.108  28.017  0.00  0.00    -0.283 OA
ATOM      4  C   UNL     1       4.567  -0.704  26.534  0.00  0.00    +0.109 A 
ATOM      5  C   UNL     1       5.281  -1.047  25.408  0.00  0.00    +0.147 A 
ATOM      6  C   UNL     1       5.154  -2.278  24.773  0.00  0.00    +0.093 A 
ATOM      7  C   UNL     1       4.337  -3.257  25.305  0.00  0.00    +0.131 A 
ATOM      8  C   UNL     1       3.733  -2.999  26.542  0.00  0.00    +0.092 A 
ATOM      9  O   UNL     1       6.222  -0.248  24.864  0.00  0.00    -0.451 OA
ATOM     10  C   UNL     1       3.832  -1.723  27.145  0.00  0.00    +0.135 A 
ATOM     11  C   UNL     1       6.223   1.104  25.122  0.00  0.00    +0.181 A 
ENDROOT
BRANCH  11  12
ATOM     12  C   UNL     1       7.220   1.707  24.183  0.00  0.00    +0.025 A 
ATOM     13  C   UNL     1       6.940   2.070  22.864  0.00  0.00    +0.015 A 
ATOM     14  C   UNL     1       7.990   2.301  21.957  0.00  0.00    +0.050 A 
ATOM     15  C   UNL     1       9.312   2.169  22.368  0.00  0.00    +0.158 A 
ATOM     16  C   UNL     1       9.613   1.905  23.694  0.00  0.00    +0.159 A 
ATOM     17  C   UNL     1       8.584   1.703  24.599  0.00  0.00    +0.060 A 
BRANCH  16  18
ATOM     18  O   UNL     1      10.929   1.797  24.049  0.00  0.00    -0.503 OA
ATOM     19  H   UNL     1      11.452   2.383  23.476  0.00  0.00    +0.292 HD
ENDBRANCH  16  18
BRANCH  15  20
ATOM     20  O   UNL     1      10.322   2.265  21.453  0.00  0.00    -0.503 OA
ATOM     21  H   UNL     1      11.005   1.641  21.779  0.00  0.00    +0.292 HD
ENDBRANCH  15  20
ENDBRANCH  11  12
BRANCH  10  22
ATOM     22  O   UNL     1       3.208  -1.504  28.340  0.00  0.00    -0.506 OA
ATOM     23  H   UNL     1       3.833  -1.608  29.076  0.00  0.00    +0.292 HD
ENDBRANCH  10  22
BRANCH   7  24
ATOM     24  O   UNL     1       4.094  -4.465  24.705  0.00  0.00    -0.461 OA
BRANCH  24  25
ATOM     25  C   UNL     1       4.947  -5.570  25.089  0.00  0.00    +0.339 C 
ATOM     26  O   UNL     1       6.308  -5.214  25.353  0.00  0.00    -0.331 OA
ATOM     27  C   UNL     1       7.046  -4.775  24.203  0.00  0.00    +0.179 C 
ATOM     28  C   UNL     1       7.020  -5.810  23.059  0.00  0.00    +0.177 C 
ATOM     29  C   UNL     1       5.608  -6.305  22.754  0.00  0.00    +0.180 C 
ATOM     30  C   UNL     1       4.884  -6.696  24.037  0.00  0.00    +0.214 C 
BRANCH  30  31
ATOM     31  O   UNL     1       3.537  -7.074  23.729  0.00  0.00    -0.383 OA
ATOM     32  H   UNL     1       3.407  -7.980  24.069  0.00  0.00    +0.210 HD
ENDBRANCH  30  31
BRANCH  29  33
ATOM     33  O   UNL     1       4.894  -5.281  22.044  0.00  0.00    -0.386 OA
ATOM     34  H   UNL     1       4.757  -4.564  22.693  0.00  0.00    +0.210 HD
ENDBRANCH  29  33
BRANCH  28  35
ATOM     35  O   UNL     1       7.594  -5.249  21.870  0.00  0.00    -0.386 OA
ATOM     36  H   UNL     1       7.143  -5.711  21.129  0.00  0.00    +0.210 HD
ENDBRANCH  28  35
BRANCH  27  37
ATOM     37  C   UNL     1       8.511  -4.549  24.640  0.00  0.00    +0.190 C 
BRANCH  37  38
ATOM     38  O   UNL     1       9.365  -5.638  24.308  0.00  0.00    -0.392 OA
ATOM     39  H   UNL     1       9.705  -6.013  25.148  0.00  0.00    +0.210 HD
ENDBRANCH  37  38
ENDBRANCH  27  37
ENDBRANCH  24  25
ENDBRANCH   7  24
BRANCH   1  40
ATOM     40  O   UNL     1       5.293   3.051  26.138  0.00  0.00    -0.453 OA
BRANCH  40  44
ATOM     41  C   UNL     1       2.073   5.070  24.174  0.00  0.00    +0.181 C 
ATOM     42  C   UNL     1       3.103   5.913  24.973  0.00  0.00    +0.180 C 
ATOM     43  C   UNL     1       4.382   5.087  25.244  0.00  0.00    +0.214 C 
ATOM     44  C   UNL     1       4.036   3.729  25.920  0.00  0.00    +0.339 C 
ATOM     45  O   UNL     1       3.099   3.017  25.074  0.00  0.00    -0.334 OA
ATOM     46  C   UNL     1       1.860   3.754  24.980  0.00  0.00    +0.151 C 
ATOM     47  C   UNL     1       0.740   2.845  24.477  0.00  0.00    +0.041 C 
BRANCH  43  48
ATOM     48  O   UNL     1       5.099   4.873  24.010  0.00  0.00    -0.383 OA
ATOM     49  H   UNL     1       5.229   5.758  23.607  0.00  0.00    +0.210 HD
ENDBRANCH  43  48
BRANCH  42  50
ATOM     50  O   UNL     1       2.536   6.346  26.215  0.00  0.00    -0.386 OA
ATOM     51  H   UNL     1       1.993   7.135  26.030  0.00  0.00    +0.210 HD
ENDBRANCH  42  50
BRANCH  41  52
ATOM     52  O   UNL     1       2.641   4.934  22.863  0.00  0.00    -0.340 OA
BRANCH  52  56
ATOM     53  C   UNL     1       0.444   1.975  20.857  0.00  0.00    +0.041 C 
ATOM     54  C   UNL     1       1.691   2.621  20.245  0.00  0.00    +0.149 C 
ATOM     55  O   UNL     1       2.475   3.317  21.227  0.00  0.00    -0.343 OA
ATOM     56  C   UNL     1       1.830   4.468  21.794  0.00  0.00    +0.282 C 
ATOM     57  C   UNL     1       1.518   5.518  20.700  0.00  0.00    +0.201 C 
ATOM     58  C   UNL     1       0.707   4.859  19.573  0.00  0.00    +0.179 C 
ATOM     59  C   UNL     1       1.369   3.564  19.078  0.00  0.00    +0.174 C 
BRANCH  59  60
ATOM     60  O   UNL     1       2.583   3.925  18.393  0.00  0.00    -0.387 OA
ATOM     61  H   UNL     1       2.951   3.089  18.027  0.00  0.00    +0.210 HD
ENDBRANCH  59  60
BRANCH  58  62
ATOM     62  O   UNL     1       0.590   5.789  18.483  0.00  0.00    -0.386 OA
ATOM     63  H   UNL     1       0.194   5.276  17.745  0.00  0.00    +0.210 HD
ENDBRANCH  58  62
BRANCH  57  64
ATOM     64  O   UNL     1       2.718   6.090  20.147  0.00  0.00    -0.384 OA
ATOM     65  H   UNL     1       3.003   5.470  19.444  0.00  0.00    +0.210 HD
ENDBRANCH  57  64
ENDBRANCH  52  56
ENDBRANCH  41  52
ENDBRANCH  40  44
ENDBRANCH   1  40
TORSDOF 20
ENDMDL
MODEL 7
REMARK VINA RESULT:      -6.1      2.731      9.249
REMARK  Name = 
REMARK  22 active torsions:
REMARK  status: ('A' for Active; 'I' for Inactive)
REMARK    1  A    between atoms: C_1  and  C_2
REMARK    2  A    between atoms: C_3  and  O_62
REMARK    3  A    between atoms: C_5  and  O_61
REMARK    4  A    between atoms: C_6  and  O_60
REMARK    5  A    between atoms: C_8  and  O_11
REMARK    6  A    between atoms: O_11  and  C_12
REMARK    7  A    between atoms: C_14  and  C_59
REMARK    8  A    between atoms: C_16  and  O_23
REMARK    9  A    between atoms: C_18  and  O_22
REMARK   10  A    between atoms: C_20  and  O_21
REMARK   11  A    between atoms: O_23  and  C_24
REMARK   12  A    between atoms: C_25  and  C_51
REMARK   13  A    between atoms: C_29  and  O_36
REMARK   14  A    between atoms: C_31  and  O_35
REMARK   15  A    between atoms: O_36  and  C_37
REMARK   16  A    between atoms: C_39  and  O_50
REMARK   17  A    between atoms: C_40  and  O_49
REMARK   18  A    between atoms: C_42  and  O_48
REMARK   19  A    between atoms: C_44  and  C_46
REMARK   20  A    between atoms: C_46  and  O_47
REMARK   21  A    between atoms: C_53  and  O_58
REMARK   22  A    between atoms: C_54  and  O_57
REMARK                            x       y       z     vdW  Elec       q    Type
REMARK                         _______ _______ _______ _____ _____    ______ ____
ROOT
ATOM      1  C   UNL     1       7.283  -0.897  26.366  0.00  0.00    +0.214 A 
ATOM      2  C   UNL     1       5.954  -1.073  27.095  0.00  0.00    +0.238 A 
ATOM      3  O   UNL     1       5.650  -2.134  27.619  0.00  0.00    -0.283 OA
ATOM      4  C   UNL     1       5.034   0.101  27.106  0.00  0.00    +0.109 A 
ATOM      5  C   UNL     1       5.415   1.181  26.343  0.00  0.00    +0.147 A 
ATOM      6  C   UNL     1       4.774   2.415  26.399  0.00  0.00    +0.093 A 
ATOM      7  C   UNL     1       3.654   2.585  27.190  0.00  0.00    +0.131 A 
ATOM      8  C   UNL     1       3.141   1.457  27.843  0.00  0.00    +0.092 A 
ATOM      9  O   UNL     1       6.396   1.120  25.420  0.00  0.00    -0.451 OA
ATOM     10  C   UNL     1       3.837   0.225  27.816  0.00  0.00    +0.135 A 
ATOM     11  C   UNL     1       7.352   0.130  25.484  0.00  0.00    +0.181 A 
ENDROOT
BRANCH  11  12
ATOM     12  C   UNL     1       8.402   0.499  24.485  0.00  0.00    +0.025 A 
ATOM     13  C   UNL     1       9.675   0.970  24.818  0.00  0.00    +0.015 A 
ATOM     14  C   UNL     1      10.465   1.612  23.848  0.00  0.00    +0.050 A 
ATOM     15  C   UNL     1       9.986   1.782  22.553  0.00  0.00    +0.158 A 
ATOM     16  C   UNL     1       8.769   1.238  22.177  0.00  0.00    +0.159 A 
ATOM     17  C   UNL     1       7.996   0.580  23.120  0.00  0.00    +0.060 A 
BRANCH  16  18
ATOM     18  O   UNL     1       8.348   1.423  20.890  0.00  0.00    -0.503 OA
ATOM     19  H   UNL     1       8.638   2.303  20.594  0.00  0.00    +0.292 HD
ENDBRANCH  16  18
BRANCH  15  20
ATOM     20  O   UNL     1      10.702   2.520  21.653  0.00  0.00    -0.503 OA
ATOM     21  H   UNL     1      10.125   2.564  20.862  0.00  0.00    +0.292 HD
ENDBRANCH  15  20
ENDBRANCH  11  12
BRANCH  10  22
ATOM     22  O   UNL     1       3.315  -0.845  28.485  0.00  0.00    -0.506 OA
ATOM     23  H   UNL     1       3.182  -1.593  27.882  0.00  0.00    +0.292 HD
ENDBRANCH  10  22
BRANCH   7  24
ATOM     24  O   UNL     1       3.010   3.783  27.364  0.00  0.00    -0.461 OA
BRANCH  24  25
ATOM     25  C   UNL     1       3.656   4.958  26.819  0.00  0.00    +0.339 C 
ATOM     26  O   UNL     1       5.005   5.159  27.256  0.00  0.00    -0.331 OA
ATOM     27  C   UNL     1       5.141   5.476  28.649  0.00  0.00    +0.179 C 
ATOM     28  C   UNL     1       4.303   6.705  29.056  0.00  0.00    +0.177 C 
ATOM     29  C   UNL     1       2.859   6.613  28.568  0.00  0.00    +0.180 C 
ATOM     30  C   UNL     1       2.812   6.219  27.096  0.00  0.00    +0.214 C 
BRANCH  30  31
ATOM     31  O   UNL     1       1.448   6.057  26.689  0.00  0.00    -0.383 OA
ATOM     32  H   UNL     1       1.321   5.113  26.475  0.00  0.00    +0.210 HD
ENDBRANCH  30  31
BRANCH  29  33
ATOM     33  O   UNL     1       2.146   5.671  29.383  0.00  0.00    -0.386 OA
ATOM     34  H   UNL     1       1.841   4.976  28.768  0.00  0.00    +0.210 HD
ENDBRANCH  29  33
BRANCH  28  35
ATOM     35  O   UNL     1       4.312   6.861  30.482  0.00  0.00    -0.386 OA
ATOM     36  H   UNL     1       3.782   6.106  30.822  0.00  0.00    +0.210 HD
ENDBRANCH  28  35
BRANCH  27  37
ATOM     37  C   UNL     1       6.633   5.775  28.921  0.00  0.00    +0.190 C 
BRANCH  37  38
ATOM     38  O   UNL     1       7.307   4.703  29.570  0.00  0.00    -0.392 OA
ATOM     39  H   UNL     1       6.696   4.335  30.243  0.00  0.00    +0.210 HD
ENDBRANCH  37  38
ENDBRANCH  27  37
ENDBRANCH  24  25
ENDBRANCH   7  24
BRANCH   1  40
ATOM     40  O   UNL     1       8.339  -1.774  26.526  0.00  0.00    -0.453 OA
BRANCH  40  44
ATOM     41  C   UNL     1       7.990  -5.437  24.343  0.00  0.00    +0.181 C 
ATOM     42  C   UNL     1       9.080  -5.327  25.443  0.00  0.00    +0.180 C 
ATOM     43  C   UNL     1       8.784  -4.131  26.378  0.00  0.00    +0.214 C 
ATOM     44  C   UNL     1       8.594  -2.820  25.562  0.00  0.00    +0.339 C 
ATOM     45  O   UNL     1       7.536  -3.027  24.594  0.00  0.00    -0.334 OA
ATOM     46  C   UNL     1       7.926  -4.045  23.647  0.00  0.00    +0.151 C 
ATOM     47  C   UNL     1       7.049  -3.971  22.398  0.00  0.00    +0.041 C 
BRANCH  43  48
ATOM     48  O   UNL     1       7.613  -4.408  27.176  0.00  0.00    -0.383 OA
ATOM     49  H   UNL     1       7.936  -4.784  28.022  0.00  0.00    +0.210 HD
ENDBRANCH  43  48
BRANCH  42  50
ATOM     50  O   UNL     1      10.374  -5.168  24.851  0.00  0.00    -0.386 OA
ATOM     51  H   UNL     1      10.662  -4.251  25.016  0.00  0.00    +0.210 HD
ENDBRANCH  42  50
BRANCH  41  52
ATOM     52  O   UNL     1       6.807  -5.864  25.033  0.00  0.00    -0.340 OA
BRANCH  52  56
ATOM     53  C   UNL     1       3.709  -3.033  24.991  0.00  0.00    +0.041 C 
ATOM     54  C   UNL     1       3.509  -4.453  25.531  0.00  0.00    +0.149 C 
ATOM     55  O   UNL     1       4.760  -5.114  25.785  0.00  0.00    -0.343 OA
ATOM     56  C   UNL     1       5.539  -5.383  24.610  0.00  0.00    +0.282 C 
ATOM     57  C   UNL     1       4.772  -6.318  23.643  0.00  0.00    +0.201 C 
ATOM     58  C   UNL     1       3.391  -5.716  23.335  0.00  0.00    +0.179 C 
ATOM     59  C   UNL     1       2.640  -5.328  24.618  0.00  0.00    +0.174 C 
BRANCH  59  60
ATOM     60  O   UNL     1       2.282  -6.543  25.302  0.00  0.00    -0.387 OA
ATOM     61  H   UNL     1       2.948  -6.663  26.017  0.00  0.00    +0.210 HD
ENDBRANCH  59  60
BRANCH  58  62
ATOM     62  O   UNL     1       2.621  -6.678  22.597  0.00  0.00    -0.386 OA
ATOM     63  H   UNL     1       2.253  -7.291  23.270  0.00  0.00    +0.210 HD
ENDBRANCH  58  62
BRANCH  57  64
ATOM     64  O   UNL     1       4.598  -7.636  24.197  0.00  0.00    -0.384 OA
ATOM     65  H   UNL     1       4.054  -8.125  23.545  0.00  0.00    +0.210 HD
ENDBRANCH  57  64
ENDBRANCH  52  56
ENDBRANCH  41  52
ENDBRANCH  40  44
ENDBRANCH   1  40
TORSDOF 20
ENDMDL
MODEL 8
REMARK VINA RESULT:      -5.6      2.049      2.686
REMARK  Name = 
REMARK  22 active torsions:
REMARK  status: ('A' for Active; 'I' for Inactive)
REMARK    1  A    between atoms: C_1  and  C_2
REMARK    2  A    between atoms: C_3  and  O_62
REMARK    3  A    between atoms: C_5  and  O_61
REMARK    4  A    between atoms: C_6  and  O_60
REMARK    5  A    between atoms: C_8  and  O_11
REMARK    6  A    between atoms: O_11  and  C_12
REMARK    7  A    between atoms: C_14  and  C_59
REMARK    8  A    between atoms: C_16  and  O_23
REMARK    9  A    between atoms: C_18  and  O_22
REMARK   10  A    between atoms: C_20  and  O_21
REMARK   11  A    between atoms: O_23  and  C_24
REMARK   12  A    between atoms: C_25  and  C_51
REMARK   13  A    between atoms: C_29  and  O_36
REMARK   14  A    between atoms: C_31  and  O_35
REMARK   15  A    between atoms: O_36  and  C_37
REMARK   16  A    between atoms: C_39  and  O_50
REMARK   17  A    between atoms: C_40  and  O_49
REMARK   18  A    between atoms: C_42  and  O_48
REMARK   19  A    between atoms: C_44  and  C_46
REMARK   20  A    between atoms: C_46  and  O_47
REMARK   21  A    between atoms: C_53  and  O_58
REMARK   22  A    between atoms: C_54  and  O_57
REMARK                            x       y       z     vdW  Elec       q    Type
REMARK                         _______ _______ _______ _____ _____    ______ ____
ROOT
ATOM      1  C   UNL     1       7.808  -1.168  25.054  0.00  0.00    +0.214 A 
ATOM      2  C   UNL     1       7.820  -2.620  25.525  0.00  0.00    +0.238 A 
ATOM      3  O   UNL     1       8.530  -2.986  26.448  0.00  0.00    -0.283 OA
ATOM      4  C   UNL     1       6.947  -3.573  24.780  0.00  0.00    +0.109 A 
ATOM      5  C   UNL     1       6.321  -3.078  23.658  0.00  0.00    +0.147 A 
ATOM      6  C   UNL     1       5.332  -3.774  22.970  0.00  0.00    +0.093 A 
ATOM      7  C   UNL     1       4.982  -5.054  23.356  0.00  0.00    +0.131 A 
ATOM      8  C   UNL     1       5.722  -5.649  24.385  0.00  0.00    +0.092 A 
ATOM      9  O   UNL     1       6.663  -1.908  23.082  0.00  0.00    -0.451 OA
ATOM     10  C   UNL     1       6.688  -4.907  25.106  0.00  0.00    +0.135 A 
ATOM     11  C   UNL     1       7.335  -0.946  23.804  0.00  0.00    +0.181 A 
ENDROOT
BRANCH  11  12
ATOM     12  C   UNL     1       7.331   0.288  22.959  0.00  0.00    +0.025 A 
ATOM     13  C   UNL     1       8.472   0.851  22.382  0.00  0.00    +0.015 A 
ATOM     14  C   UNL     1       8.441   2.173  21.903  0.00  0.00    +0.050 A 
ATOM     15  C   UNL     1       7.277   2.928  22.001  0.00  0.00    +0.158 A 
ATOM     16  C   UNL     1       6.109   2.359  22.482  0.00  0.00    +0.159 A 
ATOM     17  C   UNL     1       6.124   1.047  22.931  0.00  0.00    +0.060 A 
BRANCH  16  18
ATOM     18  O   UNL     1       4.988   3.139  22.548  0.00  0.00    -0.503 OA
ATOM     19  H   UNL     1       4.444   2.964  21.761  0.00  0.00    +0.292 HD
ENDBRANCH  16  18
BRANCH  15  20
ATOM     20  O   UNL     1       7.290   4.250  21.657  0.00  0.00    -0.503 OA
ATOM     21  H   UNL     1       6.569   4.647  22.189  0.00  0.00    +0.292 HD
ENDBRANCH  15  20
ENDBRANCH  11  12
BRANCH  10  22
ATOM     22  O   UNL     1       7.372  -5.517  26.119  0.00  0.00    -0.506 OA
ATOM     23  H   UNL     1       6.804  -5.624  26.898  0.00  0.00    +0.292 HD
ENDBRANCH  10  22
BRANCH   7  24
ATOM     24  O   UNL     1       3.967  -5.778  22.786  0.00  0.00    -0.461 OA
BRANCH  24  25
ATOM     25  C   UNL     1       2.615  -5.402  23.141  0.00  0.00    +0.339 C 
ATOM     26  O   UNL     1       2.492  -4.716  24.392  0.00  0.00    -0.331 OA
ATOM     27  C   UNL     1       2.794  -5.515  25.545  0.00  0.00    +0.179 C 
ATOM     28  C   UNL     1       1.947  -6.804  25.604  0.00  0.00    +0.177 C 
ATOM     29  C   UNL     1       1.960  -7.570  24.284  0.00  0.00    +0.180 C 
ATOM     30  C   UNL     1       1.685  -6.632  23.114  0.00  0.00    +0.214 C 
BRANCH  30  31
ATOM     31  O   UNL     1       1.787  -7.361  21.884  0.00  0.00    -0.383 OA
ATOM     32  H   UNL     1       2.715  -7.654  21.799  0.00  0.00    +0.210 HD
ENDBRANCH  30  31
BRANCH  29  33
ATOM     33  O   UNL     1       3.226  -8.231  24.135  0.00  0.00    -0.386 OA
ATOM     34  H   UNL     1       3.203  -8.637  23.247  0.00  0.00    +0.210 HD
ENDBRANCH  29  33
BRANCH  28  35
ATOM     35  O   UNL     1       2.421  -7.659  26.654  0.00  0.00    -0.386 OA
ATOM     36  H   UNL     1       3.401  -7.623  26.587  0.00  0.00    +0.210 HD
ENDBRANCH  28  35
BRANCH  27  37
ATOM     37  C   UNL     1       2.497  -4.664  26.800  0.00  0.00    +0.190 C 
BRANCH  37  38
ATOM     38  O   UNL     1       2.953  -5.270  28.004  0.00  0.00    -0.392 OA
ATOM     39  H   UNL     1       3.934  -5.258  27.989  0.00  0.00    +0.210 HD
ENDBRANCH  37  38
ENDBRANCH  27  37
ENDBRANCH  24  25
ENDBRANCH   7  24
BRANCH   1  40
ATOM     40  O   UNL     1       8.321  -0.137  25.819  0.00  0.00    -0.453 OA
BRANCH  40  44
ATOM     41  C   UNL     1       5.500   1.913  28.298  0.00  0.00    +0.181 C 
ATOM     42  C   UNL     1       6.920   2.519  28.127  0.00  0.00    +0.180 C 
ATOM     43  C   UNL     1       7.630   1.893  26.904  0.00  0.00    +0.214 C 
ATOM     44  C   UNL     1       7.627   0.339  26.993  0.00  0.00    +0.339 C 
ATOM     45  O   UNL     1       6.255  -0.113  27.115  0.00  0.00    -0.334 OA
ATOM     46  C   UNL     1       5.685   0.368  28.352  0.00  0.00    +0.151 C 
ATOM     47  C   UNL     1       4.434  -0.435  28.706  0.00  0.00    +0.041 C 
BRANCH  43  48
ATOM     48  O   UNL     1       6.993   2.334  25.686  0.00  0.00    -0.383 OA
ATOM     49  H   UNL     1       6.058   2.044  25.741  0.00  0.00    +0.210 HD
ENDBRANCH  43  48
BRANCH  42  50
ATOM     50  O   UNL     1       7.702   2.297  29.305  0.00  0.00    -0.386 OA
ATOM     51  H   UNL     1       8.190   3.121  29.493  0.00  0.00    +0.210 HD
ENDBRANCH  42  50
BRANCH  41  52
ATOM     52  O   UNL     1       4.741   2.431  27.196  0.00  0.00    -0.340 OA
BRANCH  52  56
ATOM     53  C   UNL     1       1.801   5.020  28.702  0.00  0.00    +0.041 C 
ATOM     54  C   UNL     1       1.917   4.697  27.209  0.00  0.00    +0.149 C 
ATOM     55  O   UNL     1       2.730   3.537  26.969  0.00  0.00    -0.343 OA
ATOM     56  C   UNL     1       4.113   3.700  27.314  0.00  0.00    +0.282 C 
ATOM     57  C   UNL     1       4.759   4.831  26.477  0.00  0.00    +0.201 C 
ATOM     58  C   UNL     1       3.936   6.120  26.635  0.00  0.00    +0.179 C 
ATOM     59  C   UNL     1       2.441   5.875  26.377  0.00  0.00    +0.174 C 
BRANCH  59  60
ATOM     60  O   UNL     1       2.277   5.594  24.975  0.00  0.00    -0.387 OA
ATOM     61  H   UNL     1       1.819   4.724  24.920  0.00  0.00    +0.210 HD
ENDBRANCH  59  60
BRANCH  58  62
ATOM     62  O   UNL     1       4.431   7.102  25.710  0.00  0.00    -0.386 OA
ATOM     63  H   UNL     1       5.247   7.460  26.122  0.00  0.00    +0.210 HD
ENDBRANCH  58  62
BRANCH  57  64
ATOM     64  O   UNL     1       4.837   4.489  25.081  0.00  0.00    -0.384 OA
ATOM     65  H   UNL     1       5.699   4.836  24.773  0.00  0.00    +0.210 HD
ENDBRANCH  57  64
ENDBRANCH  52  56
ENDBRANCH  41  52
ENDBRANCH  40  44
ENDBRANCH   1  40
TORSDOF 20
ENDMDL
MODEL 9
REMARK VINA RESULT:      -5.4      3.188      6.613
REMARK  Name = 
REMARK  22 active torsions:
REMARK  status: ('A' for Active; 'I' for Inactive)
REMARK    1  A    between atoms: C_1  and  C_2
REMARK    2  A    between atoms: C_3  and  O_62
REMARK    3  A    between atoms: C_5  and  O_61
REMARK    4  A    between atoms: C_6  and  O_60
REMARK    5  A    between atoms: C_8  and  O_11
REMARK    6  A    between atoms: O_11  and  C_12
REMARK    7  A    between atoms: C_14  and  C_59
REMARK    8  A    between atoms: C_16  and  O_23
REMARK    9  A    between atoms: C_18  and  O_22
REMARK   10  A    between atoms: C_20  and  O_21
REMARK   11  A    between atoms: O_23  and  C_24
REMARK   12  A    between atoms: C_25  and  C_51
REMARK   13  A    between atoms: C_29  and  O_36
REMARK   14  A    between atoms: C_31  and  O_35
REMARK   15  A    between atoms: O_36  and  C_37
REMARK   16  A    between atoms: C_39  and  O_50
REMARK   17  A    between atoms: C_40  and  O_49
REMARK   18  A    between atoms: C_42  and  O_48
REMARK   19  A    between atoms: C_44  and  C_46
REMARK   20  A    between atoms: C_46  and  O_47
REMARK   21  A    between atoms: C_53  and  O_58
REMARK   22  A    between atoms: C_54  and  O_57
REMARK                            x       y       z     vdW  Elec       q    Type
REMARK                         _______ _______ _______ _____ _____    ______ ____
ROOT
ATOM      1  C   UNL     1       7.270   3.791  24.228  0.00  0.00    +0.214 A 
ATOM      2  C   UNL     1       8.589   3.025  24.281  0.00  0.00    +0.238 A 
ATOM      3  O   UNL     1       9.627   3.565  24.632  0.00  0.00    -0.283 OA
ATOM      4  C   UNL     1       8.553   1.597  23.851  0.00  0.00    +0.109 A 
ATOM      5  C   UNL     1       7.363   1.149  23.322  0.00  0.00    +0.147 A 
ATOM      6  C   UNL     1       7.106  -0.193  23.058  0.00  0.00    +0.093 A 
ATOM      7  C   UNL     1       8.089  -1.144  23.254  0.00  0.00    +0.131 A 
ATOM      8  C   UNL     1       9.363  -0.696  23.626  0.00  0.00    +0.092 A 
ATOM      9  O   UNL     1       6.369   1.978  22.945  0.00  0.00    -0.451 OA
ATOM     10  C   UNL     1       9.590   0.665  23.941  0.00  0.00    +0.135 A 
ATOM     11  C   UNL     1       6.296   3.256  23.453  0.00  0.00    +0.181 A 
ENDROOT
BRANCH  11  12
ATOM     12  C   UNL     1       4.968   3.798  23.030  0.00  0.00    +0.025 A 
ATOM     13  C   UNL     1       4.751   5.112  22.607  0.00  0.00    +0.015 A 
ATOM     14  C   UNL     1       3.446   5.632  22.560  0.00  0.00    +0.050 A 
ATOM     15  C   UNL     1       2.363   4.844  22.935  0.00  0.00    +0.158 A 
ATOM     16  C   UNL     1       2.545   3.511  23.266  0.00  0.00    +0.159 A 
ATOM     17  C   UNL     1       3.826   2.983  23.288  0.00  0.00    +0.060 A 
BRANCH  16  18
ATOM     18  O   UNL     1       1.447   2.776  23.616  0.00  0.00    -0.503 OA
ATOM     19  H   UNL     1       1.742   1.885  23.874  0.00  0.00    +0.292 HD
ENDBRANCH  16  18
BRANCH  15  20
ATOM     20  O   UNL     1       1.114   5.394  23.013  0.00  0.00    -0.503 OA
ATOM     21  H   UNL     1       0.752   5.053  23.858  0.00  0.00    +0.292 HD
ENDBRANCH  15  20
ENDBRANCH  11  12
BRANCH  10  22
ATOM     22  O   UNL     1      10.841   1.057  24.323  0.00  0.00    -0.506 OA
ATOM     23  H   UNL     1      10.915   1.071  25.290  0.00  0.00    +0.292 HD
ENDBRANCH  10  22
BRANCH   7  24
ATOM     24  O   UNL     1       7.897  -2.491  23.094  0.00  0.00    -0.461 OA
BRANCH  24  25
ATOM     25  C   UNL     1       6.578  -3.006  23.398  0.00  0.00    +0.339 C 
ATOM     26  O   UNL     1       6.136  -2.769  24.739  0.00  0.00    -0.331 OA
ATOM     27  C   UNL     1       6.871  -3.479  25.746  0.00  0.00    +0.179 C 
ATOM     28  C   UNL     1       6.890  -5.002  25.494  0.00  0.00    +0.177 C 
ATOM     29  C   UNL     1       7.282  -5.350  24.060  0.00  0.00    +0.180 C 
ATOM     30  C   UNL     1       6.491  -4.509  23.065  0.00  0.00    +0.214 C 
BRANCH  30  31
ATOM     31  O   UNL     1       6.941  -4.796  21.735  0.00  0.00    -0.383 OA
ATOM     32  H   UNL     1       6.602  -5.681  21.501  0.00  0.00    +0.210 HD
ENDBRANCH  30  31
BRANCH  29  33
ATOM     33  O   UNL     1       8.696  -5.156  23.900  0.00  0.00    -0.386 OA
ATOM     34  H   UNL     1       8.787  -4.517  23.167  0.00  0.00    +0.210 HD
ENDBRANCH  29  33
BRANCH  28  35
ATOM     35  O   UNL     1       7.795  -5.643  26.404  0.00  0.00    -0.386 OA
ATOM     36  H   UNL     1       7.347  -6.480  26.659  0.00  0.00    +0.210 HD
ENDBRANCH  28  35
BRANCH  27  37
ATOM     37  C   UNL     1       6.193  -3.206  27.107  0.00  0.00    +0.190 C 
BRANCH  37  38
ATOM     38  O   UNL     1       5.409  -4.300  27.568  0.00  0.00    -0.392 OA
ATOM     39  H   UNL     1       4.661  -3.931  28.084  0.00  0.00    +0.210 HD
ENDBRANCH  37  38
ENDBRANCH  27  37
ENDBRANCH  24  25
ENDBRANCH   7  24
BRANCH   1  40
ATOM     40  O   UNL     1       7.092   5.004  24.866  0.00  0.00    -0.453 OA
BRANCH  40  44
ATOM     41  C   UNL     1       5.459   4.630  28.803  0.00  0.00    +0.181 C 
ATOM     42  C   UNL     1       5.396   6.013  28.099  0.00  0.00    +0.180 C 
ATOM     43  C   UNL     1       5.638   5.856  26.579  0.00  0.00    +0.214 C 
ATOM     44  C   UNL     1       6.958   5.081  26.302  0.00  0.00    +0.339 C 
ATOM     45  O   UNL     1       6.891   3.800  26.977  0.00  0.00    -0.334 OA
ATOM     46  C   UNL     1       6.825   3.997  28.406  0.00  0.00    +0.151 C 
ATOM     47  C   UNL     1       7.192   2.706  29.137  0.00  0.00    +0.041 C 
BRANCH  43  48
ATOM     48  O   UNL     1       4.515   5.184  25.969  0.00  0.00    -0.383 OA
ATOM     49  H   UNL     1       4.337   4.389  26.516  0.00  0.00    +0.210 HD
ENDBRANCH  43  48
BRANCH  42  50
ATOM     50  O   UNL     1       6.372   6.901  28.654  0.00  0.00    -0.386 OA
ATOM     51  H   UNL     1       6.013   7.243  29.494  0.00  0.00    +0.210 HD
ENDBRANCH  42  50
BRANCH  41  52
ATOM     52  O   UNL     1       4.280   3.938  28.368  0.00  0.00    -0.340 OA
BRANCH  52  56
ATOM     53  C   UNL     1       5.776   0.481  26.517  0.00  0.00    +0.041 C 
ATOM     54  C   UNL     1       4.315   0.919  26.368  0.00  0.00    +0.149 C 
ATOM     55  O   UNL     1       4.119   2.286  26.767  0.00  0.00    -0.343 OA
ATOM     56  C   UNL     1       4.330   2.533  28.164  0.00  0.00    +0.282 C 
ATOM     57  C   UNL     1       3.339   1.710  29.024  0.00  0.00    +0.201 C 
ATOM     58  C   UNL     1       3.442   0.224  28.645  0.00  0.00    +0.179 C 
ATOM     59  C   UNL     1       3.335   0.015  27.127  0.00  0.00    +0.174 C 
BRANCH  59  60
ATOM     60  O   UNL     1       1.984   0.323  26.735  0.00  0.00    -0.387 OA
ATOM     61  H   UNL     1       1.908   1.303  26.756  0.00  0.00    +0.210 HD
ENDBRANCH  59  60
BRANCH  58  62
ATOM     62  O   UNL     1       2.391  -0.497  29.307  0.00  0.00    -0.386 OA
ATOM     63  H   UNL     1       1.870   0.183  29.787  0.00  0.00    +0.210 HD
ENDBRANCH  58  62
BRANCH  57  64
ATOM     64  O   UNL     1       1.980   2.149  28.844  0.00  0.00    -0.384 OA
ATOM     65  H   UNL     1       1.423   1.455  29.254  0.00  0.00    +0.210 HD
ENDBRANCH  57  64
ENDBRANCH  52  56
ENDBRANCH  41  52
ENDBRANCH  40  44
ENDBRANCH   1  40
TORSDOF 20
ENDMDL
