MODEL 1
REMARK VINA RESULT:      -7.8      0.000      0.000
REMARK  Name = 
REMARK  12 active torsions:
REMARK  status: ('A' for Active; 'I' for Inactive)
REMARK    1  A    between atoms: C_1  and  C_2
REMARK    2  A    between atoms: C_3  and  O_36
REMARK    3  A    between atoms: C_5  and  O_35
REMARK    4  A    between atoms: C_7  and  O_34
REMARK    5  A    between atoms: C_8  and  O_11
REMARK    6  A    between atoms: O_11  and  C_12
REMARK    7  A    between atoms: C_14  and  O_33
REMARK    8  A    between atoms: C_19  and  C_25
REMARK    9  A    between atoms: C_20  and  O_23
REMARK   10  A    between atoms: O_23  and  C_24
REMARK   11  A    between atoms: C_27  and  O_32
REMARK   12  A    between atoms: C_28  and  O_31
REMARK                            x       y       z     vdW  Elec       q    Type
REMARK                         _______ _______ _______ _____ _____    ______ ____
ROOT
ATOM      1  C   UNL     1       7.092   1.026  23.005  0.00  0.00    +0.131 A 
ATOM      2  C   UNL     1       6.469  -0.131  23.477  0.00  0.00    +0.093 A 
ATOM      3  C   UNL     1       7.224  -1.303  23.666  0.00  0.00    +0.147 A 
ATOM      4  O   UNL     1       6.548  -2.402  24.138  0.00  0.00    -0.451 OA
ATOM      5  C   UNL     1       7.249  -3.576  24.363  0.00  0.00    +0.181 A 
ATOM      6  C   UNL     1       8.563  -3.760  24.122  0.00  0.00    +0.211 A 
ATOM      7  C   UNL     1       9.323  -2.596  23.564  0.00  0.00    +0.238 A 
ATOM      8  O   UNL     1      10.511  -2.677  23.259  0.00  0.00    -0.283 OA
ATOM      9  C   UNL     1       8.586  -1.325  23.376  0.00  0.00    +0.109 A 
ATOM     10  C   UNL     1       9.200  -0.157  22.900  0.00  0.00    +0.135 A 
ATOM     11  C   UNL     1       8.454   1.005  22.708  0.00  0.00    +0.092 A 
ENDROOT
BRANCH   5  12
ATOM     12  C   UNL     1       6.396  -4.648  24.928  0.00  0.00    +0.025 A 
ATOM     13  C   UNL     1       6.202  -4.733  26.319  0.00  0.00    +0.015 A 
ATOM     14  C   UNL     1       5.365  -5.709  26.871  0.00  0.00    +0.050 A 
ATOM     15  C   UNL     1       4.721  -6.602  26.028  0.00  0.00    +0.158 A 
ATOM     16  C   UNL     1       4.917  -6.547  24.652  0.00  0.00    +0.159 A 
ATOM     17  C   UNL     1       5.753  -5.578  24.093  0.00  0.00    +0.060 A 
BRANCH  15  18
ATOM     18  O   UNL     1       3.882  -7.540  26.566  0.00  0.00    -0.503 OA
ATOM     19  H   UNL     1       4.132  -8.377  26.123  0.00  0.00    +0.292 HD
ENDBRANCH  15  18
BRANCH  16  20
ATOM     20  O   UNL     1       4.257  -7.469  23.887  0.00  0.00    -0.503 OA
ATOM     21  H   UNL     1       4.324  -8.335  24.325  0.00  0.00    +0.292 HD
ENDBRANCH  16  20
ENDBRANCH   5  12
BRANCH   6  22
ATOM     22  O   UNL     1       9.147  -4.996  24.385  0.00  0.00    -0.488 OA
ATOM     23  C   UNL     1       9.896  -5.148  25.587  0.00  0.00    +0.277 C 
ENDBRANCH   6  22
BRANCH  10  24
ATOM     24  O   UNL     1      10.535  -0.120  22.620  0.00  0.00    -0.506 OA
ATOM     25  H   UNL     1      10.687  -0.034  21.665  0.00  0.00    +0.292 HD
ENDBRANCH  10  24
BRANCH   1  26
ATOM     26  O   UNL     1       6.487   2.226  22.753  0.00  0.00    -0.461 OA
BRANCH  26  30
ATOM     27  C   UNL     1       9.403   4.871  24.517  0.00  0.00    +0.041 C 
ATOM     28  C   UNL     1       7.894   5.093  24.538  0.00  0.00    +0.150 C 
ATOM     29  O   UNL     1       7.213   3.856  24.268  0.00  0.00    -0.334 OA
ATOM     30  C   UNL     1       7.283   3.408  22.911  0.00  0.00    +0.339 C 
ATOM     31  C   UNL     1       6.668   4.478  21.979  0.00  0.00    +0.214 C 
ATOM     32  C   UNL     1       7.477   5.774  22.131  0.00  0.00    +0.180 C 
ATOM     33  C   UNL     1       7.459   6.238  23.599  0.00  0.00    +0.174 C 
BRANCH  31  34
ATOM     34  O   UNL     1       5.291   4.717  22.359  0.00  0.00    -0.383 OA
ATOM     35  H   UNL     1       5.047   5.580  21.967  0.00  0.00    +0.210 HD
ENDBRANCH  31  34
BRANCH  32  36
ATOM     36  O   UNL     1       7.000   6.783  21.236  0.00  0.00    -0.386 OA
ATOM     37  H   UNL     1       6.503   6.343  20.523  0.00  0.00    +0.210 HD
ENDBRANCH  32  36
BRANCH  33  38
ATOM     38  O   UNL     1       6.150   6.696  23.966  0.00  0.00    -0.387 OA
ATOM     39  H   UNL     1       5.971   6.356  24.872  0.00  0.00    +0.210 HD
ENDBRANCH  33  38
ENDBRANCH  26  30
ENDBRANCH   1  26
TORSDOF 10
ENDMDL
MODEL 2
REMARK VINA RESULT:      -7.6      2.027      9.245
REMARK  Name = 
REMARK  12 active torsions:
REMARK  status: ('A' for Active; 'I' for Inactive)
REMARK    1  A    between atoms: C_1  and  C_2
REMARK    2  A    between atoms: C_3  and  O_36
REMARK    3  A    between atoms: C_5  and  O_35
REMARK    4  A    between atoms: C_7  and  O_34
REMARK    5  A    between atoms: C_8  and  O_11
REMARK    6  A    between atoms: O_11  and  C_12
REMARK    7  A    between atoms: C_14  and  O_33
REMARK    8  A    between atoms: C_19  and  C_25
REMARK    9  A    between atoms: C_20  and  O_23
REMARK   10  A    between atoms: O_23  and  C_24
REMARK   11  A    between atoms: C_27  and  O_32
REMARK   12  A    between atoms: C_28  and  O_31
REMARK                            x       y       z     vdW  Elec       q    Type
REMARK                         _______ _______ _______ _____ _____    ______ ____
ROOT
ATOM      1  C   UNL     1       7.434  -4.487  27.078  0.00  0.00    +0.131 A 
ATOM      2  C   UNL     1       7.132  -3.159  26.771  0.00  0.00    +0.093 A 
ATOM      3  C   UNL     1       7.852  -2.494  25.762  0.00  0.00    +0.147 A 
ATOM      4  O   UNL     1       7.497  -1.190  25.509  0.00  0.00    -0.451 OA
ATOM      5  C   UNL     1       8.160  -0.497  24.509  0.00  0.00    +0.181 A 
ATOM      6  C   UNL     1       9.175  -0.980  23.763  0.00  0.00    +0.211 A 
ATOM      7  C   UNL     1       9.618  -2.383  24.042  0.00  0.00    +0.238 A 
ATOM      8  O   UNL     1      10.568  -2.897  23.456  0.00  0.00    -0.283 OA
ATOM      9  C   UNL     1       8.872  -3.143  25.072  0.00  0.00    +0.109 A 
ATOM     10  C   UNL     1       9.170  -4.476  25.391  0.00  0.00    +0.135 A 
ATOM     11  C   UNL     1       8.460  -5.137  26.392  0.00  0.00    +0.092 A 
ENDROOT
BRANCH   5  12
ATOM     12  C   UNL     1       7.625   0.872  24.316  0.00  0.00    +0.025 A 
ATOM     13  C   UNL     1       8.260   1.967  24.929  0.00  0.00    +0.015 A 
ATOM     14  C   UNL     1       7.799   3.273  24.724  0.00  0.00    +0.050 A 
ATOM     15  C   UNL     1       6.700   3.481  23.904  0.00  0.00    +0.158 A 
ATOM     16  C   UNL     1       6.047   2.409  23.307  0.00  0.00    +0.159 A 
ATOM     17  C   UNL     1       6.498   1.102  23.508  0.00  0.00    +0.060 A 
BRANCH  15  18
ATOM     18  O   UNL     1       6.267   4.760  23.683  0.00  0.00    -0.503 OA
ATOM     19  H   UNL     1       7.081   5.302  23.694  0.00  0.00    +0.292 HD
ENDBRANCH  15  18
BRANCH  16  20
ATOM     20  O   UNL     1       4.964   2.692  22.521  0.00  0.00    -0.503 OA
ATOM     21  H   UNL     1       5.281   3.118  21.706  0.00  0.00    +0.292 HD
ENDBRANCH  16  20
ENDBRANCH   5  12
BRANCH   6  22
ATOM     22  O   UNL     1       9.763  -0.174  22.793  0.00  0.00    -0.488 OA
ATOM     23  C   UNL     1       9.400  -0.381  21.431  0.00  0.00    +0.277 C 
ENDBRANCH   6  22
BRANCH  10  24
ATOM     24  O   UNL     1      10.146  -5.165  24.731  0.00  0.00    -0.506 OA
ATOM     25  H   UNL     1      10.963  -5.194  25.255  0.00  0.00    +0.292 HD
ENDBRANCH  10  24
BRANCH   1  26
ATOM     26  O   UNL     1       6.839  -5.251  28.042  0.00  0.00    -0.461 OA
BRANCH  26  30
ATOM     27  C   UNL     1       2.886  -4.037  29.271  0.00  0.00    +0.041 C 
ATOM     28  C   UNL     1       3.549  -5.361  29.639  0.00  0.00    +0.150 C 
ATOM     29  O   UNL     1       4.971  -5.265  29.453  0.00  0.00    -0.334 OA
ATOM     30  C   UNL     1       5.406  -5.249  28.090  0.00  0.00    +0.339 C 
ATOM     31  C   UNL     1       4.942  -6.544  27.383  0.00  0.00    +0.214 C 
ATOM     32  C   UNL     1       3.408  -6.596  27.429  0.00  0.00    +0.180 C 
ATOM     33  C   UNL     1       2.923  -6.555  28.890  0.00  0.00    +0.174 C 
BRANCH  31  34
ATOM     34  O   UNL     1       5.489  -7.695  28.072  0.00  0.00    -0.383 OA
ATOM     35  H   UNL     1       6.127  -8.104  27.453  0.00  0.00    +0.210 HD
ENDBRANCH  31  34
BRANCH  32  36
ATOM     36  O   UNL     1       2.914  -7.738  26.724  0.00  0.00    -0.386 OA
ATOM     37  H   UNL     1       3.421  -8.517  27.017  0.00  0.00    +0.210 HD
ENDBRANCH  32  36
BRANCH  33  38
ATOM     38  O   UNL     1       3.252  -7.778  29.564  0.00  0.00    -0.387 OA
ATOM     39  H   UNL     1       4.218  -7.753  29.748  0.00  0.00    +0.210 HD
ENDBRANCH  33  38
ENDBRANCH  26  30
ENDBRANCH   1  26
TORSDOF 10
ENDMDL
MODEL 3
REMARK VINA RESULT:      -7.5      0.943      1.487
REMARK  Name = 
REMARK  12 active torsions:
REMARK  status: ('A' for Active; 'I' for Inactive)
REMARK    1  A    between atoms: C_1  and  C_2
REMARK    2  A    between atoms: C_3  and  O_36
REMARK    3  A    between atoms: C_5  and  O_35
REMARK    4  A    between atoms: C_7  and  O_34
REMARK    5  A    between atoms: C_8  and  O_11
REMARK    6  A    between atoms: O_11  and  C_12
REMARK    7  A    between atoms: C_14  and  O_33
REMARK    8  A    between atoms: C_19  and  C_25
REMARK    9  A    between atoms: C_20  and  O_23
REMARK   10  A    between atoms: O_23  and  C_24
REMARK   11  A    between atoms: C_27  and  O_32
REMARK   12  A    between atoms: C_28  and  O_31
REMARK                            x       y       z     vdW  Elec       q    Type
REMARK                         _______ _______ _______ _____ _____    ______ ____
ROOT
ATOM      1  C   UNL     1       7.165   1.233  23.435  0.00  0.00    +0.131 A 
ATOM      2  C   UNL     1       6.638   0.113  24.081  0.00  0.00    +0.093 A 
ATOM      3  C   UNL     1       7.374  -1.085  24.116  0.00  0.00    +0.147 A 
ATOM      4  O   UNL     1       6.797  -2.144  24.774  0.00  0.00    -0.451 OA
ATOM      5  C   UNL     1       7.490  -3.341  24.858  0.00  0.00    +0.181 A 
ATOM      6  C   UNL     1       8.697  -3.585  24.307  0.00  0.00    +0.211 A 
ATOM      7  C   UNL     1       9.337  -2.466  23.543  0.00  0.00    +0.238 A 
ATOM      8  O   UNL     1      10.409  -2.603  22.959  0.00  0.00    -0.283 OA
ATOM      9  C   UNL     1       8.621  -1.170  23.502  0.00  0.00    +0.109 A 
ATOM     10  C   UNL     1       9.139  -0.040  22.853  0.00  0.00    +0.135 A 
ATOM     11  C   UNL     1       8.411   1.148  22.814  0.00  0.00    +0.092 A 
ENDROOT
BRANCH   5  12
ATOM     12  C   UNL     1       6.766  -4.364  25.647  0.00  0.00    +0.025 A 
ATOM     13  C   UNL     1       5.890  -5.257  25.005  0.00  0.00    +0.015 A 
ATOM     14  C   UNL     1       5.229  -6.261  25.724  0.00  0.00    +0.050 A 
ATOM     15  C   UNL     1       5.447  -6.369  27.089  0.00  0.00    +0.158 A 
ATOM     16  C   UNL     1       6.293  -5.481  27.745  0.00  0.00    +0.159 A 
ATOM     17  C   UNL     1       6.954  -4.475  27.036  0.00  0.00    +0.060 A 
BRANCH  15  18
ATOM     18  O   UNL     1       4.823  -7.366  27.787  0.00  0.00    -0.503 OA
ATOM     19  H   UNL     1       4.650  -6.978  28.669  0.00  0.00    +0.292 HD
ENDBRANCH  15  18
BRANCH  16  20
ATOM     20  O   UNL     1       6.450  -5.644  29.095  0.00  0.00    -0.503 OA
ATOM     21  H   UNL     1       7.196  -6.248  29.245  0.00  0.00    +0.292 HD
ENDBRANCH  16  20
ENDBRANCH   5  12
BRANCH   6  22
ATOM     22  O   UNL     1       9.284  -4.838  24.457  0.00  0.00    -0.488 OA
ATOM     23  C   UNL     1      10.178  -5.039  25.548  0.00  0.00    +0.277 C 
ENDBRANCH   6  22
BRANCH  10  24
ATOM     24  O   UNL     1      10.365  -0.064  22.253  0.00  0.00    -0.506 OA
ATOM     25  H   UNL     1      10.388  -0.720  21.538  0.00  0.00    +0.292 HD
ENDBRANCH  10  24
BRANCH   1  26
ATOM     26  O   UNL     1       6.559   2.451  23.301  0.00  0.00    -0.461 OA
BRANCH  26  30
ATOM     27  C   UNL     1       9.885   5.085  24.081  0.00  0.00    +0.041 C 
ATOM     28  C   UNL     1       8.427   5.397  24.406  0.00  0.00    +0.150 C 
ATOM     29  O   UNL     1       7.661   4.181  24.430  0.00  0.00    -0.334 OA
ATOM     30  C   UNL     1       7.410   3.594  23.149  0.00  0.00    +0.339 C 
ATOM     31  C   UNL     1       6.641   4.598  22.260  0.00  0.00    +0.214 C 
ATOM     32  C   UNL     1       7.508   5.854  22.087  0.00  0.00    +0.180 C 
ATOM     33  C   UNL     1       7.834   6.463  23.462  0.00  0.00    +0.174 C 
BRANCH  31  34
ATOM     34  O   UNL     1       5.392   4.955  22.902  0.00  0.00    -0.383 OA
ATOM     35  H   UNL     1       4.900   5.499  22.255  0.00  0.00    +0.210 HD
ENDBRANCH  31  34
BRANCH  32  36
ATOM     36  O   UNL     1       6.880   6.793  21.211  0.00  0.00    -0.386 OA
ATOM     37  H   UNL     1       5.919   6.626  21.227  0.00  0.00    +0.210 HD
ENDBRANCH  32  36
BRANCH  33  38
ATOM     38  O   UNL     1       6.656   7.033  24.052  0.00  0.00    -0.387 OA
ATOM     39  H   UNL     1       6.500   6.555  24.897  0.00  0.00    +0.210 HD
ENDBRANCH  33  38
ENDBRANCH  26  30
ENDBRANCH   1  26
TORSDOF 10
ENDMDL
MODEL 4
REMARK VINA RESULT:      -7.2      1.600      9.146
REMARK  Name = 
REMARK  12 active torsions:
REMARK  status: ('A' for Active; 'I' for Inactive)
REMARK    1  A    between atoms: C_1  and  C_2
REMARK    2  A    between atoms: C_3  and  O_36
REMARK    3  A    between atoms: C_5  and  O_35
REMARK    4  A    between atoms: C_7  and  O_34
REMARK    5  A    between atoms: C_8  and  O_11
REMARK    6  A    between atoms: O_11  and  C_12
REMARK    7  A    between atoms: C_14  and  O_33
REMARK    8  A    between atoms: C_19  and  C_25
REMARK    9  A    between atoms: C_20  and  O_23
REMARK   10  A    between atoms: O_23  and  C_24
REMARK   11  A    between atoms: C_27  and  O_32
REMARK   12  A    between atoms: C_28  and  O_31
REMARK                            x       y       z     vdW  Elec       q    Type
REMARK                         _______ _______ _______ _____ _____    ______ ____
ROOT
ATOM      1  C   UNL     1       6.836  -2.937  22.996  0.00  0.00    +0.131 A 
ATOM      2  C   UNL     1       6.454  -1.596  23.058  0.00  0.00    +0.093 A 
ATOM      3  C   UNL     1       7.411  -0.609  23.357  0.00  0.00    +0.147 A 
ATOM      4  O   UNL     1       6.966   0.690  23.395  0.00  0.00    -0.451 OA
ATOM      5  C   UNL     1       7.872   1.703  23.662  0.00  0.00    +0.181 A 
ATOM      6  C   UNL     1       9.182   1.528  23.933  0.00  0.00    +0.211 A 
ATOM      7  C   UNL     1       9.694   0.120  23.944  0.00  0.00    +0.238 A 
ATOM      8  O   UNL     1      10.858  -0.150  24.232  0.00  0.00    -0.283 OA
ATOM      9  C   UNL     1       8.736  -0.958  23.602  0.00  0.00    +0.109 A 
ATOM     10  C   UNL     1       9.109  -2.309  23.541  0.00  0.00    +0.135 A 
ATOM     11  C   UNL     1       8.162  -3.289  23.248  0.00  0.00    +0.092 A 
ENDROOT
BRANCH   5  12
ATOM     12  C   UNL     1       7.254   3.048  23.609  0.00  0.00    +0.025 A 
ATOM     13  C   UNL     1       6.500   3.519  24.699  0.00  0.00    +0.015 A 
ATOM     14  C   UNL     1       5.945   4.804  24.690  0.00  0.00    +0.050 A 
ATOM     15  C   UNL     1       6.145   5.618  23.586  0.00  0.00    +0.158 A 
ATOM     16  C   UNL     1       6.869   5.162  22.490  0.00  0.00    +0.159 A 
ATOM     17  C   UNL     1       7.425   3.881  22.490  0.00  0.00    +0.060 A 
BRANCH  15  18
ATOM     18  O   UNL     1       5.625   6.884  23.588  0.00  0.00    -0.503 OA
ATOM     19  H   UNL     1       5.518   7.105  24.536  0.00  0.00    +0.292 HD
ENDBRANCH  15  18
BRANCH  16  20
ATOM     20  O   UNL     1       7.015   6.020  21.433  0.00  0.00    -0.503 OA
ATOM     21  H   UNL     1       7.068   5.493  20.617  0.00  0.00    +0.292 HD
ENDBRANCH  16  20
ENDBRANCH   5  12
BRANCH   6  22
ATOM     22  O   UNL     1       9.987   2.633  24.194  0.00  0.00    -0.488 OA
ATOM     23  C   UNL     1      10.910   3.049  23.192  0.00  0.00    +0.277 C 
ENDBRANCH   6  22
BRANCH  10  24
ATOM     24  O   UNL     1      10.399  -2.701  23.754  0.00  0.00    -0.506 OA
ATOM     25  H   UNL     1      11.015  -2.166  23.229  0.00  0.00    +0.292 HD
ENDBRANCH  10  24
BRANCH   1  26
ATOM     26  O   UNL     1       6.019  -4.002  22.740  0.00  0.00    -0.461 OA
BRANCH  26  30
ATOM     27  C   UNL     1       5.218  -5.425  26.733  0.00  0.00    +0.041 C 
ATOM     28  C   UNL     1       5.235  -6.296  25.480  0.00  0.00    +0.150 C 
ATOM     29  O   UNL     1       5.944  -5.624  24.426  0.00  0.00    -0.334 OA
ATOM     30  C   UNL     1       5.253  -4.520  23.836  0.00  0.00    +0.339 C 
ATOM     31  C   UNL     1       3.911  -5.006  23.241  0.00  0.00    +0.214 C 
ATOM     32  C   UNL     1       3.062  -5.591  24.379  0.00  0.00    +0.180 C 
ATOM     33  C   UNL     1       3.819  -6.744  25.062  0.00  0.00    +0.174 C 
BRANCH  31  34
ATOM     34  O   UNL     1       4.164  -6.029  22.248  0.00  0.00    -0.383 OA
ATOM     35  H   UNL     1       5.084  -6.328  22.394  0.00  0.00    +0.210 HD
ENDBRANCH  31  34
BRANCH  32  36
ATOM     36  O   UNL     1       1.774  -5.992  23.903  0.00  0.00    -0.386 OA
ATOM     37  H   UNL     1       1.312  -5.198  23.576  0.00  0.00    +0.210 HD
ENDBRANCH  32  36
BRANCH  33  38
ATOM     38  O   UNL     1       3.907  -7.878  24.186  0.00  0.00    -0.387 OA
ATOM     39  H   UNL     1       4.840  -8.186  24.211  0.00  0.00    +0.210 HD
ENDBRANCH  33  38
ENDBRANCH  26  30
ENDBRANCH   1  26
TORSDOF 10
ENDMDL
MODEL 5
REMARK VINA RESULT:      -7.1      1.190      1.541
REMARK  Name = 
REMARK  12 active torsions:
REMARK  status: ('A' for Active; 'I' for Inactive)
REMARK    1  A    between atoms: C_1  and  C_2
REMARK    2  A    between atoms: C_3  and  O_36
REMARK    3  A    between atoms: C_5  and  O_35
REMARK    4  A    between atoms: C_7  and  O_34
REMARK    5  A    between atoms: C_8  and  O_11
REMARK    6  A    between atoms: O_11  and  C_12
REMARK    7  A    between atoms: C_14  and  O_33
REMARK    8  A    between atoms: C_19  and  C_25
REMARK    9  A    between atoms: C_20  and  O_23
REMARK   10  A    between atoms: O_23  and  C_24
REMARK   11  A    between atoms: C_27  and  O_32
REMARK   12  A    between atoms: C_28  and  O_31
REMARK                            x       y       z     vdW  Elec       q    Type
REMARK                         _______ _______ _______ _____ _____    ______ ____
ROOT
ATOM      1  C   UNL     1       7.082   0.920  22.622  0.00  0.00    +0.131 A 
ATOM      2  C   UNL     1       6.461  -0.221  23.134  0.00  0.00    +0.093 A 
ATOM      3  C   UNL     1       7.227  -1.366  23.419  0.00  0.00    +0.147 A 
ATOM      4  O   UNL     1       6.552  -2.449  23.928  0.00  0.00    -0.451 OA
ATOM      5  C   UNL     1       7.263  -3.594  24.247  0.00  0.00    +0.181 A 
ATOM      6  C   UNL     1       8.589  -3.766  24.068  0.00  0.00    +0.211 A 
ATOM      7  C   UNL     1       9.351  -2.621  23.475  0.00  0.00    +0.238 A 
ATOM      8  O   UNL     1      10.551  -2.696  23.222  0.00  0.00    -0.283 OA
ATOM      9  C   UNL     1       8.600  -1.377  23.186  0.00  0.00    +0.109 A 
ATOM     10  C   UNL     1       9.213  -0.227  22.667  0.00  0.00    +0.135 A 
ATOM     11  C   UNL     1       8.456   0.908  22.380  0.00  0.00    +0.092 A 
ENDROOT
BRANCH   5  12
ATOM     12  C   UNL     1       6.407  -4.649  24.838  0.00  0.00    +0.025 A 
ATOM     13  C   UNL     1       6.215  -4.700  26.231  0.00  0.00    +0.015 A 
ATOM     14  C   UNL     1       5.375  -5.659  26.808  0.00  0.00    +0.050 A 
ATOM     15  C   UNL     1       4.726  -6.570  25.987  0.00  0.00    +0.158 A 
ATOM     16  C   UNL     1       4.921  -6.549  24.610  0.00  0.00    +0.159 A 
ATOM     17  C   UNL     1       5.759  -5.596  24.027  0.00  0.00    +0.060 A 
BRANCH  15  18
ATOM     18  O   UNL     1       3.884  -7.491  26.548  0.00  0.00    -0.503 OA
ATOM     19  H   UNL     1       3.270  -6.961  27.097  0.00  0.00    +0.292 HD
ENDBRANCH  15  18
BRANCH  16  20
ATOM     20  O   UNL     1       4.255  -7.486  23.868  0.00  0.00    -0.503 OA
ATOM     21  H   UNL     1       3.644  -7.963  24.455  0.00  0.00    +0.292 HD
ENDBRANCH  16  20
ENDBRANCH   5  12
BRANCH   6  22
ATOM     22  O   UNL     1       9.184  -4.973  24.424  0.00  0.00    -0.488 OA
ATOM     23  C   UNL     1       9.885  -5.042  25.662  0.00  0.00    +0.277 C 
ENDBRANCH   6  22
BRANCH  10  24
ATOM     24  O   UNL     1      10.557  -0.179  22.439  0.00  0.00    -0.506 OA
ATOM     25  H   UNL     1      10.856   0.737  22.318  0.00  0.00    +0.292 HD
ENDBRANCH  10  24
BRANCH   1  26
ATOM     26  O   UNL     1       6.468   2.091  22.277  0.00  0.00    -0.461 OA
BRANCH  26  30
ATOM     27  C   UNL     1       4.240   3.764  25.571  0.00  0.00    +0.041 C 
ATOM     28  C   UNL     1       4.357   4.392  24.185  0.00  0.00    +0.150 C 
ATOM     29  O   UNL     1       4.779   3.401  23.233  0.00  0.00    -0.334 OA
ATOM     30  C   UNL     1       6.149   3.002  23.337  0.00  0.00    +0.339 C 
ATOM     31  C   UNL     1       7.064   4.234  23.145  0.00  0.00    +0.214 C 
ATOM     32  C   UNL     1       6.742   5.251  24.250  0.00  0.00    +0.180 C 
ATOM     33  C   UNL     1       5.256   5.646  24.187  0.00  0.00    +0.174 C 
BRANCH  31  34
ATOM     34  O   UNL     1       6.810   4.828  21.849  0.00  0.00    -0.383 OA
ATOM     35  H   UNL     1       7.508   5.502  21.718  0.00  0.00    +0.210 HD
ENDBRANCH  31  34
BRANCH  32  36
ATOM     36  O   UNL     1       7.610   6.385  24.170  0.00  0.00    -0.386 OA
ATOM     37  H   UNL     1       7.965   6.431  23.263  0.00  0.00    +0.210 HD
ENDBRANCH  32  36
BRANCH  33  38
ATOM     38  O   UNL     1       4.993   6.433  23.016  0.00  0.00    -0.387 OA
ATOM     39  H   UNL     1       4.096   6.183  22.699  0.00  0.00    +0.210 HD
ENDBRANCH  33  38
ENDBRANCH  26  30
ENDBRANCH   1  26
TORSDOF 10
ENDMDL
MODEL 6
REMARK VINA RESULT:      -6.9      1.461      1.722
REMARK  Name = 
REMARK  12 active torsions:
REMARK  status: ('A' for Active; 'I' for Inactive)
REMARK    1  A    between atoms: C_1  and  C_2
REMARK    2  A    between atoms: C_3  and  O_36
REMARK    3  A    between atoms: C_5  and  O_35
REMARK    4  A    between atoms: C_7  and  O_34
REMARK    5  A    between atoms: C_8  and  O_11
REMARK    6  A    between atoms: O_11  and  C_12
REMARK    7  A    between atoms: C_14  and  O_33
REMARK    8  A    between atoms: C_19  and  C_25
REMARK    9  A    between atoms: C_20  and  O_23
REMARK   10  A    between atoms: O_23  and  C_24
REMARK   11  A    between atoms: C_27  and  O_32
REMARK   12  A    between atoms: C_28  and  O_31
REMARK                            x       y       z     vdW  Elec       q    Type
REMARK                         _______ _______ _______ _____ _____    ______ ____
ROOT
ATOM      1  C   UNL     1       7.097   0.871  22.611  0.00  0.00    +0.131 A 
ATOM      2  C   UNL     1       6.471  -0.270  23.117  0.00  0.00    +0.093 A 
ATOM      3  C   UNL     1       7.235  -1.414  23.411  0.00  0.00    +0.147 A 
ATOM      4  O   UNL     1       6.555  -2.498  23.912  0.00  0.00    -0.451 OA
ATOM      5  C   UNL     1       7.264  -3.643  24.239  0.00  0.00    +0.181 A 
ATOM      6  C   UNL     1       8.592  -3.813  24.074  0.00  0.00    +0.211 A 
ATOM      7  C   UNL     1       9.359  -2.668  23.488  0.00  0.00    +0.238 A 
ATOM      8  O   UNL     1      10.562  -2.742  23.248  0.00  0.00    -0.283 OA
ATOM      9  C   UNL     1       8.610  -1.425  23.191  0.00  0.00    +0.109 A 
ATOM     10  C   UNL     1       9.228  -0.274  22.679  0.00  0.00    +0.135 A 
ATOM     11  C   UNL     1       8.473   0.860  22.384  0.00  0.00    +0.092 A 
ENDROOT
BRANCH   5  12
ATOM     12  C   UNL     1       6.403  -4.698  24.821  0.00  0.00    +0.025 A 
ATOM     13  C   UNL     1       6.218  -4.765  26.214  0.00  0.00    +0.015 A 
ATOM     14  C   UNL     1       5.374  -5.726  26.784  0.00  0.00    +0.050 A 
ATOM     15  C   UNL     1       4.712  -6.620  25.955  0.00  0.00    +0.158 A 
ATOM     16  C   UNL     1       4.899  -6.582  24.578  0.00  0.00    +0.159 A 
ATOM     17  C   UNL     1       5.742  -5.629  24.002  0.00  0.00    +0.060 A 
BRANCH  15  18
ATOM     18  O   UNL     1       3.866  -7.541  26.509  0.00  0.00    -0.503 OA
ATOM     19  H   UNL     1       3.962  -7.414  27.475  0.00  0.00    +0.292 HD
ENDBRANCH  15  18
BRANCH  16  20
ATOM     20  O   UNL     1       4.221  -7.503  23.827  0.00  0.00    -0.503 OA
ATOM     21  H   UNL     1       3.268  -7.329  23.915  0.00  0.00    +0.292 HD
ENDBRANCH  16  20
ENDBRANCH   5  12
BRANCH   6  22
ATOM     22  O   UNL     1       9.183  -5.020  24.436  0.00  0.00    -0.488 OA
ATOM     23  C   UNL     1       9.891  -5.083  25.671  0.00  0.00    +0.277 C 
ENDBRANCH   6  22
BRANCH  10  24
ATOM     24  O   UNL     1      10.575  -0.226  22.464  0.00  0.00    -0.506 OA
ATOM     25  H   UNL     1      10.881   0.693  22.395  0.00  0.00    +0.292 HD
ENDBRANCH  10  24
BRANCH   1  26
ATOM     26  O   UNL     1       6.485   2.042  22.260  0.00  0.00    -0.461 OA
BRANCH  26  30
ATOM     27  C   UNL     1       7.748   4.433  25.621  0.00  0.00    +0.041 C 
ATOM     28  C   UNL     1       6.594   3.435  25.642  0.00  0.00    +0.150 C 
ATOM     29  O   UNL     1       6.719   2.520  24.540  0.00  0.00    -0.334 OA
ATOM     30  C   UNL     1       6.421   3.072  23.254  0.00  0.00    +0.339 C 
ATOM     31  C   UNL     1       4.969   3.603  23.241  0.00  0.00    +0.214 C 
ATOM     32  C   UNL     1       4.845   4.700  24.309  0.00  0.00    +0.180 C 
ATOM     33  C   UNL     1       5.219   4.134  25.691  0.00  0.00    +0.174 C 
BRANCH  31  34
ATOM     34  O   UNL     1       4.055   2.522  23.547  0.00  0.00    -0.383 OA
ATOM     35  H   UNL     1       4.351   2.150  24.403  0.00  0.00    +0.210 HD
ENDBRANCH  31  34
BRANCH  32  36
ATOM     36  O   UNL     1       3.539   5.283  24.296  0.00  0.00    -0.386 OA
ATOM     37  H   UNL     1       3.504   5.927  23.564  0.00  0.00    +0.210 HD
ENDBRANCH  32  36
BRANCH  33  38
ATOM     38  O   UNL     1       4.220   3.208  26.143  0.00  0.00    -0.387 OA
ATOM     39  H   UNL     1       4.108   2.539  25.432  0.00  0.00    +0.210 HD
ENDBRANCH  33  38
ENDBRANCH  26  30
ENDBRANCH   1  26
TORSDOF 10
ENDMDL
MODEL 7
REMARK VINA RESULT:      -6.8      1.832      2.412
REMARK  Name = 
REMARK  12 active torsions:
REMARK  status: ('A' for Active; 'I' for Inactive)
REMARK    1  A    between atoms: C_1  and  C_2
REMARK    2  A    between atoms: C_3  and  O_36
REMARK    3  A    between atoms: C_5  and  O_35
REMARK    4  A    between atoms: C_7  and  O_34
REMARK    5  A    between atoms: C_8  and  O_11
REMARK    6  A    between atoms: O_11  and  C_12
REMARK    7  A    between atoms: C_14  and  O_33
REMARK    8  A    between atoms: C_19  and  C_25
REMARK    9  A    between atoms: C_20  and  O_23
REMARK   10  A    between atoms: O_23  and  C_24
REMARK   11  A    between atoms: C_27  and  O_32
REMARK   12  A    between atoms: C_28  and  O_31
REMARK                            x       y       z     vdW  Elec       q    Type
REMARK                         _______ _______ _______ _____ _____    ______ ____
ROOT
ATOM      1  C   UNL     1       8.242   1.095  22.393  0.00  0.00    +0.131 A 
ATOM      2  C   UNL     1       7.133   0.272  22.599  0.00  0.00    +0.093 A 
ATOM      3  C   UNL     1       7.314  -1.038  23.079  0.00  0.00    +0.147 A 
ATOM      4  O   UNL     1       6.178  -1.789  23.264  0.00  0.00    -0.451 OA
ATOM      5  C   UNL     1       6.299  -3.078  23.757  0.00  0.00    +0.181 A 
ATOM      6  C   UNL     1       7.461  -3.698  24.047  0.00  0.00    +0.211 A 
ATOM      7  C   UNL     1       8.723  -2.925  23.815  0.00  0.00    +0.238 A 
ATOM      8  O   UNL     1       9.834  -3.418  23.996  0.00  0.00    -0.283 OA
ATOM      9  C   UNL     1       8.591  -1.527  23.341  0.00  0.00    +0.109 A 
ATOM     10  C   UNL     1       9.698  -0.694  23.128  0.00  0.00    +0.135 A 
ATOM     11  C   UNL     1       9.523   0.604  22.649  0.00  0.00    +0.092 A 
ENDROOT
BRANCH   5  12
ATOM     12  C   UNL     1       4.986  -3.735  23.958  0.00  0.00    +0.025 A 
ATOM     13  C   UNL     1       4.126  -3.289  24.978  0.00  0.00    +0.015 A 
ATOM     14  C   UNL     1       2.863  -3.865  25.158  0.00  0.00    +0.050 A 
ATOM     15  C   UNL     1       2.461  -4.889  24.313  0.00  0.00    +0.158 A 
ATOM     16  C   UNL     1       3.306  -5.357  23.313  0.00  0.00    +0.159 A 
ATOM     17  C   UNL     1       4.569  -4.790  23.128  0.00  0.00    +0.060 A 
BRANCH  15  18
ATOM     18  O   UNL     1       1.215  -5.433  24.472  0.00  0.00    -0.503 OA
ATOM     19  H   UNL     1       0.617  -4.662  24.549  0.00  0.00    +0.292 HD
ENDBRANCH  15  18
BRANCH  16  20
ATOM     20  O   UNL     1       2.843  -6.377  22.527  0.00  0.00    -0.503 OA
ATOM     21  H   UNL     1       3.506  -7.088  22.527  0.00  0.00    +0.292 HD
ENDBRANCH  16  20
ENDBRANCH   5  12
BRANCH   6  22
ATOM     22  O   UNL     1       7.445  -5.004  24.529  0.00  0.00    -0.488 OA
ATOM     23  C   UNL     1       7.625  -5.210  25.928  0.00  0.00    +0.277 C 
ENDBRANCH   6  22
BRANCH  10  24
ATOM     24  O   UNL     1      10.969  -1.118  23.388  0.00  0.00    -0.506 OA
ATOM     25  H   UNL     1      11.106  -2.021  23.061  0.00  0.00    +0.292 HD
ENDBRANCH  10  24
BRANCH   1  26
ATOM     26  O   UNL     1       8.224   2.374  21.912  0.00  0.00    -0.461 OA
BRANCH  26  30
ATOM     27  C   UNL     1       5.287   5.334  23.018  0.00  0.00    +0.041 C 
ATOM     28  C   UNL     1       6.733   5.636  22.638  0.00  0.00    +0.150 C 
ATOM     29  O   UNL     1       7.294   4.522  21.922  0.00  0.00    -0.334 OA
ATOM     30  C   UNL     1       7.582   3.370  22.719  0.00  0.00    +0.339 C 
ATOM     31  C   UNL     1       8.588   3.747  23.832  0.00  0.00    +0.214 C 
ATOM     32  C   UNL     1       7.950   4.831  24.713  0.00  0.00    +0.180 C 
ATOM     33  C   UNL     1       7.581   6.056  23.857  0.00  0.00    +0.174 C 
BRANCH  31  34
ATOM     34  O   UNL     1       9.803   4.260  23.233  0.00  0.00    -0.383 OA
ATOM     35  H   UNL     1       9.526   4.736  22.424  0.00  0.00    +0.210 HD
ENDBRANCH  31  34
BRANCH  32  36
ATOM     36  O   UNL     1       8.805   5.170  25.807  0.00  0.00    -0.386 OA
ATOM     37  H   UNL     1       9.148   6.070  25.656  0.00  0.00    +0.210 HD
ENDBRANCH  32  36
BRANCH  33  38
ATOM     38  O   UNL     1       8.765   6.736  23.414  0.00  0.00    -0.387 OA
ATOM     39  H   UNL     1       8.503   7.298  22.651  0.00  0.00    +0.210 HD
ENDBRANCH  33  38
ENDBRANCH  26  30
ENDBRANCH   1  26
TORSDOF 10
ENDMDL
MODEL 8
REMARK VINA RESULT:      -6.8      2.039      2.895
REMARK  Name = 
REMARK  12 active torsions:
REMARK  status: ('A' for Active; 'I' for Inactive)
REMARK    1  A    between atoms: C_1  and  C_2
REMARK    2  A    between atoms: C_3  and  O_36
REMARK    3  A    between atoms: C_5  and  O_35
REMARK    4  A    between atoms: C_7  and  O_34
REMARK    5  A    between atoms: C_8  and  O_11
REMARK    6  A    between atoms: O_11  and  C_12
REMARK    7  A    between atoms: C_14  and  O_33
REMARK    8  A    between atoms: C_19  and  C_25
REMARK    9  A    between atoms: C_20  and  O_23
REMARK   10  A    between atoms: O_23  and  C_24
REMARK   11  A    between atoms: C_27  and  O_32
REMARK   12  A    between atoms: C_28  and  O_31
REMARK                            x       y       z     vdW  Elec       q    Type
REMARK                         _______ _______ _______ _____ _____    ______ ____
ROOT
ATOM      1  C   UNL     1       9.591   1.042  23.979  0.00  0.00    +0.131 A 
ATOM      2  C   UNL     1       8.867   0.290  24.906  0.00  0.00    +0.093 A 
ATOM      3  C   UNL     1       8.419  -0.999  24.564  0.00  0.00    +0.147 A 
ATOM      4  O   UNL     1       7.718  -1.684  25.527  0.00  0.00    -0.451 OA
ATOM      5  C   UNL     1       7.274  -2.967  25.248  0.00  0.00    +0.181 A 
ATOM      6  C   UNL     1       7.436  -3.612  24.076  0.00  0.00    +0.211 A 
ATOM      7  C   UNL     1       8.157  -2.878  22.987  0.00  0.00    +0.238 A 
ATOM      8  O   UNL     1       8.309  -3.357  21.865  0.00  0.00    -0.283 OA
ATOM      9  C   UNL     1       8.681  -1.529  23.303  0.00  0.00    +0.109 A 
ATOM     10  C   UNL     1       9.406  -0.763  22.379  0.00  0.00    +0.135 A 
ATOM     11  C   UNL     1       9.848   0.515  22.714  0.00  0.00    +0.092 A 
ENDROOT
BRANCH   5  12
ATOM     12  C   UNL     1       6.590  -3.595  26.403  0.00  0.00    +0.025 A 
ATOM     13  C   UNL     1       5.368  -3.073  26.865  0.00  0.00    +0.015 A 
ATOM     14  C   UNL     1       4.682  -3.677  27.925  0.00  0.00    +0.050 A 
ATOM     15  C   UNL     1       5.222  -4.805  28.524  0.00  0.00    +0.158 A 
ATOM     16  C   UNL     1       6.439  -5.323  28.095  0.00  0.00    +0.159 A 
ATOM     17  C   UNL     1       7.132  -4.725  27.040  0.00  0.00    +0.060 A 
BRANCH  15  18
ATOM     18  O   UNL     1       4.538  -5.411  29.542  0.00  0.00    -0.503 OA
ATOM     19  H   UNL     1       4.733  -6.365  29.437  0.00  0.00    +0.292 HD
ENDBRANCH  15  18
BRANCH  16  20
ATOM     20  O   UNL     1       6.913  -6.431  28.742  0.00  0.00    -0.503 OA
ATOM     21  H   UNL     1       6.303  -6.646  29.467  0.00  0.00    +0.292 HD
ENDBRANCH  16  20
ENDBRANCH   5  12
BRANCH   6  22
ATOM     22  O   UNL     1       6.932  -4.901  23.921  0.00  0.00    -0.488 OA
ATOM     23  C   UNL     1       5.679  -5.063  23.264  0.00  0.00    +0.277 C 
ENDBRANCH   6  22
BRANCH  10  24
ATOM     24  O   UNL     1       9.707  -1.245  21.137  0.00  0.00    -0.506 OA
ATOM     25  H   UNL     1      10.502  -0.815  20.783  0.00  0.00    +0.292 HD
ENDBRANCH  10  24
BRANCH   1  26
ATOM     26  O   UNL     1      10.069   2.309  24.161  0.00  0.00    -0.461 OA
BRANCH  26  30
ATOM     27  C   UNL     1       6.177   4.160  24.364  0.00  0.00    +0.041 C 
ATOM     28  C   UNL     1       7.187   4.367  23.239  0.00  0.00    +0.150 C 
ATOM     29  O   UNL     1       8.156   3.305  23.250  0.00  0.00    -0.334 OA
ATOM     30  C   UNL     1       9.105   3.359  24.319  0.00  0.00    +0.339 C 
ATOM     31  C   UNL     1       9.890   4.689  24.249  0.00  0.00    +0.214 C 
ATOM     32  C   UNL     1       8.892   5.847  24.393  0.00  0.00    +0.180 C 
ATOM     33  C   UNL     1       7.829   5.769  23.282  0.00  0.00    +0.174 C 
BRANCH  31  34
ATOM     34  O   UNL     1      10.566   4.786  22.972  0.00  0.00    -0.383 OA
ATOM     35  H   UNL     1      11.497   4.532  23.137  0.00  0.00    +0.210 HD
ENDBRANCH  31  34
BRANCH  32  36
ATOM     36  O   UNL     1       9.569   7.107  24.410  0.00  0.00    -0.386 OA
ATOM     37  H   UNL     1      10.496   6.956  24.148  0.00  0.00    +0.210 HD
ENDBRANCH  32  36
BRANCH  33  38
ATOM     38  O   UNL     1       8.411   6.075  22.006  0.00  0.00    -0.387 OA
ATOM     39  H   UNL     1       8.151   6.998  21.787  0.00  0.00    +0.210 HD
ENDBRANCH  33  38
ENDBRANCH  26  30
ENDBRANCH   1  26
TORSDOF 10
ENDMDL
MODEL 9
REMARK VINA RESULT:      -6.7      2.930      9.670
REMARK  Name = 
REMARK  12 active torsions:
REMARK  status: ('A' for Active; 'I' for Inactive)
REMARK    1  A    between atoms: C_1  and  C_2
REMARK    2  A    between atoms: C_3  and  O_36
REMARK    3  A    between atoms: C_5  and  O_35
REMARK    4  A    between atoms: C_7  and  O_34
REMARK    5  A    between atoms: C_8  and  O_11
REMARK    6  A    between atoms: O_11  and  C_12
REMARK    7  A    between atoms: C_14  and  O_33
REMARK    8  A    between atoms: C_19  and  C_25
REMARK    9  A    between atoms: C_20  and  O_23
REMARK   10  A    between atoms: O_23  and  C_24
REMARK   11  A    between atoms: C_27  and  O_32
REMARK   12  A    between atoms: C_28  and  O_31
REMARK                            x       y       z     vdW  Elec       q    Type
REMARK                         _______ _______ _______ _____ _____    ______ ____
ROOT
ATOM      1  C   UNL     1       5.135  -5.051  25.314  0.00  0.00    +0.131 A 
ATOM      2  C   UNL     1       5.880  -4.092  24.625  0.00  0.00    +0.093 A 
ATOM      3  C   UNL     1       6.101  -2.829  25.204  0.00  0.00    +0.147 A 
ATOM      4  O   UNL     1       6.848  -1.937  24.473  0.00  0.00    -0.451 OA
ATOM      5  C   UNL     1       7.113  -0.687  25.008  0.00  0.00    +0.181 A 
ATOM      6  C   UNL     1       6.666  -0.235  26.197  0.00  0.00    +0.211 A 
ATOM      7  C   UNL     1       5.811  -1.165  27.003  0.00  0.00    +0.238 A 
ATOM      8  O   UNL     1       5.310  -0.829  28.073  0.00  0.00    -0.283 OA
ATOM      9  C   UNL     1       5.574  -2.521  26.456  0.00  0.00    +0.109 A 
ATOM     10  C   UNL     1       4.824  -3.490  27.138  0.00  0.00    +0.135 A 
ATOM     11  C   UNL     1       4.601  -4.741  26.565  0.00  0.00    +0.092 A 
ENDROOT
BRANCH   5  12
ATOM     12  C   UNL     1       7.978   0.135  24.129  0.00  0.00    +0.025 A 
ATOM     13  C   UNL     1       9.348   0.269  24.418  0.00  0.00    +0.015 A 
ATOM     14  C   UNL     1      10.193   1.004  23.577  0.00  0.00    +0.050 A 
ATOM     15  C   UNL     1       9.663   1.605  22.445  0.00  0.00    +0.158 A 
ATOM     16  C   UNL     1       8.307   1.501  22.155  0.00  0.00    +0.159 A 
ATOM     17  C   UNL     1       7.457   0.772  22.990  0.00  0.00    +0.060 A 
BRANCH  15  18
ATOM     18  O   UNL     1      10.493   2.300  21.609  0.00  0.00    -0.503 OA
ATOM     19  H   UNL     1      10.156   3.219  21.635  0.00  0.00    +0.292 HD
ENDBRANCH  15  18
BRANCH  16  20
ATOM     20  O   UNL     1       7.856   2.130  21.027  0.00  0.00    -0.503 OA
ATOM     21  H   UNL     1       7.283   1.513  20.540  0.00  0.00    +0.292 HD
ENDBRANCH  16  20
ENDBRANCH   5  12
BRANCH   6  22
ATOM     22  O   UNL     1       6.999   1.050  26.617  0.00  0.00    -0.488 OA
ATOM     23  C   UNL     1       6.046   2.091  26.428  0.00  0.00    +0.277 C 
ENDBRANCH   6  22
BRANCH  10  24
ATOM     24  O   UNL     1       4.303  -3.246  28.375  0.00  0.00    -0.506 OA
ATOM     25  H   UNL     1       3.338  -3.154  28.332  0.00  0.00    +0.292 HD
ENDBRANCH  10  24
BRANCH   1  26
ATOM     26  O   UNL     1       4.822  -6.305  24.871  0.00  0.00    -0.461 OA
BRANCH  26  30
ATOM     27  C   UNL     1       1.117  -8.373  25.650  0.00  0.00    +0.041 C 
ATOM     28  C   UNL     1       1.931  -8.491  24.365  0.00  0.00    +0.150 C 
ATOM     29  O   UNL     1       3.277  -8.043  24.597  0.00  0.00    -0.334 OA
ATOM     30  C   UNL     1       3.431  -6.629  24.747  0.00  0.00    +0.339 C 
ATOM     31  C   UNL     1       2.928  -5.914  23.471  0.00  0.00    +0.214 C 
ATOM     32  C   UNL     1       1.441  -6.250  23.283  0.00  0.00    +0.180 C 
ATOM     33  C   UNL     1       1.254  -7.775  23.178  0.00  0.00    +0.174 C 
BRANCH  31  34
ATOM     34  O   UNL     1       3.680  -6.383  22.325  0.00  0.00    -0.383 OA
ATOM     35  H   UNL     1       3.185  -7.148  21.970  0.00  0.00    +0.210 HD
ENDBRANCH  31  34
BRANCH  32  36
ATOM     36  O   UNL     1       0.898  -5.557  22.156  0.00  0.00    -0.386 OA
ATOM     37  H   UNL     1       1.339  -5.892  21.354  0.00  0.00    +0.210 HD
ENDBRANCH  32  36
BRANCH  33  38
ATOM     38  O   UNL     1       1.796  -8.265  21.943  0.00  0.00    -0.387 OA
ATOM     39  H   UNL     1       2.630  -8.737  22.164  0.00  0.00    +0.210 HD
ENDBRANCH  33  38
ENDBRANCH  26  30
ENDBRANCH   1  26
TORSDOF 10
ENDMDL
