MODEL 1
REMARK VINA RESULT:      -7.0      0.000      0.000
REMARK  Name = 
REMARK  22 active torsions:
REMARK  status: ('A' for Active; 'I' for Inactive)
REMARK    1  A    between atoms: C_1  and  C_2
REMARK    2  A    between atoms: C_4  and  O_68
REMARK    3  A    between atoms: C_6  and  O_67
REMARK    4  A    between atoms: C_8  and  O_66
REMARK    5  A    between atoms: C_10  and  O_13
REMARK    6  A    between atoms: O_13  and  C_14
REMARK    7  A    between atoms: C_14  and  C_15
REMARK    8  A    between atoms: C_17  and  O_65
REMARK    9  A    between atoms: C_19  and  O_64
REMARK   10  A    between atoms: C_21  and  O_63
REMARK   11  A    between atoms: C_23  and  O_26
REMARK   12  A    between atoms: O_26  and  C_27
REMARK   13  A    between atoms: C_28  and  C_55
REMARK   14  A    between atoms: C_32  and  O_39
REMARK   15  A    between atoms: C_34  and  O_38
REMARK   16  A    between atoms: O_39  and  C_40
REMARK   17  A    between atoms: C_42  and  O_54
REMARK   18  A    between atoms: C_44  and  O_53
REMARK   19  A    between atoms: C_46  and  O_52
REMARK   20  A    between atoms: C_48  and  C_51
REMARK   21  A    between atoms: C_57  and  O_62
REMARK   22  A    between atoms: C_58  and  O_61
REMARK                            x       y       z     vdW  Elec       q    Type
REMARK                         _______ _______ _______ _____ _____    ______ ____
ROOT
ATOM      1  C   UNL     1       6.425   1.302  26.237  0.00  0.00    +0.214 A 
ATOM      2  C   UNL     1       6.843   0.026  26.943  0.00  0.00    +0.238 A 
ATOM      3  O   UNL     1       7.667  -0.044  27.846  0.00  0.00    -0.283 OA
ATOM      4  C   UNL     1       6.165  -1.218  26.584  0.00  0.00    +0.109 A 
ATOM      5  C   UNL     1       4.853  -1.059  26.218  0.00  0.00    +0.147 A 
ATOM      6  C   UNL     1       4.022  -2.177  26.112  0.00  0.00    +0.093 A 
ATOM      7  C   UNL     1       4.548  -3.454  26.326  0.00  0.00    +0.131 A 
ATOM      8  C   UNL     1       5.903  -3.603  26.639  0.00  0.00    +0.092 A 
ATOM      9  O   UNL     1       4.311   0.173  25.992  0.00  0.00    -0.451 OA
ATOM     10  C   UNL     1       6.710  -2.474  26.778  0.00  0.00    +0.135 A 
ATOM     11  C   UNL     1       5.138   1.294  25.794  0.00  0.00    +0.181 A 
ENDROOT
BRANCH  11  12
ATOM     12  C   UNL     1       4.328   2.396  25.129  0.00  0.00    +0.025 A 
ATOM     13  C   UNL     1       3.274   2.992  25.880  0.00  0.00    +0.015 A 
ATOM     14  C   UNL     1       2.540   4.094  25.430  0.00  0.00    +0.050 A 
ATOM     15  C   UNL     1       2.824   4.617  24.191  0.00  0.00    +0.158 A 
ATOM     16  C   UNL     1       3.783   4.012  23.384  0.00  0.00    +0.159 A 
ATOM     17  C   UNL     1       4.540   2.917  23.840  0.00  0.00    +0.060 A 
BRANCH  16  18
ATOM     18  O   UNL     1       3.949   4.539  22.130  0.00  0.00    -0.503 OA
ATOM     19  H   UNL     1       4.307   5.437  22.233  0.00  0.00    +0.292 HD
ENDBRANCH  16  18
BRANCH  15  20
ATOM     20  O   UNL     1       2.154   5.732  23.775  0.00  0.00    -0.503 OA
ATOM     21  H   UNL     1       1.616   6.001  24.545  0.00  0.00    +0.292 HD
ENDBRANCH  15  20
ENDBRANCH  11  12
BRANCH  10  22
ATOM     22  O   UNL     1       8.030  -2.635  27.099  0.00  0.00    -0.506 OA
ATOM     23  H   UNL     1       8.191  -2.221  27.964  0.00  0.00    +0.292 HD
ENDBRANCH  10  22
BRANCH   7  24
ATOM     24  O   UNL     1       3.843  -4.638  26.271  0.00  0.00    -0.461 OA
BRANCH  24  25
ATOM     25  C   UNL     1       4.255  -5.583  25.278  0.00  0.00    +0.339 C 
ATOM     26  O   UNL     1       3.681  -5.324  23.995  0.00  0.00    -0.334 OA
ATOM     27  C   UNL     1       2.287  -5.631  23.854  0.00  0.00    +0.150 C 
ATOM     28  C   UNL     1       1.377  -4.572  24.482  0.00  0.00    +0.041 C 
ATOM     29  C   UNL     1       1.977  -7.090  24.235  0.00  0.00    +0.174 C 
ATOM     30  C   UNL     1       2.564  -7.501  25.588  0.00  0.00    +0.180 C 
ATOM     31  C   UNL     1       4.020  -7.042  25.724  0.00  0.00    +0.214 C 
BRANCH  31  32
ATOM     32  O   UNL     1       4.519  -7.315  27.036  0.00  0.00    -0.383 OA
ATOM     33  H   UNL     1       3.794  -7.198  27.674  0.00  0.00    +0.210 HD
ENDBRANCH  31  32
BRANCH  30  34
ATOM     34  O   UNL     1       1.679  -7.060  26.630  0.00  0.00    -0.386 OA
ATOM     35  H   UNL     1       1.331  -7.838  27.096  0.00  0.00    +0.210 HD
ENDBRANCH  30  34
BRANCH  29  36
ATOM     36  O   UNL     1       0.572  -7.354  24.214  0.00  0.00    -0.387 OA
ATOM     37  H   UNL     1       0.168  -6.627  23.694  0.00  0.00    +0.210 HD
ENDBRANCH  29  36
ENDBRANCH  24  25
ENDBRANCH   7  24
BRANCH   1  38
ATOM     38  O   UNL     1       7.309   2.392  26.115  0.00  0.00    -0.453 OA
BRANCH  38  41
ATOM     39  C   UNL     1       9.390   1.135  23.434  0.00  0.00    +0.179 C 
ATOM     40  O   UNL     1       8.979   1.374  24.790  0.00  0.00    -0.331 OA
ATOM     41  C   UNL     1       8.022   2.440  24.856  0.00  0.00    +0.340 C 
ATOM     42  C   UNL     1       8.797   3.751  24.585  0.00  0.00    +0.214 C 
ATOM     43  C   UNL     1       9.417   3.644  23.166  0.00  0.00    +0.180 C 
ATOM     44  C   UNL     1      10.210   2.335  22.946  0.00  0.00    +0.177 C 
BRANCH  44  45
ATOM     45  O   UNL     1      10.515   2.189  21.554  0.00  0.00    -0.386 OA
ATOM     46  H   UNL     1      10.763   1.256  21.417  0.00  0.00    +0.210 HD
ENDBRANCH  44  45
BRANCH  43  47
ATOM     47  O   UNL     1       8.310   3.779  22.234  0.00  0.00    -0.386 OA
ATOM     48  H   UNL     1       7.576   3.224  22.559  0.00  0.00    +0.210 HD
ENDBRANCH  43  47
BRANCH  42  49
ATOM     49  O   UNL     1       7.923   4.893  24.603  0.00  0.00    -0.383 OA
ATOM     50  H   UNL     1       7.737   5.049  25.555  0.00  0.00    +0.210 HD
ENDBRANCH  42  49
BRANCH  39  51
ATOM     51  C   UNL     1      10.138  -0.200  23.360  0.00  0.00    +0.197 C 
BRANCH  51  52
ATOM     52  O   UNL     1       9.408  -1.112  22.547  0.00  0.00    -0.346 OA
BRANCH  52  56
ATOM     53  C   UNL     1       9.143  -5.438  24.412  0.00  0.00    +0.041 C 
ATOM     54  C   UNL     1       8.314  -4.187  24.159  0.00  0.00    +0.149 C 
ATOM     55  O   UNL     1       9.150  -3.251  23.471  0.00  0.00    -0.343 OA
ATOM     56  C   UNL     1       8.546  -1.969  23.299  0.00  0.00    +0.282 C 
ATOM     57  C   UNL     1       7.214  -2.049  22.522  0.00  0.00    +0.201 C 
ATOM     58  C   UNL     1       6.315  -3.144  23.115  0.00  0.00    +0.179 C 
ATOM     59  C   UNL     1       7.080  -4.464  23.291  0.00  0.00    +0.174 C 
BRANCH  59  60
ATOM     60  O   UNL     1       7.454  -4.982  22.009  0.00  0.00    -0.387 OA
ATOM     61  H   UNL     1       7.698  -5.923  22.130  0.00  0.00    +0.210 HD
ENDBRANCH  59  60
BRANCH  58  62
ATOM     62  O   UNL     1       5.139  -3.299  22.311  0.00  0.00    -0.386 OA
ATOM     63  H   UNL     1       5.375  -3.073  21.390  0.00  0.00    +0.210 HD
ENDBRANCH  58  62
BRANCH  57  64
ATOM     64  O   UNL     1       6.559  -0.766  22.590  0.00  0.00    -0.384 OA
ATOM     65  H   UNL     1       6.867  -0.241  21.830  0.00  0.00    +0.210 HD
ENDBRANCH  57  64
ENDBRANCH  52  56
ENDBRANCH  51  52
ENDBRANCH  39  51
ENDBRANCH  38  41
ENDBRANCH   1  38
TORSDOF 20
ENDMDL
MODEL 2
REMARK VINA RESULT:      -6.9      2.187      8.854
REMARK  Name = 
REMARK  22 active torsions:
REMARK  status: ('A' for Active; 'I' for Inactive)
REMARK    1  A    between atoms: C_1  and  C_2
REMARK    2  A    between atoms: C_4  and  O_68
REMARK    3  A    between atoms: C_6  and  O_67
REMARK    4  A    between atoms: C_8  and  O_66
REMARK    5  A    between atoms: C_10  and  O_13
REMARK    6  A    between atoms: O_13  and  C_14
REMARK    7  A    between atoms: C_14  and  C_15
REMARK    8  A    between atoms: C_17  and  O_65
REMARK    9  A    between atoms: C_19  and  O_64
REMARK   10  A    between atoms: C_21  and  O_63
REMARK   11  A    between atoms: C_23  and  O_26
REMARK   12  A    between atoms: O_26  and  C_27
REMARK   13  A    between atoms: C_28  and  C_55
REMARK   14  A    between atoms: C_32  and  O_39
REMARK   15  A    between atoms: C_34  and  O_38
REMARK   16  A    between atoms: O_39  and  C_40
REMARK   17  A    between atoms: C_42  and  O_54
REMARK   18  A    between atoms: C_44  and  O_53
REMARK   19  A    between atoms: C_46  and  O_52
REMARK   20  A    between atoms: C_48  and  C_51
REMARK   21  A    between atoms: C_57  and  O_62
REMARK   22  A    between atoms: C_58  and  O_61
REMARK                            x       y       z     vdW  Elec       q    Type
REMARK                         _______ _______ _______ _____ _____    ______ ____
ROOT
ATOM      1  C   UNL     1       3.926  -2.456  26.417  0.00  0.00    +0.214 A 
ATOM      2  C   UNL     1       4.098  -1.215  27.272  0.00  0.00    +0.238 A 
ATOM      3  O   UNL     1       4.103  -1.196  28.496  0.00  0.00    -0.283 OA
ATOM      4  C   UNL     1       4.357   0.057  26.602  0.00  0.00    +0.109 A 
ATOM      5  C   UNL     1       5.075  -0.054  25.439  0.00  0.00    +0.147 A 
ATOM      6  C   UNL     1       5.618   1.088  24.846  0.00  0.00    +0.093 A 
ATOM      7  C   UNL     1       5.378   2.343  25.413  0.00  0.00    +0.131 A 
ATOM      8  C   UNL     1       4.592   2.446  26.565  0.00  0.00    +0.092 A 
ATOM      9  O   UNL     1       5.320  -1.263  24.854  0.00  0.00    -0.451 OA
ATOM     10  C   UNL     1       4.090   1.291  27.165  0.00  0.00    +0.135 A 
ATOM     11  C   UNL     1       4.574  -2.399  25.221  0.00  0.00    +0.181 A 
ENDROOT
BRANCH  11  12
ATOM     12  C   UNL     1       4.719  -3.457  24.139  0.00  0.00    +0.025 A 
ATOM     13  C   UNL     1       5.805  -3.330  23.225  0.00  0.00    +0.015 A 
ATOM     14  C   UNL     1       6.118  -4.300  22.266  0.00  0.00    +0.050 A 
ATOM     15  C   UNL     1       5.327  -5.420  22.175  0.00  0.00    +0.158 A 
ATOM     16  C   UNL     1       4.201  -5.545  22.985  0.00  0.00    +0.159 A 
ATOM     17  C   UNL     1       3.894  -4.583  23.966  0.00  0.00    +0.060 A 
BRANCH  16  18
ATOM     18  O   UNL     1       3.416  -6.647  22.775  0.00  0.00    -0.503 OA
ATOM     19  H   UNL     1       3.243  -7.055  23.641  0.00  0.00    +0.292 HD
ENDBRANCH  16  18
BRANCH  15  20
ATOM     20  O   UNL     1       5.666  -6.397  21.284  0.00  0.00    -0.503 OA
ATOM     21  H   UNL     1       6.384  -6.895  21.721  0.00  0.00    +0.292 HD
ENDBRANCH  15  20
ENDBRANCH  11  12
BRANCH  10  22
ATOM     22  O   UNL     1       3.335   1.407  28.301  0.00  0.00    -0.506 OA
ATOM     23  H   UNL     1       3.472   2.294  28.674  0.00  0.00    +0.292 HD
ENDBRANCH  10  22
BRANCH   7  24
ATOM     24  O   UNL     1       5.863   3.547  24.945  0.00  0.00    -0.461 OA
BRANCH  24  25
ATOM     25  C   UNL     1       5.215   4.092  23.790  0.00  0.00    +0.339 C 
ATOM     26  O   UNL     1       5.806   3.654  22.565  0.00  0.00    -0.334 OA
ATOM     27  C   UNL     1       7.083   4.220  22.241  0.00  0.00    +0.150 C 
ATOM     28  C   UNL     1       8.233   3.588  23.030  0.00  0.00    +0.041 C 
ATOM     29  C   UNL     1       7.045   5.759  22.234  0.00  0.00    +0.174 C 
ATOM     30  C   UNL     1       6.407   6.356  23.491  0.00  0.00    +0.180 C 
ATOM     31  C   UNL     1       5.105   5.631  23.852  0.00  0.00    +0.214 C 
BRANCH  31  32
ATOM     32  O   UNL     1       4.585   6.107  25.096  0.00  0.00    -0.383 OA
ATOM     33  H   UNL     1       5.329   6.264  25.703  0.00  0.00    +0.210 HD
ENDBRANCH  31  32
BRANCH  30  34
ATOM     34  O   UNL     1       7.394   6.404  24.534  0.00  0.00    -0.386 OA
ATOM     35  H   UNL     1       6.956   6.636  25.370  0.00  0.00    +0.210 HD
ENDBRANCH  30  34
BRANCH  29  36
ATOM     36  O   UNL     1       8.345   6.319  22.037  0.00  0.00    -0.387 OA
ATOM     37  H   UNL     1       8.974   5.567  22.089  0.00  0.00    +0.210 HD
ENDBRANCH  29  36
ENDBRANCH  24  25
ENDBRANCH   7  24
BRANCH   1  38
ATOM     38  O   UNL     1       3.190  -3.565  26.878  0.00  0.00    -0.453 OA
BRANCH  38  41
ATOM     39  C   UNL     1       6.050  -5.426  28.088  0.00  0.00    +0.179 C 
ATOM     40  O   UNL     1       5.107  -4.925  27.127  0.00  0.00    -0.331 OA
ATOM     41  C   UNL     1       3.925  -4.434  27.774  0.00  0.00    +0.340 C 
ATOM     42  C   UNL     1       3.148  -5.671  28.280  0.00  0.00    +0.214 C 
ATOM     43  C   UNL     1       4.063  -6.422  29.284  0.00  0.00    +0.180 C 
ATOM     44  C   UNL     1       5.479  -6.698  28.726  0.00  0.00    +0.177 C 
BRANCH  44  45
ATOM     45  O   UNL     1       6.333  -7.141  29.788  0.00  0.00    -0.386 OA
ATOM     46  H   UNL     1       5.759  -7.305  30.559  0.00  0.00    +0.210 HD
ENDBRANCH  44  45
BRANCH  43  47
ATOM     47  O   UNL     1       4.096  -5.605  30.485  0.00  0.00    -0.386 OA
ATOM     48  H   UNL     1       4.408  -6.167  31.220  0.00  0.00    +0.210 HD
ENDBRANCH  43  47
BRANCH  42  49
ATOM     49  O   UNL     1       1.947  -5.291  28.973  0.00  0.00    -0.383 OA
ATOM     50  H   UNL     1       2.218  -5.209  29.914  0.00  0.00    +0.210 HD
ENDBRANCH  42  49
BRANCH  39  51
ATOM     51  C   UNL     1       7.408  -5.627  27.407  0.00  0.00    +0.197 C 
BRANCH  51  52
ATOM     52  O   UNL     1       7.432  -4.920  26.172  0.00  0.00    -0.346 OA
BRANCH  52  56
ATOM     53  C   UNL     1       8.131  -0.317  26.941  0.00  0.00    +0.041 C 
ATOM     54  C   UNL     1       8.815  -1.559  26.386  0.00  0.00    +0.149 C 
ATOM     55  O   UNL     1       7.879  -2.638  26.476  0.00  0.00    -0.343 OA
ATOM     56  C   UNL     1       8.439  -3.905  26.127  0.00  0.00    +0.282 C 
ATOM     57  C   UNL     1       9.014  -3.916  24.694  0.00  0.00    +0.201 C 
ATOM     58  C   UNL     1       9.918  -2.696  24.472  0.00  0.00    +0.179 C 
ATOM     59  C   UNL     1       9.230  -1.398  24.918  0.00  0.00    +0.174 C 
BRANCH  59  60
ATOM     60  O   UNL     1       8.094  -1.140  24.084  0.00  0.00    -0.387 OA
ATOM     61  H   UNL     1       7.355  -0.866  24.666  0.00  0.00    +0.210 HD
ENDBRANCH  59  60
BRANCH  58  62
ATOM     62  O   UNL     1      10.343  -2.644  23.105  0.00  0.00    -0.386 OA
ATOM     63  H   UNL     1      11.168  -3.161  23.029  0.00  0.00    +0.210 HD
ENDBRANCH  58  62
BRANCH  57  64
ATOM     64  O   UNL     1       9.756  -5.138  24.501  0.00  0.00    -0.384 OA
ATOM     65  H   UNL     1      10.609  -4.900  24.097  0.00  0.00    +0.210 HD
ENDBRANCH  57  64
ENDBRANCH  52  56
ENDBRANCH  51  52
ENDBRANCH  39  51
ENDBRANCH  38  41
ENDBRANCH   1  38
TORSDOF 20
ENDMDL
MODEL 3
REMARK VINA RESULT:      -6.8      1.866      2.502
REMARK  Name = 
REMARK  22 active torsions:
REMARK  status: ('A' for Active; 'I' for Inactive)
REMARK    1  A    between atoms: C_1  and  C_2
REMARK    2  A    between atoms: C_4  and  O_68
REMARK    3  A    between atoms: C_6  and  O_67
REMARK    4  A    between atoms: C_8  and  O_66
REMARK    5  A    between atoms: C_10  and  O_13
REMARK    6  A    between atoms: O_13  and  C_14
REMARK    7  A    between atoms: C_14  and  C_15
REMARK    8  A    between atoms: C_17  and  O_65
REMARK    9  A    between atoms: C_19  and  O_64
REMARK   10  A    between atoms: C_21  and  O_63
REMARK   11  A    between atoms: C_23  and  O_26
REMARK   12  A    between atoms: O_26  and  C_27
REMARK   13  A    between atoms: C_28  and  C_55
REMARK   14  A    between atoms: C_32  and  O_39
REMARK   15  A    between atoms: C_34  and  O_38
REMARK   16  A    between atoms: O_39  and  C_40
REMARK   17  A    between atoms: C_42  and  O_54
REMARK   18  A    between atoms: C_44  and  O_53
REMARK   19  A    between atoms: C_46  and  O_52
REMARK   20  A    between atoms: C_48  and  C_51
REMARK   21  A    between atoms: C_57  and  O_62
REMARK   22  A    between atoms: C_58  and  O_61
REMARK                            x       y       z     vdW  Elec       q    Type
REMARK                         _______ _______ _______ _____ _____    ______ ____
ROOT
ATOM      1  C   UNL     1       6.312   3.407  25.786  0.00  0.00    +0.214 A 
ATOM      2  C   UNL     1       6.713   2.420  26.866  0.00  0.00    +0.238 A 
ATOM      3  O   UNL     1       7.194   2.717  27.951  0.00  0.00    -0.283 OA
ATOM      4  C   UNL     1       6.441   1.002  26.642  0.00  0.00    +0.109 A 
ATOM      5  C   UNL     1       5.316   0.754  25.898  0.00  0.00    +0.147 A 
ATOM      6  C   UNL     1       4.795  -0.541  25.837  0.00  0.00    +0.093 A 
ATOM      7  C   UNL     1       5.456  -1.585  26.490  0.00  0.00    +0.131 A 
ATOM      8  C   UNL     1       6.637  -1.326  27.194  0.00  0.00    +0.092 A 
ATOM      9  O   UNL     1       4.652   1.749  25.241  0.00  0.00    -0.451 OA
ATOM     10  C   UNL     1       7.122  -0.021  27.275  0.00  0.00    +0.135 A 
ATOM     11  C   UNL     1       5.267   2.994  25.018  0.00  0.00    +0.181 A 
ENDROOT
BRANCH  11  12
ATOM     12  C   UNL     1       4.524   3.723  23.909  0.00  0.00    +0.025 A 
ATOM     13  C   UNL     1       3.292   3.167  23.457  0.00  0.00    +0.015 A 
ATOM     14  C   UNL     1       2.456   3.804  22.535  0.00  0.00    +0.050 A 
ATOM     15  C   UNL     1       2.847   5.014  22.012  0.00  0.00    +0.158 A 
ATOM     16  C   UNL     1       4.084   5.553  22.355  0.00  0.00    +0.159 A 
ATOM     17  C   UNL     1       4.920   4.927  23.299  0.00  0.00    +0.060 A 
BRANCH  16  18
ATOM     18  O   UNL     1       4.439   6.717  21.727  0.00  0.00    -0.503 OA
ATOM     19  H   UNL     1       4.015   6.722  20.852  0.00  0.00    +0.292 HD
ENDBRANCH  16  18
BRANCH  15  20
ATOM     20  O   UNL     1       2.004   5.669  21.161  0.00  0.00    -0.503 OA
ATOM     21  H   UNL     1       1.226   5.897  21.706  0.00  0.00    +0.292 HD
ENDBRANCH  15  20
ENDBRANCH  11  12
BRANCH  10  22
ATOM     22  O   UNL     1       8.270   0.218  27.981  0.00  0.00    -0.506 OA
ATOM     23  H   UNL     1       8.316  -0.411  28.721  0.00  0.00    +0.292 HD
ENDBRANCH  10  22
BRANCH   7  24
ATOM     24  O   UNL     1       5.048  -2.901  26.526  0.00  0.00    -0.461 OA
BRANCH  24  25
ATOM     25  C   UNL     1       5.936  -3.830  27.158  0.00  0.00    +0.339 C 
ATOM     26  O   UNL     1       6.577  -4.704  26.227  0.00  0.00    -0.334 OA
ATOM     27  C   UNL     1       5.753  -5.727  25.651  0.00  0.00    +0.150 C 
ATOM     28  C   UNL     1       4.840  -5.203  24.540  0.00  0.00    +0.041 C 
ATOM     29  C   UNL     1       5.069  -6.589  26.727  0.00  0.00    +0.174 C 
ATOM     30  C   UNL     1       4.362  -5.764  27.806  0.00  0.00    +0.180 C 
ATOM     31  C   UNL     1       5.250  -4.615  28.297  0.00  0.00    +0.214 C 
BRANCH  31  32
ATOM     32  O   UNL     1       4.537  -3.774  29.207  0.00  0.00    -0.383 OA
ATOM     33  H   UNL     1       3.974  -4.333  29.770  0.00  0.00    +0.210 HD
ENDBRANCH  31  32
BRANCH  30  34
ATOM     34  O   UNL     1       3.067  -5.377  27.319  0.00  0.00    -0.386 OA
ATOM     35  H   UNL     1       3.004  -4.407  27.334  0.00  0.00    +0.210 HD
ENDBRANCH  30  34
BRANCH  29  36
ATOM     36  O   UNL     1       4.153  -7.523  26.152  0.00  0.00    -0.387 OA
ATOM     37  H   UNL     1       3.258  -7.229  26.426  0.00  0.00    +0.210 HD
ENDBRANCH  29  36
ENDBRANCH  24  25
ENDBRANCH   7  24
BRANCH   1  38
ATOM     38  O   UNL     1       6.962   4.651  25.656  0.00  0.00    -0.453 OA
BRANCH  38  41
ATOM     39  C   UNL     1       9.665   3.160  23.767  0.00  0.00    +0.179 C 
ATOM     40  O   UNL     1       8.801   3.379  24.893  0.00  0.00    -0.331 OA
ATOM     41  C   UNL     1       8.112   4.631  24.777  0.00  0.00    +0.340 C 
ATOM     42  C   UNL     1       9.158   5.740  25.034  0.00  0.00    +0.214 C 
ATOM     43  C   UNL     1      10.260   5.606  23.948  0.00  0.00    +0.180 C 
ATOM     44  C   UNL     1      10.818   4.169  23.823  0.00  0.00    +0.177 C 
BRANCH  44  45
ATOM     45  O   UNL     1      11.618   4.069  22.639  0.00  0.00    -0.386 OA
ATOM     46  H   UNL     1      12.360   4.693  22.748  0.00  0.00    +0.210 HD
ENDBRANCH  44  45
BRANCH  43  47
ATOM     47  O   UNL     1       9.661   6.072  22.709  0.00  0.00    -0.386 OA
ATOM     48  H   UNL     1       9.342   6.983  22.855  0.00  0.00    +0.210 HD
ENDBRANCH  43  47
BRANCH  42  49
ATOM     49  O   UNL     1       8.577   7.051  24.916  0.00  0.00    -0.383 OA
ATOM     50  H   UNL     1       7.857   7.064  25.584  0.00  0.00    +0.210 HD
ENDBRANCH  42  49
BRANCH  39  51
ATOM     51  C   UNL     1      10.119   1.697  23.754  0.00  0.00    +0.197 C 
BRANCH  51  52
ATOM     52  O   UNL     1       9.274   0.942  22.893  0.00  0.00    -0.346 OA
BRANCH  52  56
ATOM     53  C   UNL     1       9.745  -3.405  24.666  0.00  0.00    +0.041 C 
ATOM     54  C   UNL     1       8.705  -2.331  24.382  0.00  0.00    +0.149 C 
ATOM     55  O   UNL     1       9.382  -1.232  23.764  0.00  0.00    -0.343 OA
ATOM     56  C   UNL     1       8.552  -0.086  23.576  0.00  0.00    +0.282 C 
ATOM     57  C   UNL     1       7.308  -0.399  22.715  0.00  0.00    +0.201 C 
ATOM     58  C   UNL     1       6.606  -1.663  23.232  0.00  0.00    +0.179 C 
ATOM     59  C   UNL     1       7.601  -2.815  23.434  0.00  0.00    +0.174 C 
BRANCH  59  60
ATOM     60  O   UNL     1       8.142  -3.215  22.169  0.00  0.00    -0.387 OA
ATOM     61  H   UNL     1       7.551  -2.866  21.471  0.00  0.00    +0.210 HD
ENDBRANCH  59  60
BRANCH  58  62
ATOM     62  O   UNL     1       5.531  -2.019  22.354  0.00  0.00    -0.386 OA
ATOM     63  H   UNL     1       4.856  -2.486  22.882  0.00  0.00    +0.210 HD
ENDBRANCH  58  62
BRANCH  57  64
ATOM     64  O   UNL     1       6.414   0.732  22.763  0.00  0.00    -0.384 OA
ATOM     65  H   UNL     1       5.733   0.593  22.082  0.00  0.00    +0.210 HD
ENDBRANCH  57  64
ENDBRANCH  52  56
ENDBRANCH  51  52
ENDBRANCH  39  51
ENDBRANCH  38  41
ENDBRANCH   1  38
TORSDOF 20
ENDMDL
MODEL 4
REMARK VINA RESULT:      -6.5      1.784      5.339
REMARK  Name = 
REMARK  22 active torsions:
REMARK  status: ('A' for Active; 'I' for Inactive)
REMARK    1  A    between atoms: C_1  and  C_2
REMARK    2  A    between atoms: C_4  and  O_68
REMARK    3  A    between atoms: C_6  and  O_67
REMARK    4  A    between atoms: C_8  and  O_66
REMARK    5  A    between atoms: C_10  and  O_13
REMARK    6  A    between atoms: O_13  and  C_14
REMARK    7  A    between atoms: C_14  and  C_15
REMARK    8  A    between atoms: C_17  and  O_65
REMARK    9  A    between atoms: C_19  and  O_64
REMARK   10  A    between atoms: C_21  and  O_63
REMARK   11  A    between atoms: C_23  and  O_26
REMARK   12  A    between atoms: O_26  and  C_27
REMARK   13  A    between atoms: C_28  and  C_55
REMARK   14  A    between atoms: C_32  and  O_39
REMARK   15  A    between atoms: C_34  and  O_38
REMARK   16  A    between atoms: O_39  and  C_40
REMARK   17  A    between atoms: C_42  and  O_54
REMARK   18  A    between atoms: C_44  and  O_53
REMARK   19  A    between atoms: C_46  and  O_52
REMARK   20  A    between atoms: C_48  and  C_51
REMARK   21  A    between atoms: C_57  and  O_62
REMARK   22  A    between atoms: C_58  and  O_61
REMARK                            x       y       z     vdW  Elec       q    Type
REMARK                         _______ _______ _______ _____ _____    ______ ____
ROOT
ATOM      1  C   UNL     1       8.079  -0.869  25.125  0.00  0.00    +0.214 A 
ATOM      2  C   UNL     1       8.117  -2.027  24.147  0.00  0.00    +0.238 A 
ATOM      3  O   UNL     1       9.134  -2.561  23.723  0.00  0.00    -0.283 OA
ATOM      4  C   UNL     1       6.849  -2.618  23.724  0.00  0.00    +0.109 A 
ATOM      5  C   UNL     1       5.866  -2.586  24.680  0.00  0.00    +0.147 A 
ATOM      6  C   UNL     1       4.706  -3.346  24.509  0.00  0.00    +0.093 A 
ATOM      7  C   UNL     1       4.533  -4.090  23.338  0.00  0.00    +0.131 A 
ATOM      8  C   UNL     1       5.518  -4.064  22.346  0.00  0.00    +0.092 A 
ATOM      9  O   UNL     1       6.000  -1.862  25.829  0.00  0.00    -0.451 OA
ATOM     10  C   UNL     1       6.686  -3.330  22.550  0.00  0.00    +0.135 A 
ATOM     11  C   UNL     1       6.985  -0.863  25.935  0.00  0.00    +0.181 A 
ENDROOT
BRANCH  11  12
ATOM     12  C   UNL     1       6.629   0.064  27.087  0.00  0.00    +0.025 A 
ATOM     13  C   UNL     1       5.252   0.214  27.419  0.00  0.00    +0.015 A 
ATOM     14  C   UNL     1       4.804   0.936  28.530  0.00  0.00    +0.050 A 
ATOM     15  C   UNL     1       5.732   1.559  29.332  0.00  0.00    +0.158 A 
ATOM     16  C   UNL     1       7.082   1.516  28.996  0.00  0.00    +0.159 A 
ATOM     17  C   UNL     1       7.539   0.772  27.891  0.00  0.00    +0.060 A 
BRANCH  16  18
ATOM     18  O   UNL     1       7.934   2.232  29.794  0.00  0.00    -0.503 OA
ATOM     19  H   UNL     1       7.521   3.095  29.967  0.00  0.00    +0.292 HD
ENDBRANCH  16  18
BRANCH  15  20
ATOM     20  O   UNL     1       5.304   2.211  30.452  0.00  0.00    -0.503 OA
ATOM     21  H   UNL     1       4.946   3.059  30.126  0.00  0.00    +0.292 HD
ENDBRANCH  15  20
ENDBRANCH  11  12
BRANCH  10  22
ATOM     22  O   UNL     1       7.647  -3.326  21.577  0.00  0.00    -0.506 OA
ATOM     23  H   UNL     1       8.201  -4.119  21.685  0.00  0.00    +0.292 HD
ENDBRANCH  10  22
BRANCH   7  24
ATOM     24  O   UNL     1       3.450  -4.893  23.046  0.00  0.00    -0.461 OA
BRANCH  24  25
ATOM     25  C   UNL     1       2.403  -4.938  24.021  0.00  0.00    +0.339 C 
ATOM     26  O   UNL     1       2.861  -5.363  25.306  0.00  0.00    -0.334 OA
ATOM     27  C   UNL     1       3.177  -6.756  25.434  0.00  0.00    +0.150 C 
ATOM     28  C   UNL     1       4.534  -7.118  24.824  0.00  0.00    +0.041 C 
ATOM     29  C   UNL     1       1.998  -7.655  25.021  0.00  0.00    +0.174 C 
ATOM     30  C   UNL     1       1.398  -7.282  23.663  0.00  0.00    +0.180 C 
ATOM     31  C   UNL     1       1.192  -5.768  23.543  0.00  0.00    +0.214 C 
BRANCH  31  32
ATOM     32  O   UNL     1       0.754  -5.416  22.228  0.00  0.00    -0.383 OA
ATOM     33  H   UNL     1       1.528  -5.398  21.639  0.00  0.00    +0.210 HD
ENDBRANCH  31  32
BRANCH  30  34
ATOM     34  O   UNL     1       2.192  -7.880  22.626  0.00  0.00    -0.386 OA
ATOM     35  H   UNL     1       2.387  -8.800  22.870  0.00  0.00    +0.210 HD
ENDBRANCH  30  34
BRANCH  29  36
ATOM     36  O   UNL     1       2.359  -9.038  25.030  0.00  0.00    -0.387 OA
ATOM     37  H   UNL     1       3.177  -9.107  24.493  0.00  0.00    +0.210 HD
ENDBRANCH  29  36
ENDBRANCH  24  25
ENDBRANCH   7  24
BRANCH   1  38
ATOM     38  O   UNL     1       9.129   0.069  25.188  0.00  0.00    -0.453 OA
BRANCH  38  41
ATOM     39  C   UNL     1       7.969   3.315  24.084  0.00  0.00    +0.179 C 
ATOM     40  O   UNL     1       7.884   2.013  24.685  0.00  0.00    -0.331 OA
ATOM     41  C   UNL     1       8.982   1.186  24.278  0.00  0.00    +0.340 C 
ATOM     42  C   UNL     1       8.729   0.806  22.801  0.00  0.00    +0.214 C 
ATOM     43  C   UNL     1       8.686   2.122  21.979  0.00  0.00    +0.180 C 
ATOM     44  C   UNL     1       7.730   3.181  22.575  0.00  0.00    +0.177 C 
BRANCH  44  45
ATOM     45  O   UNL     1       7.948   4.439  21.928  0.00  0.00    -0.386 OA
ATOM     46  H   UNL     1       8.437   4.252  21.105  0.00  0.00    +0.210 HD
ENDBRANCH  44  45
BRANCH  43  47
ATOM     47  O   UNL     1      10.058   2.597  21.912  0.00  0.00    -0.386 OA
ATOM     48  H   UNL     1      10.639   1.820  21.805  0.00  0.00    +0.210 HD
ENDBRANCH  43  47
BRANCH  42  49
ATOM     49  O   UNL     1       9.791  -0.010  22.277  0.00  0.00    -0.383 OA
ATOM     50  H   UNL     1       9.810  -0.799  22.863  0.00  0.00    +0.210 HD
ENDBRANCH  42  49
BRANCH  39  51
ATOM     51  C   UNL     1       6.991   4.262  24.786  0.00  0.00    +0.197 C 
BRANCH  51  52
ATOM     52  O   UNL     1       6.186   4.924  23.816  0.00  0.00    -0.346 OA
BRANCH  52  56
ATOM     53  C   UNL     1       3.178   4.106  27.358  0.00  0.00    +0.041 C 
ATOM     54  C   UNL     1       3.224   4.379  25.861  0.00  0.00    +0.149 C 
ATOM     55  O   UNL     1       4.601   4.493  25.490  0.00  0.00    -0.343 OA
ATOM     56  C   UNL     1       4.792   4.900  24.134  0.00  0.00    +0.282 C 
ATOM     57  C   UNL     1       4.127   3.930  23.133  0.00  0.00    +0.201 C 
ATOM     58  C   UNL     1       2.679   3.640  23.553  0.00  0.00    +0.179 C 
ATOM     59  C   UNL     1       2.591   3.252  25.036  0.00  0.00    +0.174 C 
BRANCH  59  60
ATOM     60  O   UNL     1       3.267   2.008  25.253  0.00  0.00    -0.387 OA
ATOM     61  H   UNL     1       3.623   1.711  24.390  0.00  0.00    +0.210 HD
ENDBRANCH  59  60
BRANCH  58  62
ATOM     62  O   UNL     1       2.111   2.643  22.695  0.00  0.00    -0.386 OA
ATOM     63  H   UNL     1       2.228   2.941  21.772  0.00  0.00    +0.210 HD
ENDBRANCH  58  62
BRANCH  57  64
ATOM     64  O   UNL     1       4.164   4.522  21.819  0.00  0.00    -0.384 OA
ATOM     65  H   UNL     1       3.277   4.424  21.430  0.00  0.00    +0.210 HD
ENDBRANCH  57  64
ENDBRANCH  52  56
ENDBRANCH  51  52
ENDBRANCH  39  51
ENDBRANCH  38  41
ENDBRANCH   1  38
TORSDOF 20
ENDMDL
MODEL 5
REMARK VINA RESULT:      -6.5      1.772      2.850
REMARK  Name = 
REMARK  22 active torsions:
REMARK  status: ('A' for Active; 'I' for Inactive)
REMARK    1  A    between atoms: C_1  and  C_2
REMARK    2  A    between atoms: C_4  and  O_68
REMARK    3  A    between atoms: C_6  and  O_67
REMARK    4  A    between atoms: C_8  and  O_66
REMARK    5  A    between atoms: C_10  and  O_13
REMARK    6  A    between atoms: O_13  and  C_14
REMARK    7  A    between atoms: C_14  and  C_15
REMARK    8  A    between atoms: C_17  and  O_65
REMARK    9  A    between atoms: C_19  and  O_64
REMARK   10  A    between atoms: C_21  and  O_63
REMARK   11  A    between atoms: C_23  and  O_26
REMARK   12  A    between atoms: O_26  and  C_27
REMARK   13  A    between atoms: C_28  and  C_55
REMARK   14  A    between atoms: C_32  and  O_39
REMARK   15  A    between atoms: C_34  and  O_38
REMARK   16  A    between atoms: O_39  and  C_40
REMARK   17  A    between atoms: C_42  and  O_54
REMARK   18  A    between atoms: C_44  and  O_53
REMARK   19  A    between atoms: C_46  and  O_52
REMARK   20  A    between atoms: C_48  and  C_51
REMARK   21  A    between atoms: C_57  and  O_62
REMARK   22  A    between atoms: C_58  and  O_61
REMARK                            x       y       z     vdW  Elec       q    Type
REMARK                         _______ _______ _______ _____ _____    ______ ____
ROOT
ATOM      1  C   UNL     1       5.657   2.888  26.712  0.00  0.00    +0.214 A 
ATOM      2  C   UNL     1       6.468   1.793  27.378  0.00  0.00    +0.238 A 
ATOM      3  O   UNL     1       7.202   1.946  28.345  0.00  0.00    -0.283 OA
ATOM      4  C   UNL     1       6.316   0.424  26.888  0.00  0.00    +0.109 A 
ATOM      5  C   UNL     1       5.062   0.131  26.416  0.00  0.00    +0.147 A 
ATOM      6  C   UNL     1       4.706  -1.198  26.171  0.00  0.00    +0.093 A 
ATOM      7  C   UNL     1       5.648  -2.213  26.358  0.00  0.00    +0.131 A 
ATOM      8  C   UNL     1       6.941  -1.891  26.783  0.00  0.00    +0.092 A 
ATOM      9  O   UNL     1       4.122   1.100  26.213  0.00  0.00    -0.451 OA
ATOM     10  C   UNL     1       7.268  -0.563  27.058  0.00  0.00    +0.135 A 
ATOM     11  C   UNL     1       4.493   2.456  26.155  0.00  0.00    +0.181 A 
ENDROOT
BRANCH  11  12
ATOM     12  C   UNL     1       3.380   3.246  25.485  0.00  0.00    +0.025 A 
ATOM     13  C   UNL     1       2.477   3.963  26.321  0.00  0.00    +0.015 A 
ATOM     14  C   UNL     1       1.491   4.824  25.826  0.00  0.00    +0.050 A 
ATOM     15  C   UNL     1       1.361   4.968  24.465  0.00  0.00    +0.158 A 
ATOM     16  C   UNL     1       2.161   4.218  23.607  0.00  0.00    +0.159 A 
ATOM     17  C   UNL     1       3.169   3.368  24.100  0.00  0.00    +0.060 A 
BRANCH  16  18
ATOM     18  O   UNL     1       1.914   4.353  22.266  0.00  0.00    -0.503 OA
ATOM     19  H   UNL     1       1.678   3.475  21.920  0.00  0.00    +0.292 HD
ENDBRANCH  16  18
BRANCH  15  20
ATOM     20  O   UNL     1       0.444   5.854  23.979  0.00  0.00    -0.503 OA
ATOM     21  H   UNL     1      -0.211   5.303  23.508  0.00  0.00    +0.292 HD
ENDBRANCH  15  20
ENDBRANCH  11  12
BRANCH  10  22
ATOM     22  O   UNL     1       8.533  -0.266  27.487  0.00  0.00    -0.506 OA
ATOM     23  H   UNL     1       8.926  -1.068  27.871  0.00  0.00    +0.292 HD
ENDBRANCH  10  22
BRANCH   7  24
ATOM     24  O   UNL     1       5.429  -3.562  26.172  0.00  0.00    -0.461 OA
BRANCH  24  25
ATOM     25  C   UNL     1       6.276  -4.223  25.226  0.00  0.00    +0.339 C 
ATOM     26  O   UNL     1       5.849  -4.037  23.875  0.00  0.00    -0.334 OA
ATOM     27  C   UNL     1       4.674  -4.758  23.479  0.00  0.00    +0.150 C 
ATOM     28  C   UNL     1       3.380  -4.113  23.984  0.00  0.00    +0.041 C 
ATOM     29  C   UNL     1       4.811  -6.269  23.737  0.00  0.00    +0.174 C 
ATOM     30  C   UNL     1       5.290  -6.602  25.153  0.00  0.00    +0.180 C 
ATOM     31  C   UNL     1       6.474  -5.718  25.561  0.00  0.00    +0.214 C 
BRANCH  31  32
ATOM     32  O   UNL     1       6.831  -5.944  26.927  0.00  0.00    -0.383 OA
ATOM     33  H   UNL     1       7.494  -5.281  27.187  0.00  0.00    +0.210 HD
ENDBRANCH  31  32
BRANCH  30  34
ATOM     34  O   UNL     1       4.163  -6.571  26.042  0.00  0.00    -0.386 OA
ATOM     35  H   UNL     1       3.502  -7.214  25.733  0.00  0.00    +0.210 HD
ENDBRANCH  30  34
BRANCH  29  36
ATOM     36  O   UNL     1       3.594  -6.965  23.460  0.00  0.00    -0.387 OA
ATOM     37  H   UNL     1       3.465  -7.592  24.203  0.00  0.00    +0.210 HD
ENDBRANCH  29  36
ENDBRANCH  24  25
ENDBRANCH   7  24
BRANCH   1  38
ATOM     38  O   UNL     1       6.087   4.230  26.732  0.00  0.00    -0.453 OA
BRANCH  38  41
ATOM     39  C   UNL     1       7.186   4.088  23.286  0.00  0.00    +0.179 C 
ATOM     40  O   UNL     1       7.179   3.772  24.688  0.00  0.00    -0.331 OA
ATOM     41  C   UNL     1       6.451   4.757  25.433  0.00  0.00    +0.340 C 
ATOM     42  C   UNL     1       7.326   6.031  25.460  0.00  0.00    +0.214 C 
ATOM     43  C   UNL     1       7.536   6.486  23.990  0.00  0.00    +0.180 C 
ATOM     44  C   UNL     1       8.030   5.348  23.067  0.00  0.00    +0.177 C 
BRANCH  44  45
ATOM     45  O   UNL     1       7.940   5.769  21.701  0.00  0.00    -0.386 OA
ATOM     46  H   UNL     1       7.406   5.099  21.235  0.00  0.00    +0.210 HD
ENDBRANCH  44  45
BRANCH  43  47
ATOM     47  O   UNL     1       6.262   7.033  23.554  0.00  0.00    -0.386 OA
ATOM     48  H   UNL     1       6.447   7.794  22.971  0.00  0.00    +0.210 HD
ENDBRANCH  43  47
BRANCH  42  49
ATOM     49  O   UNL     1       6.677   7.102  26.167  0.00  0.00    -0.383 OA
ATOM     50  H   UNL     1       6.491   7.778  25.478  0.00  0.00    +0.210 HD
ENDBRANCH  42  49
BRANCH  39  51
ATOM     51  C   UNL     1       7.670   2.869  22.495  0.00  0.00    +0.197 C 
BRANCH  51  52
ATOM     52  O   UNL     1       6.898   1.728  22.855  0.00  0.00    -0.346 OA
BRANCH  52  56
ATOM     53  C   UNL     1      11.271   0.704  24.301  0.00  0.00    +0.041 C 
ATOM     54  C   UNL     1       9.872   0.114  24.199  0.00  0.00    +0.149 C 
ATOM     55  O   UNL     1       9.038   1.097  23.576  0.00  0.00    -0.343 OA
ATOM     56  C   UNL     1       7.656   0.736  23.551  0.00  0.00    +0.282 C 
ATOM     57  C   UNL     1       7.414  -0.601  22.818  0.00  0.00    +0.201 C 
ATOM     58  C   UNL     1       8.382  -1.676  23.333  0.00  0.00    +0.179 C 
ATOM     59  C   UNL     1       9.830  -1.164  23.353  0.00  0.00    +0.174 C 
BRANCH  59  60
ATOM     60  O   UNL     1      10.275  -0.914  22.014  0.00  0.00    -0.387 OA
ATOM     61  H   UNL     1       9.855  -1.582  21.433  0.00  0.00    +0.210 HD
ENDBRANCH  59  60
BRANCH  58  62
ATOM     62  O   UNL     1       8.239  -2.874  22.560  0.00  0.00    -0.386 OA
ATOM     63  H   UNL     1       8.773  -3.571  22.987  0.00  0.00    +0.210 HD
ENDBRANCH  58  62
BRANCH  57  64
ATOM     64  O   UNL     1       6.047  -1.007  23.032  0.00  0.00    -0.384 OA
ATOM     65  H   UNL     1       5.593  -0.968  22.172  0.00  0.00    +0.210 HD
ENDBRANCH  57  64
ENDBRANCH  52  56
ENDBRANCH  51  52
ENDBRANCH  39  51
ENDBRANCH  38  41
ENDBRANCH   1  38
TORSDOF 20
ENDMDL
MODEL 6
REMARK VINA RESULT:      -6.5      2.058      2.879
REMARK  Name = 
REMARK  22 active torsions:
REMARK  status: ('A' for Active; 'I' for Inactive)
REMARK    1  A    between atoms: C_1  and  C_2
REMARK    2  A    between atoms: C_4  and  O_68
REMARK    3  A    between atoms: C_6  and  O_67
REMARK    4  A    between atoms: C_8  and  O_66
REMARK    5  A    between atoms: C_10  and  O_13
REMARK    6  A    between atoms: O_13  and  C_14
REMARK    7  A    between atoms: C_14  and  C_15
REMARK    8  A    between atoms: C_17  and  O_65
REMARK    9  A    between atoms: C_19  and  O_64
REMARK   10  A    between atoms: C_21  and  O_63
REMARK   11  A    between atoms: C_23  and  O_26
REMARK   12  A    between atoms: O_26  and  C_27
REMARK   13  A    between atoms: C_28  and  C_55
REMARK   14  A    between atoms: C_32  and  O_39
REMARK   15  A    between atoms: C_34  and  O_38
REMARK   16  A    between atoms: O_39  and  C_40
REMARK   17  A    between atoms: C_42  and  O_54
REMARK   18  A    between atoms: C_44  and  O_53
REMARK   19  A    between atoms: C_46  and  O_52
REMARK   20  A    between atoms: C_48  and  C_51
REMARK   21  A    between atoms: C_57  and  O_62
REMARK   22  A    between atoms: C_58  and  O_61
REMARK                            x       y       z     vdW  Elec       q    Type
REMARK                         _______ _______ _______ _____ _____    ______ ____
ROOT
ATOM      1  C   UNL     1       5.594   3.077  25.611  0.00  0.00    +0.214 A 
ATOM      2  C   UNL     1       6.250   2.318  26.748  0.00  0.00    +0.238 A 
ATOM      3  O   UNL     1       6.951   2.817  27.619  0.00  0.00    -0.283 OA
ATOM      4  C   UNL     1       5.974   0.889  26.877  0.00  0.00    +0.109 A 
ATOM      5  C   UNL     1       4.719   0.518  26.465  0.00  0.00    +0.147 A 
ATOM      6  C   UNL     1       4.233  -0.753  26.780  0.00  0.00    +0.093 A 
ATOM      7  C   UNL     1       5.050  -1.658  27.464  0.00  0.00    +0.131 A 
ATOM      8  C   UNL     1       6.349  -1.285  27.823  0.00  0.00    +0.092 A 
ATOM      9  O   UNL     1       3.900   1.374  25.788  0.00  0.00    -0.451 OA
ATOM     10  C   UNL     1       6.805   0.001  27.534  0.00  0.00    +0.135 A 
ATOM     11  C   UNL     1       4.417   2.538  25.191  0.00  0.00    +0.181 A 
ENDROOT
BRANCH  11  12
ATOM     12  C   UNL     1       3.428   3.044  24.152  0.00  0.00    +0.025 A 
ATOM     13  C   UNL     1       2.100   3.330  24.582  0.00  0.00    +0.015 A 
ATOM     14  C   UNL     1       1.135   3.915  23.756  0.00  0.00    +0.050 A 
ATOM     15  C   UNL     1       1.468   4.207  22.454  0.00  0.00    +0.158 A 
ATOM     16  C   UNL     1       2.724   3.862  21.963  0.00  0.00    +0.159 A 
ATOM     17  C   UNL     1       3.706   3.293  22.796  0.00  0.00    +0.060 A 
BRANCH  16  18
ATOM     18  O   UNL     1       2.950   4.107  20.635  0.00  0.00    -0.503 OA
ATOM     19  H   UNL     1       2.656   3.325  20.137  0.00  0.00    +0.292 HD
ENDBRANCH  16  18
BRANCH  15  20
ATOM     20  O   UNL     1       0.550   4.836  21.663  0.00  0.00    -0.503 OA
ATOM     21  H   UNL     1       0.349   4.194  20.955  0.00  0.00    +0.292 HD
ENDBRANCH  15  20
ENDBRANCH  11  12
BRANCH  10  22
ATOM     22  O   UNL     1       8.074   0.356  27.905  0.00  0.00    -0.506 OA
ATOM     23  H   UNL     1       8.023   1.155  28.458  0.00  0.00    +0.292 HD
ENDBRANCH  10  22
BRANCH   7  24
ATOM     24  O   UNL     1       4.696  -2.933  27.851  0.00  0.00    -0.461 OA
BRANCH  24  25
ATOM     25  C   UNL     1       4.776  -3.952  26.848  0.00  0.00    +0.339 C 
ATOM     26  O   UNL     1       3.560  -4.690  26.710  0.00  0.00    -0.334 OA
ATOM     27  C   UNL     1       3.257  -5.611  27.766  0.00  0.00    +0.150 C 
ATOM     28  C   UNL     1       2.705  -4.923  29.018  0.00  0.00    +0.041 C 
ATOM     29  C   UNL     1       4.403  -6.611  28.004  0.00  0.00    +0.174 C 
ATOM     30  C   UNL     1       5.773  -5.942  28.145  0.00  0.00    +0.180 C 
ATOM     31  C   UNL     1       5.989  -4.885  27.056  0.00  0.00    +0.214 C 
BRANCH  31  32
ATOM     32  O   UNL     1       7.212  -4.175  27.271  0.00  0.00    -0.383 OA
ATOM     33  H   UNL     1       6.998  -3.261  27.529  0.00  0.00    +0.210 HD
ENDBRANCH  31  32
BRANCH  30  34
ATOM     34  O   UNL     1       5.924  -5.475  29.495  0.00  0.00    -0.386 OA
ATOM     35  H   UNL     1       5.459  -6.085  30.092  0.00  0.00    +0.210 HD
ENDBRANCH  30  34
BRANCH  29  36
ATOM     36  O   UNL     1       4.150  -7.444  29.138  0.00  0.00    -0.387 OA
ATOM     37  H   UNL     1       3.564  -6.925  29.729  0.00  0.00    +0.210 HD
ENDBRANCH  29  36
ENDBRANCH  24  25
ENDBRANCH   7  24
BRANCH   1  38
ATOM     38  O   UNL     1       6.165   4.258  25.095  0.00  0.00    -0.453 OA
BRANCH  38  41
ATOM     39  C   UNL     1       8.263   2.531  22.704  0.00  0.00    +0.179 C 
ATOM     40  O   UNL     1       7.385   2.677  23.832  0.00  0.00    -0.331 OA
ATOM     41  C   UNL     1       7.336   4.041  24.271  0.00  0.00    +0.340 C 
ATOM     42  C   UNL     1       8.690   4.336  24.958  0.00  0.00    +0.214 C 
ATOM     43  C   UNL     1       9.807   4.130  23.899  0.00  0.00    +0.180 C 
ATOM     44  C   UNL     1       9.705   2.772  23.164  0.00  0.00    +0.177 C 
BRANCH  44  45
ATOM     45  O   UNL     1      10.588   2.773  22.037  0.00  0.00    -0.386 OA
ATOM     46  H   UNL     1      11.484   2.947  22.381  0.00  0.00    +0.210 HD
ENDBRANCH  44  45
BRANCH  43  47
ATOM     47  O   UNL     1       9.707   5.257  22.987  0.00  0.00    -0.386 OA
ATOM     48  H   UNL     1       8.781   5.314  22.682  0.00  0.00    +0.210 HD
ENDBRANCH  43  47
BRANCH  42  49
ATOM     49  O   UNL     1       8.762   5.696  25.420  0.00  0.00    -0.383 OA
ATOM     50  H   UNL     1       8.749   6.238  24.600  0.00  0.00    +0.210 HD
ENDBRANCH  42  49
BRANCH  39  51
ATOM     51  C   UNL     1       8.037   1.158  22.062  0.00  0.00    +0.197 C 
BRANCH  51  52
ATOM     52  O   UNL     1       9.277   0.465  21.969  0.00  0.00    -0.346 OA
BRANCH  52  56
ATOM     53  C   UNL     1       6.592  -3.413  21.829  0.00  0.00    +0.041 C 
ATOM     54  C   UNL     1       7.821  -2.828  22.509  0.00  0.00    +0.149 C 
ATOM     55  O   UNL     1       7.996  -1.499  22.008  0.00  0.00    -0.343 OA
ATOM     56  C   UNL     1       9.205  -0.880  22.450  0.00  0.00    +0.282 C 
ATOM     57  C   UNL     1       9.295  -0.804  23.990  0.00  0.00    +0.201 C 
ATOM     58  C   UNL     1       8.970  -2.170  24.611  0.00  0.00    +0.179 C 
ATOM     59  C   UNL     1       7.674  -2.756  24.034  0.00  0.00    +0.174 C 
BRANCH  59  60
ATOM     60  O   UNL     1       6.561  -1.935  24.409  0.00  0.00    -0.387 OA
ATOM     61  H   UNL     1       6.198  -1.538  23.590  0.00  0.00    +0.210 HD
ENDBRANCH  59  60
BRANCH  58  62
ATOM     62  O   UNL     1       8.929  -2.059  26.039  0.00  0.00    -0.386 OA
ATOM     63  H   UNL     1       9.706  -2.529  26.398  0.00  0.00    +0.210 HD
ENDBRANCH  58  62
BRANCH  57  64
ATOM     64  O   UNL     1      10.624  -0.384  24.357  0.00  0.00    -0.384 OA
ATOM     65  H   UNL     1      10.776  -0.666  25.276  0.00  0.00    +0.210 HD
ENDBRANCH  57  64
ENDBRANCH  52  56
ENDBRANCH  51  52
ENDBRANCH  39  51
ENDBRANCH  38  41
ENDBRANCH   1  38
TORSDOF 20
ENDMDL
MODEL 7
REMARK VINA RESULT:      -6.4      2.016      3.437
REMARK  Name = 
REMARK  22 active torsions:
REMARK  status: ('A' for Active; 'I' for Inactive)
REMARK    1  A    between atoms: C_1  and  C_2
REMARK    2  A    between atoms: C_4  and  O_68
REMARK    3  A    between atoms: C_6  and  O_67
REMARK    4  A    between atoms: C_8  and  O_66
REMARK    5  A    between atoms: C_10  and  O_13
REMARK    6  A    between atoms: O_13  and  C_14
REMARK    7  A    between atoms: C_14  and  C_15
REMARK    8  A    between atoms: C_17  and  O_65
REMARK    9  A    between atoms: C_19  and  O_64
REMARK   10  A    between atoms: C_21  and  O_63
REMARK   11  A    between atoms: C_23  and  O_26
REMARK   12  A    between atoms: O_26  and  C_27
REMARK   13  A    between atoms: C_28  and  C_55
REMARK   14  A    between atoms: C_32  and  O_39
REMARK   15  A    between atoms: C_34  and  O_38
REMARK   16  A    between atoms: O_39  and  C_40
REMARK   17  A    between atoms: C_42  and  O_54
REMARK   18  A    between atoms: C_44  and  O_53
REMARK   19  A    between atoms: C_46  and  O_52
REMARK   20  A    between atoms: C_48  and  C_51
REMARK   21  A    between atoms: C_57  and  O_62
REMARK   22  A    between atoms: C_58  and  O_61
REMARK                            x       y       z     vdW  Elec       q    Type
REMARK                         _______ _______ _______ _____ _____    ______ ____
ROOT
ATOM      1  C   UNL     1       5.646   3.033  26.376  0.00  0.00    +0.214 A 
ATOM      2  C   UNL     1       6.314   1.952  27.203  0.00  0.00    +0.238 A 
ATOM      3  O   UNL     1       6.800   2.111  28.315  0.00  0.00    -0.283 OA
ATOM      4  C   UNL     1       6.321   0.587  26.680  0.00  0.00    +0.109 A 
ATOM      5  C   UNL     1       5.220   0.266  25.928  0.00  0.00    +0.147 A 
ATOM      6  C   UNL     1       4.971  -1.069  25.598  0.00  0.00    +0.093 A 
ATOM      7  C   UNL     1       5.875  -2.060  25.990  0.00  0.00    +0.131 A 
ATOM      8  C   UNL     1       7.025  -1.708  26.704  0.00  0.00    +0.092 A 
ATOM      9  O   UNL     1       4.323   1.210  25.522  0.00  0.00    -0.451 OA
ATOM     10  C   UNL     1       7.239  -0.376  27.057  0.00  0.00    +0.135 A 
ATOM     11  C   UNL     1       4.655   2.577  25.562  0.00  0.00    +0.181 A 
ENDROOT
BRANCH  11  12
ATOM     12  C   UNL     1       3.704   3.345  24.659  0.00  0.00    +0.025 A 
ATOM     13  C   UNL     1       2.672   4.110  25.276  0.00  0.00    +0.015 A 
ATOM     14  C   UNL     1       1.813   4.955  24.566  0.00  0.00    +0.050 A 
ATOM     15  C   UNL     1       1.946   5.037  23.200  0.00  0.00    +0.158 A 
ATOM     16  C   UNL     1       2.879   4.240  22.543  0.00  0.00    +0.159 A 
ATOM     17  C   UNL     1       3.760   3.404  23.255  0.00  0.00    +0.060 A 
BRANCH  16  18
ATOM     18  O   UNL     1       2.892   4.314  21.175  0.00  0.00    -0.503 OA
ATOM     19  H   UNL     1       2.360   3.575  20.835  0.00  0.00    +0.292 HD
ENDBRANCH  16  18
BRANCH  15  20
ATOM     20  O   UNL     1       1.152   5.908  22.511  0.00  0.00    -0.503 OA
ATOM     21  H   UNL     1       1.026   6.664  23.117  0.00  0.00    +0.292 HD
ENDBRANCH  15  20
ENDBRANCH  11  12
BRANCH  10  22
ATOM     22  O   UNL     1       8.361  -0.050  27.770  0.00  0.00    -0.506 OA
ATOM     23  H   UNL     1       9.129  -0.469  27.347  0.00  0.00    +0.292 HD
ENDBRANCH  10  22
BRANCH   7  24
ATOM     24  O   UNL     1       5.747  -3.411  25.746  0.00  0.00    -0.461 OA
BRANCH  24  25
ATOM     25  C   UNL     1       6.912  -4.089  25.265  0.00  0.00    +0.339 C 
ATOM     26  O   UNL     1       7.267  -3.706  23.936  0.00  0.00    -0.334 OA
ATOM     27  C   UNL     1       6.422  -4.203  22.888  0.00  0.00    +0.150 C 
ATOM     28  C   UNL     1       5.106  -3.430  22.767  0.00  0.00    +0.041 C 
ATOM     29  C   UNL     1       6.296  -5.736  22.930  0.00  0.00    +0.174 C 
ATOM     30  C   UNL     1       5.941  -6.278  24.317  0.00  0.00    +0.180 C 
ATOM     31  C   UNL     1       6.798  -5.623  25.405  0.00  0.00    +0.214 C 
BRANCH  31  32
ATOM     32  O   UNL     1       6.373  -6.037  26.706  0.00  0.00    -0.383 OA
ATOM     33  H   UNL     1       6.829  -6.867  26.931  0.00  0.00    +0.210 HD
ENDBRANCH  31  32
BRANCH  30  34
ATOM     34  O   UNL     1       4.520  -6.174  24.506  0.00  0.00    -0.386 OA
ATOM     35  H   UNL     1       4.220  -5.317  24.160  0.00  0.00    +0.210 HD
ENDBRANCH  30  34
BRANCH  29  36
ATOM     36  O   UNL     1       5.355  -6.214  21.966  0.00  0.00    -0.387 OA
ATOM     37  H   UNL     1       4.780  -5.450  21.747  0.00  0.00    +0.210 HD
ENDBRANCH  29  36
ENDBRANCH  24  25
ENDBRANCH   7  24
BRANCH   1  38
ATOM     38  O   UNL     1       6.018   4.387  26.506  0.00  0.00    -0.453 OA
BRANCH  38  41
ATOM     39  C   UNL     1       8.503   4.666  23.890  0.00  0.00    +0.179 C 
ATOM     40  O   UNL     1       7.999   4.487  25.223  0.00  0.00    -0.331 OA
ATOM     41  C   UNL     1       6.645   4.946  25.327  0.00  0.00    +0.340 C 
ATOM     42  C   UNL     1       6.694   6.490  25.274  0.00  0.00    +0.214 C 
ATOM     43  C   UNL     1       7.317   6.894  23.911  0.00  0.00    +0.180 C 
ATOM     44  C   UNL     1       8.650   6.167  23.613  0.00  0.00    +0.177 C 
BRANCH  44  45
ATOM     45  O   UNL     1       9.015   6.382  22.245  0.00  0.00    -0.386 OA
ATOM     46  H   UNL     1       9.171   7.340  22.143  0.00  0.00    +0.210 HD
ENDBRANCH  44  45
BRANCH  43  47
ATOM     47  O   UNL     1       6.304   6.614  22.908  0.00  0.00    -0.386 OA
ATOM     48  H   UNL     1       6.280   7.368  22.288  0.00  0.00    +0.210 HD
ENDBRANCH  43  47
BRANCH  42  49
ATOM     49  O   UNL     1       5.376   7.062  25.346  0.00  0.00    -0.383 OA
ATOM     50  H   UNL     1       4.820   6.356  25.743  0.00  0.00    +0.210 HD
ENDBRANCH  42  49
BRANCH  39  51
ATOM     51  C   UNL     1       9.805   3.875  23.730  0.00  0.00    +0.197 C 
BRANCH  51  52
ATOM     52  O   UNL     1       9.731   2.674  24.491  0.00  0.00    -0.346 OA
BRANCH  52  56
ATOM     53  C   UNL     1       8.655   0.372  20.515  0.00  0.00    +0.041 C 
ATOM     54  C   UNL     1       9.471   0.243  21.793  0.00  0.00    +0.149 C 
ATOM     55  O   UNL     1       9.242   1.424  22.568  0.00  0.00    -0.343 OA
ATOM     56  C   UNL     1      10.064   1.508  23.733  0.00  0.00    +0.282 C 
ATOM     57  C   UNL     1       9.872   0.299  24.673  0.00  0.00    +0.201 C 
ATOM     58  C   UNL     1       9.957  -1.013  23.880  0.00  0.00    +0.179 C 
ATOM     59  C   UNL     1       9.064  -0.974  22.632  0.00  0.00    +0.174 C 
BRANCH  59  60
ATOM     60  O   UNL     1       7.688  -0.898  23.023  0.00  0.00    -0.387 OA
ATOM     61  H   UNL     1       7.642  -0.357  23.839  0.00  0.00    +0.210 HD
ENDBRANCH  59  60
BRANCH  58  62
ATOM     62  O   UNL     1       9.650  -2.121  24.735  0.00  0.00    -0.386 OA
ATOM     63  H   UNL     1       8.678  -2.183  24.806  0.00  0.00    +0.210 HD
ENDBRANCH  58  62
BRANCH  57  64
ATOM     64  O   UNL     1      10.888   0.340  25.695  0.00  0.00    -0.384 OA
ATOM     65  H   UNL     1      11.638  -0.197  25.383  0.00  0.00    +0.210 HD
ENDBRANCH  57  64
ENDBRANCH  52  56
ENDBRANCH  51  52
ENDBRANCH  39  51
ENDBRANCH  38  41
ENDBRANCH   1  38
TORSDOF 20
ENDMDL
MODEL 8
REMARK VINA RESULT:      -6.3      2.007      8.960
REMARK  Name = 
REMARK  22 active torsions:
REMARK  status: ('A' for Active; 'I' for Inactive)
REMARK    1  A    between atoms: C_1  and  C_2
REMARK    2  A    between atoms: C_4  and  O_68
REMARK    3  A    between atoms: C_6  and  O_67
REMARK    4  A    between atoms: C_8  and  O_66
REMARK    5  A    between atoms: C_10  and  O_13
REMARK    6  A    between atoms: O_13  and  C_14
REMARK    7  A    between atoms: C_14  and  C_15
REMARK    8  A    between atoms: C_17  and  O_65
REMARK    9  A    between atoms: C_19  and  O_64
REMARK   10  A    between atoms: C_21  and  O_63
REMARK   11  A    between atoms: C_23  and  O_26
REMARK   12  A    between atoms: O_26  and  C_27
REMARK   13  A    between atoms: C_28  and  C_55
REMARK   14  A    between atoms: C_32  and  O_39
REMARK   15  A    between atoms: C_34  and  O_38
REMARK   16  A    between atoms: O_39  and  C_40
REMARK   17  A    between atoms: C_42  and  O_54
REMARK   18  A    between atoms: C_44  and  O_53
REMARK   19  A    between atoms: C_46  and  O_52
REMARK   20  A    between atoms: C_48  and  C_51
REMARK   21  A    between atoms: C_57  and  O_62
REMARK   22  A    between atoms: C_58  and  O_61
REMARK                            x       y       z     vdW  Elec       q    Type
REMARK                         _______ _______ _______ _____ _____    ______ ____
ROOT
ATOM      1  C   UNL     1       4.911  -1.767  26.764  0.00  0.00    +0.214 A 
ATOM      2  C   UNL     1       4.311  -0.424  27.133  0.00  0.00    +0.238 A 
ATOM      3  O   UNL     1       3.284  -0.262  27.779  0.00  0.00    -0.283 OA
ATOM      4  C   UNL     1       5.043   0.786  26.762  0.00  0.00    +0.109 A 
ATOM      5  C   UNL     1       6.407   0.642  26.765  0.00  0.00    +0.147 A 
ATOM      6  C   UNL     1       7.224   1.773  26.696  0.00  0.00    +0.093 A 
ATOM      7  C   UNL     1       6.645   3.039  26.568  0.00  0.00    +0.131 A 
ATOM      8  C   UNL     1       5.253   3.163  26.505  0.00  0.00    +0.092 A 
ATOM      9  O   UNL     1       7.004  -0.580  26.879  0.00  0.00    -0.451 OA
ATOM     10  C   UNL     1       4.452   2.026  26.614  0.00  0.00    +0.135 A 
ATOM     11  C   UNL     1       6.268  -1.759  26.660  0.00  0.00    +0.181 A 
ENDROOT
BRANCH  11  12
ATOM     12  C   UNL     1       7.234  -2.904  26.400  0.00  0.00    +0.025 A 
ATOM     13  C   UNL     1       6.987  -4.144  27.059  0.00  0.00    +0.015 A 
ATOM     14  C   UNL     1       7.726  -5.306  26.809  0.00  0.00    +0.050 A 
ATOM     15  C   UNL     1       8.761  -5.250  25.906  0.00  0.00    +0.158 A 
ATOM     16  C   UNL     1       9.097  -4.040  25.306  0.00  0.00    +0.159 A 
ATOM     17  C   UNL     1       8.344  -2.873  25.537  0.00  0.00    +0.060 A 
BRANCH  16  18
ATOM     18  O   UNL     1      10.193  -4.047  24.485  0.00  0.00    -0.503 OA
ATOM     19  H   UNL     1       9.873  -4.044  23.567  0.00  0.00    +0.292 HD
ENDBRANCH  16  18
BRANCH  15  20
ATOM     20  O   UNL     1       9.443  -6.396  25.613  0.00  0.00    -0.503 OA
ATOM     21  H   UNL     1       8.841  -6.903  25.034  0.00  0.00    +0.292 HD
ENDBRANCH  15  20
ENDBRANCH  11  12
BRANCH  10  22
ATOM     22  O   UNL     1       3.091   2.166  26.566  0.00  0.00    -0.506 OA
ATOM     23  H   UNL     1       2.689   1.468  27.112  0.00  0.00    +0.292 HD
ENDBRANCH  10  22
BRANCH   7  24
ATOM     24  O   UNL     1       7.327   4.236  26.504  0.00  0.00    -0.461 OA
BRANCH  24  25
ATOM     25  C   UNL     1       6.893   5.168  25.508  0.00  0.00    +0.339 C 
ATOM     26  O   UNL     1       7.231   4.760  24.182  0.00  0.00    -0.334 OA
ATOM     27  C   UNL     1       8.616   4.866  23.823  0.00  0.00    +0.150 C 
ATOM     28  C   UNL     1       9.470   3.732  24.397  0.00  0.00    +0.041 C 
ATOM     29  C   UNL     1       9.160   6.289  24.042  0.00  0.00    +0.174 C 
ATOM     30  C   UNL     1       8.839   6.854  25.428  0.00  0.00    +0.180 C 
ATOM     31  C   UNL     1       7.373   6.606  25.803  0.00  0.00    +0.214 C 
BRANCH  31  32
ATOM     32  O   UNL     1       7.114   7.020  27.147  0.00  0.00    -0.383 OA
ATOM     33  H   UNL     1       6.370   6.498  27.493  0.00  0.00    +0.210 HD
ENDBRANCH  31  32
BRANCH  30  34
ATOM     34  O   UNL     1       9.807   6.359  26.367  0.00  0.00    -0.386 OA
ATOM     35  H   UNL     1       9.465   5.542  26.767  0.00  0.00    +0.210 HD
ENDBRANCH  30  34
BRANCH  29  36
ATOM     36  O   UNL     1      10.568   6.358  23.803  0.00  0.00    -0.387 OA
ATOM     37  H   UNL     1      10.867   7.207  24.193  0.00  0.00    +0.210 HD
ENDBRANCH  29  36
ENDBRANCH  24  25
ENDBRANCH   7  24
BRANCH   1  38
ATOM     38  O   UNL     1       4.101  -2.908  26.598  0.00  0.00    -0.453 OA
BRANCH  38  41
ATOM     39  C   UNL     1       5.361  -3.632  23.283  0.00  0.00    +0.179 C 
ATOM     40  O   UNL     1       4.606  -2.939  24.290  0.00  0.00    -0.331 OA
ATOM     41  C   UNL     1       4.470  -3.740  25.471  0.00  0.00    +0.340 C 
ATOM     42  C   UNL     1       3.472  -4.871  25.131  0.00  0.00    +0.214 C 
ATOM     43  C   UNL     1       4.078  -5.696  23.964  0.00  0.00    +0.180 C 
ATOM     44  C   UNL     1       4.536  -4.820  22.774  0.00  0.00    +0.177 C 
BRANCH  44  45
ATOM     45  O   UNL     1       5.318  -5.611  21.872  0.00  0.00    -0.386 OA
ATOM     46  H   UNL     1       6.252  -5.481  22.121  0.00  0.00    +0.210 HD
ENDBRANCH  44  45
BRANCH  43  47
ATOM     47  O   UNL     1       5.175  -6.457  24.538  0.00  0.00    -0.386 OA
ATOM     48  H   UNL     1       5.389  -7.184  23.923  0.00  0.00    +0.210 HD
ENDBRANCH  43  47
BRANCH  42  49
ATOM     49  O   UNL     1       3.279  -5.757  26.247  0.00  0.00    -0.383 OA
ATOM     50  H   UNL     1       2.752  -5.235  26.891  0.00  0.00    +0.210 HD
ENDBRANCH  42  49
BRANCH  39  51
ATOM     51  C   UNL     1       5.767  -2.642  22.186  0.00  0.00    +0.197 C 
BRANCH  51  52
ATOM     52  O   UNL     1       7.182  -2.483  22.186  0.00  0.00    -0.346 OA
BRANCH  52  56
ATOM     53  C   UNL     1       5.817   1.955  23.023  0.00  0.00    +0.041 C 
ATOM     54  C   UNL     1       7.016   1.025  23.144  0.00  0.00    +0.149 C 
ATOM     55  O   UNL     1       6.626  -0.246  22.613  0.00  0.00    -0.343 OA
ATOM     56  C   UNL     1       7.609  -1.265  22.800  0.00  0.00    +0.282 C 
ATOM     57  C   UNL     1       8.963  -0.896  22.155  0.00  0.00    +0.201 C 
ATOM     58  C   UNL     1       9.379   0.525  22.563  0.00  0.00    +0.179 C 
ATOM     59  C   UNL     1       8.233   1.526  22.356  0.00  0.00    +0.174 C 
BRANCH  59  60
ATOM     60  O   UNL     1       7.935   1.642  20.960  0.00  0.00    -0.387 OA
ATOM     61  H   UNL     1       8.142   2.560  20.689  0.00  0.00    +0.210 HD
ENDBRANCH  59  60
BRANCH  58  62
ATOM     62  O   UNL     1      10.568   0.907  21.860  0.00  0.00    -0.386 OA
ATOM     63  H   UNL     1      10.920   1.712  22.285  0.00  0.00    +0.210 HD
ENDBRANCH  58  62
BRANCH  57  64
ATOM     64  O   UNL     1       9.955  -1.854  22.578  0.00  0.00    -0.384 OA
ATOM     65  H   UNL     1      10.163  -1.665  23.510  0.00  0.00    +0.210 HD
ENDBRANCH  57  64
ENDBRANCH  52  56
ENDBRANCH  51  52
ENDBRANCH  39  51
ENDBRANCH  38  41
ENDBRANCH   1  38
TORSDOF 20
ENDMDL
MODEL 9
REMARK VINA RESULT:      -6.2      2.107      5.797
REMARK  Name = 
REMARK  22 active torsions:
REMARK  status: ('A' for Active; 'I' for Inactive)
REMARK    1  A    between atoms: C_1  and  C_2
REMARK    2  A    between atoms: C_4  and  O_68
REMARK    3  A    between atoms: C_6  and  O_67
REMARK    4  A    between atoms: C_8  and  O_66
REMARK    5  A    between atoms: C_10  and  O_13
REMARK    6  A    between atoms: O_13  and  C_14
REMARK    7  A    between atoms: C_14  and  C_15
REMARK    8  A    between atoms: C_17  and  O_65
REMARK    9  A    between atoms: C_19  and  O_64
REMARK   10  A    between atoms: C_21  and  O_63
REMARK   11  A    between atoms: C_23  and  O_26
REMARK   12  A    between atoms: O_26  and  C_27
REMARK   13  A    between atoms: C_28  and  C_55
REMARK   14  A    between atoms: C_32  and  O_39
REMARK   15  A    between atoms: C_34  and  O_38
REMARK   16  A    between atoms: O_39  and  C_40
REMARK   17  A    between atoms: C_42  and  O_54
REMARK   18  A    between atoms: C_44  and  O_53
REMARK   19  A    between atoms: C_46  and  O_52
REMARK   20  A    between atoms: C_48  and  C_51
REMARK   21  A    between atoms: C_57  and  O_62
REMARK   22  A    between atoms: C_58  and  O_61
REMARK                            x       y       z     vdW  Elec       q    Type
REMARK                         _______ _______ _______ _____ _____    ______ ____
ROOT
ATOM      1  C   UNL     1       8.494  -1.693  25.437  0.00  0.00    +0.214 A 
ATOM      2  C   UNL     1       8.642  -3.022  24.722  0.00  0.00    +0.238 A 
ATOM      3  O   UNL     1       9.704  -3.529  24.386  0.00  0.00    -0.283 OA
ATOM      4  C   UNL     1       7.438  -3.811  24.473  0.00  0.00    +0.109 A 
ATOM      5  C   UNL     1       6.467  -3.675  25.432  0.00  0.00    +0.147 A 
ATOM      6  C   UNL     1       5.390  -4.566  25.461  0.00  0.00    +0.093 A 
ATOM      7  C   UNL     1       5.282  -5.554  24.478  0.00  0.00    +0.131 A 
ATOM      8  C   UNL     1       6.249  -5.640  23.471  0.00  0.00    +0.092 A 
ATOM      9  O   UNL     1       6.537  -2.715  26.399  0.00  0.00    -0.451 OA
ATOM     10  C   UNL     1       7.337  -4.768  23.480  0.00  0.00    +0.135 A 
ATOM     11  C   UNL     1       7.414  -1.624  26.262  0.00  0.00    +0.181 A 
ENDROOT
BRANCH  11  12
ATOM     12  C   UNL     1       6.977  -0.515  27.205  0.00  0.00    +0.025 A 
ATOM     13  C   UNL     1       5.578  -0.307  27.385  0.00  0.00    +0.015 A 
ATOM     14  C   UNL     1       5.049   0.595  28.314  0.00  0.00    +0.050 A 
ATOM     15  C   UNL     1       5.915   1.342  29.078  0.00  0.00    +0.158 A 
ATOM     16  C   UNL     1       7.288   1.239  28.875  0.00  0.00    +0.159 A 
ATOM     17  C   UNL     1       7.826   0.318  27.956  0.00  0.00    +0.060 A 
BRANCH  16  18
ATOM     18  O   UNL     1       8.080   2.077  29.613  0.00  0.00    -0.503 OA
ATOM     19  H   UNL     1       7.561   2.875  29.811  0.00  0.00    +0.292 HD
ENDBRANCH  16  18
BRANCH  15  20
ATOM     20  O   UNL     1       5.403   2.175  30.030  0.00  0.00    -0.503 OA
ATOM     21  H   UNL     1       4.544   1.780  30.273  0.00  0.00    +0.292 HD
ENDBRANCH  15  20
ENDBRANCH  11  12
BRANCH  10  22
ATOM     22  O   UNL     1       8.283  -4.875  22.497  0.00  0.00    -0.506 OA
ATOM     23  H   UNL     1       7.869  -4.655  21.644  0.00  0.00    +0.292 HD
ENDBRANCH  10  22
BRANCH   7  24
ATOM     24  O   UNL     1       4.286  -6.504  24.395  0.00  0.00    -0.461 OA
BRANCH  24  25
ATOM     25  C   UNL     1       2.938  -6.023  24.423  0.00  0.00    +0.339 C 
ATOM     26  O   UNL     1       2.563  -5.500  25.699  0.00  0.00    -0.334 OA
ATOM     27  C   UNL     1       2.347  -6.466  26.738  0.00  0.00    +0.150 C 
ATOM     28  C   UNL     1       3.652  -7.002  27.333  0.00  0.00    +0.041 C 
ATOM     29  C   UNL     1       1.312  -7.529  26.330  0.00  0.00    +0.174 C 
ATOM     30  C   UNL     1       1.590  -8.151  24.959  0.00  0.00    +0.180 C 
ATOM     31  C   UNL     1       1.929  -7.077  23.919  0.00  0.00    +0.214 C 
BRANCH  31  32
ATOM     32  O   UNL     1       2.313  -7.673  22.678  0.00  0.00    -0.383 OA
ATOM     33  H   UNL     1       2.078  -8.617  22.701  0.00  0.00    +0.210 HD
ENDBRANCH  31  32
BRANCH  30  34
ATOM     34  O   UNL     1       2.570  -9.190  25.112  0.00  0.00    -0.386 OA
ATOM     35  H   UNL     1       3.104  -9.003  25.902  0.00  0.00    +0.210 HD
ENDBRANCH  30  34
BRANCH  29  36
ATOM     36  O   UNL     1       1.195  -8.557  27.316  0.00  0.00    -0.387 OA
ATOM     37  H   UNL     1       0.236  -8.752  27.391  0.00  0.00    +0.210 HD
ENDBRANCH  29  36
ENDBRANCH  24  25
ENDBRANCH   7  24
BRANCH   1  38
ATOM     38  O   UNL     1       9.442  -0.663  25.268  0.00  0.00    -0.453 OA
BRANCH  38  41
ATOM     39  C   UNL     1       7.814   2.015  23.458  0.00  0.00    +0.179 C 
ATOM     40  O   UNL     1       7.914   0.862  24.309  0.00  0.00    -0.331 OA
ATOM     41  C   UNL     1       9.179   0.208  24.142  0.00  0.00    +0.340 C 
ATOM     42  C   UNL     1       9.140  -0.490  22.763  0.00  0.00    +0.214 C 
ATOM     43  C   UNL     1       8.934   0.609  21.686  0.00  0.00    +0.180 C 
ATOM     44  C   UNL     1       7.747   1.550  21.998  0.00  0.00    +0.177 C 
BRANCH  44  45
ATOM     45  O   UNL     1       7.789   2.680  21.120  0.00  0.00    -0.386 OA
ATOM     46  H   UNL     1       8.515   2.518  20.488  0.00  0.00    +0.210 HD
ENDBRANCH  44  45
BRANCH  43  47
ATOM     47  O   UNL     1      10.194   1.326  21.599  0.00  0.00    -0.386 OA
ATOM     48  H   UNL     1      10.599   1.117  20.735  0.00  0.00    +0.210 HD
ENDBRANCH  43  47
BRANCH  42  49
ATOM     49  O   UNL     1      10.379  -1.163  22.478  0.00  0.00    -0.383 OA
ATOM     50  H   UNL     1      10.961  -0.465  22.106  0.00  0.00    +0.210 HD
ENDBRANCH  42  49
BRANCH  39  51
ATOM     51  C   UNL     1       6.617   2.865  23.895  0.00  0.00    +0.197 C 
BRANCH  51  52
ATOM     52  O   UNL     1       6.401   3.909  22.951  0.00  0.00    -0.346 OA
BRANCH  52  56
ATOM     53  C   UNL     1      10.287   6.316  24.122  0.00  0.00    +0.041 C 
ATOM     54  C   UNL     1       8.768   6.409  24.135  0.00  0.00    +0.149 C 
ATOM     55  O   UNL     1       8.259   5.181  23.604  0.00  0.00    -0.343 OA
ATOM     56  C   UNL     1       6.843   5.186  23.417  0.00  0.00    +0.282 C 
ATOM     57  C   UNL     1       6.081   5.466  24.730  0.00  0.00    +0.201 C 
ATOM     58  C   UNL     1       6.672   6.693  25.439  0.00  0.00    +0.179 C 
ATOM     59  C   UNL     1       8.201   6.597  25.548  0.00  0.00    +0.174 C 
BRANCH  59  60
ATOM     60  O   UNL     1       8.558   5.502  26.400  0.00  0.00    -0.387 OA
ATOM     61  H   UNL     1       7.728   5.102  26.732  0.00  0.00    +0.210 HD
ENDBRANCH  59  60
BRANCH  58  62
ATOM     62  O   UNL     1       6.046   6.868  26.716  0.00  0.00    -0.386 OA
ATOM     63  H   UNL     1       6.320   7.738  27.067  0.00  0.00    +0.210 HD
ENDBRANCH  58  62
BRANCH  57  64
ATOM     64  O   UNL     1       4.689   5.681  24.422  0.00  0.00    -0.384 OA
ATOM     65  H   UNL     1       4.464   5.104  23.672  0.00  0.00    +0.210 HD
ENDBRANCH  57  64
ENDBRANCH  52  56
ENDBRANCH  51  52
ENDBRANCH  39  51
ENDBRANCH  38  41
ENDBRANCH   1  38
TORSDOF 20
ENDMDL
