MODEL 1
REMARK VINA RESULT:      -7.0      0.000      0.000
REMARK  Name = 
REMARK  16 active torsions:
REMARK  status: ('A' for Active; 'I' for Inactive)
REMARK    1  A    between atoms: C_1  and  C_2
REMARK    2  A    between atoms: C_2  and  O_4
REMARK    3  A    between atoms: O_4  and  C_5
REMARK    4  A    between atoms: C_6  and  O_34
REMARK    5  A    between atoms: C_8  and  C_11
REMARK    6  A    between atoms: C_12  and  O_30
REMARK    7  A    between atoms: C_19  and  O_26
REMARK    8  A    between atoms: C_21  and  O_22
REMARK    9  A    between atoms: O_22  and  C_23
REMARK   10  A    between atoms: C_23  and  C_25
REMARK   11  A    between atoms: O_26  and  C_27
REMARK   12  A    between atoms: C_27  and  C_29
REMARK   13  A    between atoms: O_30  and  C_31
REMARK   14  A    between atoms: C_31  and  C_33
REMARK   15  A    between atoms: O_34  and  C_35
REMARK   16  A    between atoms: C_35  and  C_37
REMARK                            x       y       z     vdW  Elec       q    Type
REMARK                         _______ _______ _______ _____ _____    ______ ____
ROOT
ATOM      1  C   UNL     1       7.977   0.315  24.695  0.00  0.00    +0.182 A 
ATOM      2  O   UNL     1       7.363   1.553  24.579  0.00  0.00    -0.451 OA
ATOM      3  C   UNL     1       8.111   2.645  24.235  0.00  0.00    +0.147 A 
ATOM      4  C   UNL     1       7.411   3.859  24.138  0.00  0.00    +0.093 A 
ATOM      5  C   UNL     1       8.093   5.025  23.803  0.00  0.00    +0.139 A 
ATOM      6  C   UNL     1       9.452   4.972  23.522  0.00  0.00    +0.093 A 
ATOM      7  C   UNL     1      10.150   3.758  23.641  0.00  0.00    +0.150 A 
ATOM      8  C   UNL     1       9.487   2.584  24.018  0.00  0.00    +0.110 A 
ATOM      9  C   UNL     1      10.165   1.283  24.239  0.00  0.00    +0.239 A 
ATOM     10  O   UNL     1      11.386   1.173  24.232  0.00  0.00    -0.283 OA
ATOM     11  C   UNL     1       9.296   0.101  24.517  0.00  0.00    +0.221 A 
ENDROOT
BRANCH   1  15
ATOM     12  C   UNL     1       5.634  -3.052  25.769  0.00  0.00    +0.174 A 
ATOM     13  C   UNL     1       6.247  -2.289  26.764  0.00  0.00    +0.051 A 
ATOM     14  C   UNL     1       6.920  -1.116  26.414  0.00  0.00    +0.015 A 
ATOM     15  C   UNL     1       6.996  -0.708  25.077  0.00  0.00    +0.025 A 
ATOM     16  C   UNL     1       6.330  -1.447  24.085  0.00  0.00    +0.061 A 
ATOM     17  C   UNL     1       5.661  -2.624  24.438  0.00  0.00    +0.174 A 
BRANCH  12  18
ATOM     18  O   UNL     1       5.136  -4.350  26.034  0.00  0.00    -0.422 OA
BRANCH  18  20
ATOM     19  C   UNL     1       5.228  -6.525  26.938  0.00  0.00    +0.136 C 
ATOM     20  C   UNL     1       5.995  -5.421  26.271  0.00  0.00    +0.309 C 
ATOM     21  O   UNL     1       7.176  -5.496  25.962  0.00  0.00    -0.251 OA
ENDBRANCH  18  20
ENDBRANCH  12  18
BRANCH  17  22
ATOM     22  O   UNL     1       5.152  -3.520  23.465  0.00  0.00    -0.422 OA
BRANCH  22  23
ATOM     23  C   UNL     1       5.819  -3.819  22.278  0.00  0.00    +0.309 C 
ATOM     24  C   UNL     1       6.730  -4.991  22.505  0.00  0.00    +0.136 C 
ATOM     25  O   UNL     1       5.686  -3.251  21.203  0.00  0.00    -0.251 OA
ENDBRANCH  22  23
ENDBRANCH  17  22
ENDBRANCH   1  15
BRANCH   5  26
ATOM     26  O   UNL     1       7.340   6.217  23.730  0.00  0.00    -0.426 OA
BRANCH  26  27
ATOM     27  C   UNL     1       6.623   6.565  22.579  0.00  0.00    +0.309 C 
ATOM     28  C   UNL     1       5.156   6.642  22.887  0.00  0.00    +0.136 C 
ATOM     29  O   UNL     1       7.085   6.791  21.469  0.00  0.00    -0.251 OA
ENDBRANCH  26  27
ENDBRANCH   5  26
BRANCH   7  30
ATOM     30  O   UNL     1      11.553   3.789  23.543  0.00  0.00    -0.425 OA
BRANCH  30  31
ATOM     31  C   UNL     1      12.161   5.043  23.526  0.00  0.00    +0.309 C 
ATOM     32  C   UNL     1      12.828   5.235  22.197  0.00  0.00    +0.136 C 
ATOM     33  O   UNL     1      12.193   5.848  24.445  0.00  0.00    -0.251 OA
ENDBRANCH  30  31
ENDBRANCH   7  30
BRANCH  11  34
ATOM     34  O   UNL     1       9.934  -1.137  24.720  0.00  0.00    -0.418 OA
BRANCH  34  35
ATOM     35  C   UNL     1       9.816  -2.009  23.670  0.00  0.00    +0.309 C 
ATOM     36  C   UNL     1       9.441  -3.379  24.173  0.00  0.00    +0.136 C 
ATOM     37  O   UNL     1       9.974  -1.745  22.484  0.00  0.00    -0.251 OA
ENDBRANCH  34  35
ENDBRANCH  11  34
TORSDOF 11
ENDMDL
MODEL 2
REMARK VINA RESULT:      -6.9      1.634      2.001
REMARK  Name = 
REMARK  16 active torsions:
REMARK  status: ('A' for Active; 'I' for Inactive)
REMARK    1  A    between atoms: C_1  and  C_2
REMARK    2  A    between atoms: C_2  and  O_4
REMARK    3  A    between atoms: O_4  and  C_5
REMARK    4  A    between atoms: C_6  and  O_34
REMARK    5  A    between atoms: C_8  and  C_11
REMARK    6  A    between atoms: C_12  and  O_30
REMARK    7  A    between atoms: C_19  and  O_26
REMARK    8  A    between atoms: C_21  and  O_22
REMARK    9  A    between atoms: O_22  and  C_23
REMARK   10  A    between atoms: C_23  and  C_25
REMARK   11  A    between atoms: O_26  and  C_27
REMARK   12  A    between atoms: C_27  and  C_29
REMARK   13  A    between atoms: O_30  and  C_31
REMARK   14  A    between atoms: C_31  and  C_33
REMARK   15  A    between atoms: O_34  and  C_35
REMARK   16  A    between atoms: C_35  and  C_37
REMARK                            x       y       z     vdW  Elec       q    Type
REMARK                         _______ _______ _______ _____ _____    ______ ____
ROOT
ATOM      1  C   UNL     1       7.217  -0.525  24.337  0.00  0.00    +0.182 A 
ATOM      2  O   UNL     1       6.213   0.368  23.998  0.00  0.00    -0.451 OA
ATOM      3  C   UNL     1       6.543   1.643  23.627  0.00  0.00    +0.147 A 
ATOM      4  C   UNL     1       5.465   2.482  23.299  0.00  0.00    +0.093 A 
ATOM      5  C   UNL     1       5.707   3.799  22.919  0.00  0.00    +0.139 A 
ATOM      6  C   UNL     1       7.013   4.261  22.824  0.00  0.00    +0.093 A 
ATOM      7  C   UNL     1       8.084   3.422  23.174  0.00  0.00    +0.150 A 
ATOM      8  C   UNL     1       7.857   2.107  23.598  0.00  0.00    +0.110 A 
ATOM      9  C   UNL     1       8.927   1.187  24.056  0.00  0.00    +0.239 A 
ATOM     10  O   UNL     1      10.084   1.559  24.219  0.00  0.00    -0.283 OA
ATOM     11  C   UNL     1       8.530  -0.221  24.357  0.00  0.00    +0.221 A 
ENDROOT
BRANCH   1  15
ATOM     12  C   UNL     1       6.131  -4.519  25.257  0.00  0.00    +0.174 A 
ATOM     13  C   UNL     1       6.664  -3.699  26.252  0.00  0.00    +0.051 A 
ATOM     14  C   UNL     1       6.911  -2.353  25.975  0.00  0.00    +0.015 A 
ATOM     15  C   UNL     1       6.643  -1.823  24.707  0.00  0.00    +0.025 A 
ATOM     16  C   UNL     1       6.053  -2.636  23.724  0.00  0.00    +0.061 A 
ATOM     17  C   UNL     1       5.811  -3.986  24.004  0.00  0.00    +0.174 A 
BRANCH  12  18
ATOM     18  O   UNL     1       6.070  -5.925  25.409  0.00  0.00    -0.422 OA
BRANCH  18  20
ATOM     19  C   UNL     1       3.847  -6.620  25.775  0.00  0.00    +0.136 C 
ATOM     20  C   UNL     1       5.229  -6.516  26.350  0.00  0.00    +0.309 C 
ATOM     21  O   UNL     1       5.545  -6.931  27.457  0.00  0.00    -0.251 OA
ENDBRANCH  18  20
ENDBRANCH  12  18
BRANCH  17  22
ATOM     22  O   UNL     1       5.418  -4.903  22.997  0.00  0.00    -0.422 OA
BRANCH  22  23
ATOM     23  C   UNL     1       6.083  -5.033  21.779  0.00  0.00    +0.309 C 
ATOM     24  C   UNL     1       7.207  -6.018  21.933  0.00  0.00    +0.136 C 
ATOM     25  O   UNL     1       5.805  -4.467  20.731  0.00  0.00    -0.251 OA
ENDBRANCH  22  23
ENDBRANCH  17  22
ENDBRANCH   1  15
BRANCH   5  26
ATOM     26  O   UNL     1       4.585   4.600  22.611  0.00  0.00    -0.426 OA
BRANCH  26  27
ATOM     27  C   UNL     1       4.461   5.908  23.092  0.00  0.00    +0.309 C 
ATOM     28  C   UNL     1       4.125   5.891  24.555  0.00  0.00    +0.136 C 
ATOM     29  O   UNL     1       4.607   6.941  22.453  0.00  0.00    -0.251 OA
ENDBRANCH  26  27
ENDBRANCH   5  26
BRANCH   7  30
ATOM     30  O   UNL     1       9.369   3.989  23.254  0.00  0.00    -0.425 OA
BRANCH  30  31
ATOM     31  C   UNL     1       9.577   4.957  24.236  0.00  0.00    +0.309 C 
ATOM     32  C   UNL     1      10.687   5.861  23.791  0.00  0.00    +0.136 C 
ATOM     33  O   UNL     1       8.992   5.044  25.306  0.00  0.00    -0.251 OA
ENDBRANCH  30  31
ENDBRANCH   7  30
BRANCH  11  34
ATOM     34  O   UNL     1       9.543  -1.100  24.784  0.00  0.00    -0.418 OA
BRANCH  34  35
ATOM     35  C   UNL     1       9.873  -2.065  23.869  0.00  0.00    +0.309 C 
ATOM     36  C   UNL     1      10.332  -1.426  22.584  0.00  0.00    +0.136 C 
ATOM     37  O   UNL     1       9.824  -3.277  24.041  0.00  0.00    -0.251 OA
ENDBRANCH  34  35
ENDBRANCH  11  34
TORSDOF 11
ENDMDL
MODEL 3
REMARK VINA RESULT:      -6.8      2.073      2.500
REMARK  Name = 
REMARK  16 active torsions:
REMARK  status: ('A' for Active; 'I' for Inactive)
REMARK    1  A    between atoms: C_1  and  C_2
REMARK    2  A    between atoms: C_2  and  O_4
REMARK    3  A    between atoms: O_4  and  C_5
REMARK    4  A    between atoms: C_6  and  O_34
REMARK    5  A    between atoms: C_8  and  C_11
REMARK    6  A    between atoms: C_12  and  O_30
REMARK    7  A    between atoms: C_19  and  O_26
REMARK    8  A    between atoms: C_21  and  O_22
REMARK    9  A    between atoms: O_22  and  C_23
REMARK   10  A    between atoms: C_23  and  C_25
REMARK   11  A    between atoms: O_26  and  C_27
REMARK   12  A    between atoms: C_27  and  C_29
REMARK   13  A    between atoms: O_30  and  C_31
REMARK   14  A    between atoms: C_31  and  C_33
REMARK   15  A    between atoms: O_34  and  C_35
REMARK   16  A    between atoms: C_35  and  C_37
REMARK                            x       y       z     vdW  Elec       q    Type
REMARK                         _______ _______ _______ _____ _____    ______ ____
ROOT
ATOM      1  C   UNL     1       8.480   1.081  24.803  0.00  0.00    +0.182 A 
ATOM      2  O   UNL     1       7.907   2.130  25.505  0.00  0.00    -0.451 OA
ATOM      3  C   UNL     1       8.305   3.412  25.242  0.00  0.00    +0.147 A 
ATOM      4  C   UNL     1       7.674   4.414  25.998  0.00  0.00    +0.093 A 
ATOM      5  C   UNL     1       8.023   5.747  25.804  0.00  0.00    +0.139 A 
ATOM      6  C   UNL     1       8.960   6.081  24.835  0.00  0.00    +0.093 A 
ATOM      7  C   UNL     1       9.602   5.072  24.098  0.00  0.00    +0.150 A 
ATOM      8  C   UNL     1       9.292   3.723  24.309  0.00  0.00    +0.110 A 
ATOM      9  C   UNL     1       9.979   2.599  23.628  0.00  0.00    +0.239 A 
ATOM     10  O   UNL     1      10.965   2.767  22.918  0.00  0.00    -0.283 OA
ATOM     11  C   UNL     1       9.445   1.226  23.873  0.00  0.00    +0.221 A 
ENDROOT
BRANCH   1  15
ATOM     12  C   UNL     1       7.278  -2.887  25.692  0.00  0.00    +0.174 A 
ATOM     13  C   UNL     1       8.268  -2.275  26.460  0.00  0.00    +0.051 A 
ATOM     14  C   UNL     1       8.578  -0.931  26.239  0.00  0.00    +0.015 A 
ATOM     15  C   UNL     1       7.915  -0.199  25.246  0.00  0.00    +0.025 A 
ATOM     16  C   UNL     1       6.880  -0.801  24.512  0.00  0.00    +0.061 A 
ATOM     17  C   UNL     1       6.575  -2.150  24.733  0.00  0.00    +0.174 A 
BRANCH  12  18
ATOM     18  O   UNL     1       7.081  -4.288  25.719  0.00  0.00    -0.422 OA
BRANCH  18  20
ATOM     19  C   UNL     1       9.172  -5.334  25.420  0.00  0.00    +0.136 C 
ATOM     20  C   UNL     1       7.998  -5.138  26.334  0.00  0.00    +0.309 C 
ATOM     21  O   UNL     1       7.909  -5.627  27.452  0.00  0.00    -0.251 OA
ENDBRANCH  18  20
ENDBRANCH  12  18
BRANCH  17  22
ATOM     22  O   UNL     1       5.694  -2.869  23.889  0.00  0.00    -0.422 OA
BRANCH  22  23
ATOM     23  C   UNL     1       5.992  -3.186  22.565  0.00  0.00    +0.309 C 
ATOM     24  C   UNL     1       7.003  -4.297  22.539  0.00  0.00    +0.136 C 
ATOM     25  O   UNL     1       5.507  -2.676  21.564  0.00  0.00    -0.251 OA
ENDBRANCH  22  23
ENDBRANCH  17  22
ENDBRANCH   1  15
BRANCH   5  26
ATOM     26  O   UNL     1       7.363   6.711  26.599  0.00  0.00    -0.426 OA
BRANCH  26  27
ATOM     27  C   UNL     1       7.544   6.769  27.985  0.00  0.00    +0.309 C 
ATOM     28  C   UNL     1       6.217   6.874  28.677  0.00  0.00    +0.136 C 
ATOM     29  O   UNL     1       8.609   6.731  28.588  0.00  0.00    -0.251 OA
ENDBRANCH  26  27
ENDBRANCH   5  26
BRANCH   7  30
ATOM     30  O   UNL     1      10.681   5.440  23.273  0.00  0.00    -0.425 OA
BRANCH  30  31
ATOM     31  C   UNL     1      11.850   5.859  23.905  0.00  0.00    +0.309 C 
ATOM     32  C   UNL     1      13.026   5.357  23.121  0.00  0.00    +0.136 C 
ATOM     33  O   UNL     1      11.926   6.493  24.947  0.00  0.00    -0.251 OA
ENDBRANCH  30  31
ENDBRANCH   7  30
BRANCH  11  34
ATOM     34  O   UNL     1      10.088   0.155  23.223  0.00  0.00    -0.418 OA
BRANCH  34  35
ATOM     35  C   UNL     1       9.526  -0.192  22.023  0.00  0.00    +0.309 C 
ATOM     36  C   UNL     1       9.425  -1.692  21.912  0.00  0.00    +0.136 C 
ATOM     37  O   UNL     1       9.141   0.577  21.150  0.00  0.00    -0.251 OA
ENDBRANCH  34  35
ENDBRANCH  11  34
TORSDOF 11
ENDMDL
MODEL 4
REMARK VINA RESULT:      -6.7      1.892      2.507
REMARK  Name = 
REMARK  16 active torsions:
REMARK  status: ('A' for Active; 'I' for Inactive)
REMARK    1  A    between atoms: C_1  and  C_2
REMARK    2  A    between atoms: C_2  and  O_4
REMARK    3  A    between atoms: O_4  and  C_5
REMARK    4  A    between atoms: C_6  and  O_34
REMARK    5  A    between atoms: C_8  and  C_11
REMARK    6  A    between atoms: C_12  and  O_30
REMARK    7  A    between atoms: C_19  and  O_26
REMARK    8  A    between atoms: C_21  and  O_22
REMARK    9  A    between atoms: O_22  and  C_23
REMARK   10  A    between atoms: C_23  and  C_25
REMARK   11  A    between atoms: O_26  and  C_27
REMARK   12  A    between atoms: C_27  and  C_29
REMARK   13  A    between atoms: O_30  and  C_31
REMARK   14  A    between atoms: C_31  and  C_33
REMARK   15  A    between atoms: O_34  and  C_35
REMARK   16  A    between atoms: C_35  and  C_37
REMARK                            x       y       z     vdW  Elec       q    Type
REMARK                         _______ _______ _______ _____ _____    ______ ____
ROOT
ATOM      1  C   UNL     1       6.790  -1.309  24.469  0.00  0.00    +0.182 A 
ATOM      2  O   UNL     1       6.038  -0.241  24.005  0.00  0.00    -0.451 OA
ATOM      3  C   UNL     1       6.631   0.981  23.845  0.00  0.00    +0.147 A 
ATOM      4  C   UNL     1       5.797   2.006  23.370  0.00  0.00    +0.093 A 
ATOM      5  C   UNL     1       6.313   3.286  23.185  0.00  0.00    +0.139 A 
ATOM      6  C   UNL     1       7.659   3.528  23.429  0.00  0.00    +0.093 A 
ATOM      7  C   UNL     1       8.482   2.503  23.924  0.00  0.00    +0.150 A 
ATOM      8  C   UNL     1       7.969   1.220  24.154  0.00  0.00    +0.110 A 
ATOM      9  C   UNL     1       8.752   0.108  24.746  0.00  0.00    +0.239 A 
ATOM     10  O   UNL     1       9.880   0.271  25.199  0.00  0.00    -0.283 OA
ATOM     11  C   UNL     1       8.092  -1.230  24.811  0.00  0.00    +0.221 A 
ENDROOT
BRANCH   1  15
ATOM     12  C   UNL     1       4.942  -5.110  24.801  0.00  0.00    +0.174 A 
ATOM     13  C   UNL     1       5.220  -4.373  25.952  0.00  0.00    +0.051 A 
ATOM     14  C   UNL     1       5.722  -3.075  25.833  0.00  0.00    +0.015 A 
ATOM     15  C   UNL     1       5.959  -2.513  24.572  0.00  0.00    +0.025 A 
ATOM     16  C   UNL     1       5.624  -3.237  23.415  0.00  0.00    +0.061 A 
ATOM     17  C   UNL     1       5.127  -4.539  23.538  0.00  0.00    +0.174 A 
BRANCH  12  18
ATOM     18  O   UNL     1       4.648  -6.494  24.862  0.00  0.00    -0.422 OA
BRANCH  18  20
ATOM     19  C   UNL     1       2.680  -7.582  24.155  0.00  0.00    +0.136 C 
ATOM     20  C   UNL     1       3.410  -6.953  25.306  0.00  0.00    +0.309 C 
ATOM     21  O   UNL     1       2.977  -6.904  26.449  0.00  0.00    -0.251 OA
ENDBRANCH  18  20
ENDBRANCH  12  18
BRANCH  17  22
ATOM     22  O   UNL     1       4.969  -5.392  22.418  0.00  0.00    -0.422 OA
BRANCH  22  23
ATOM     23  C   UNL     1       5.944  -5.551  21.434  0.00  0.00    +0.309 C 
ATOM     24  C   UNL     1       7.101  -6.321  22.005  0.00  0.00    +0.136 C 
ATOM     25  O   UNL     1       5.885  -5.157  20.278  0.00  0.00    -0.251 OA
ENDBRANCH  22  23
ENDBRANCH  17  22
ENDBRANCH   1  15
BRANCH   5  26
ATOM     26  O   UNL     1       5.427   4.280  22.715  0.00  0.00    -0.426 OA
BRANCH  26  27
ATOM     27  C   UNL     1       4.436   4.829  23.536  0.00  0.00    +0.309 C 
ATOM     28  C   UNL     1       3.090   4.687  22.889  0.00  0.00    +0.136 C 
ATOM     29  O   UNL     1       4.598   5.347  24.633  0.00  0.00    -0.251 OA
ENDBRANCH  26  27
ENDBRANCH   5  26
BRANCH   7  30
ATOM     30  O   UNL     1       9.781   2.841  24.344  0.00  0.00    -0.425 OA
BRANCH  30  31
ATOM     31  C   UNL     1      10.717   3.124  23.350  0.00  0.00    +0.309 C 
ATOM     32  C   UNL     1      10.515   2.166  22.214  0.00  0.00    +0.136 C 
ATOM     33  O   UNL     1      11.590   3.977  23.396  0.00  0.00    -0.251 OA
ENDBRANCH  30  31
ENDBRANCH   7  30
BRANCH  11  34
ATOM     34  O   UNL     1       8.834  -2.291  25.364  0.00  0.00    -0.418 OA
BRANCH  34  35
ATOM     35  C   UNL     1       9.412  -3.116  24.436  0.00  0.00    +0.309 C 
ATOM     36  C   UNL     1       9.021  -4.548  24.700  0.00  0.00    +0.136 C 
ATOM     37  O   UNL     1      10.137  -2.773  23.509  0.00  0.00    -0.251 OA
ENDBRANCH  34  35
ENDBRANCH  11  34
TORSDOF 11
ENDMDL
MODEL 5
REMARK VINA RESULT:      -6.6      2.288      8.674
REMARK  Name = 
REMARK  16 active torsions:
REMARK  status: ('A' for Active; 'I' for Inactive)
REMARK    1  A    between atoms: C_1  and  C_2
REMARK    2  A    between atoms: C_2  and  O_4
REMARK    3  A    between atoms: O_4  and  C_5
REMARK    4  A    between atoms: C_6  and  O_34
REMARK    5  A    between atoms: C_8  and  C_11
REMARK    6  A    between atoms: C_12  and  O_30
REMARK    7  A    between atoms: C_19  and  O_26
REMARK    8  A    between atoms: C_21  and  O_22
REMARK    9  A    between atoms: O_22  and  C_23
REMARK   10  A    between atoms: C_23  and  C_25
REMARK   11  A    between atoms: O_26  and  C_27
REMARK   12  A    between atoms: C_27  and  C_29
REMARK   13  A    between atoms: O_30  and  C_31
REMARK   14  A    between atoms: C_31  and  C_33
REMARK   15  A    between atoms: O_34  and  C_35
REMARK   16  A    between atoms: C_35  and  C_37
REMARK                            x       y       z     vdW  Elec       q    Type
REMARK                         _______ _______ _______ _____ _____    ______ ____
ROOT
ATOM      1  C   UNL     1       7.127  -0.276  23.657  0.00  0.00    +0.182 A 
ATOM      2  O   UNL     1       6.157  -1.169  23.229  0.00  0.00    -0.451 OA
ATOM      3  C   UNL     1       6.416  -2.511  23.265  0.00  0.00    +0.147 A 
ATOM      4  C   UNL     1       5.379  -3.345  22.815  0.00  0.00    +0.093 A 
ATOM      5  C   UNL     1       5.557  -4.725  22.807  0.00  0.00    +0.139 A 
ATOM      6  C   UNL     1       6.741  -5.270  23.286  0.00  0.00    +0.093 A 
ATOM      7  C   UNL     1       7.782  -4.430  23.715  0.00  0.00    +0.150 A 
ATOM      8  C   UNL     1       7.634  -3.037  23.692  0.00  0.00    +0.110 A 
ATOM      9  C   UNL     1       8.711  -2.084  24.055  0.00  0.00    +0.239 A 
ATOM     10  O   UNL     1       9.859  -2.448  24.282  0.00  0.00    -0.283 OA
ATOM     11  C   UNL     1       8.351  -0.634  24.094  0.00  0.00    +0.221 A 
ENDROOT
BRANCH   1  15
ATOM     12  C   UNL     1       6.349   3.880  23.341  0.00  0.00    +0.174 A 
ATOM     13  C   UNL     1       6.598   3.133  22.190  0.00  0.00    +0.051 A 
ATOM     14  C   UNL     1       6.739   1.747  22.287  0.00  0.00    +0.015 A 
ATOM     15  C   UNL     1       6.645   1.104  23.527  0.00  0.00    +0.025 A 
ATOM     16  C   UNL     1       6.337   1.852  24.676  0.00  0.00    +0.061 A 
ATOM     17  C   UNL     1       6.201   3.241  24.576  0.00  0.00    +0.174 A 
BRANCH  12  18
ATOM     18  O   UNL     1       6.419   5.294  23.335  0.00  0.00    -0.422 OA
BRANCH  18  20
ATOM     19  C   UNL     1       7.001   6.894  21.705  0.00  0.00    +0.136 C 
ATOM     20  C   UNL     1       7.503   5.963  22.770  0.00  0.00    +0.309 C 
ATOM     21  O   UNL     1       8.678   5.861  23.095  0.00  0.00    -0.251 OA
ENDBRANCH  18  20
ENDBRANCH  12  18
BRANCH  17  22
ATOM     22  O   UNL     1       6.101   4.070  25.721  0.00  0.00    -0.422 OA
BRANCH  22  23
ATOM     23  C   UNL     1       7.168   4.316  26.583  0.00  0.00    +0.309 C 
ATOM     24  C   UNL     1       6.823   3.810  27.954  0.00  0.00    +0.136 C 
ATOM     25  O   UNL     1       8.236   4.838  26.293  0.00  0.00    -0.251 OA
ENDBRANCH  22  23
ENDBRANCH  17  22
ENDBRANCH   1  15
BRANCH   5  26
ATOM     26  O   UNL     1       4.485  -5.514  22.334  0.00  0.00    -0.426 OA
BRANCH  26  27
ATOM     27  C   UNL     1       3.346  -5.749  23.114  0.00  0.00    +0.309 C 
ATOM     28  C   UNL     1       3.662  -6.724  24.210  0.00  0.00    +0.136 C 
ATOM     29  O   UNL     1       2.240  -5.248  22.965  0.00  0.00    -0.251 OA
ENDBRANCH  26  27
ENDBRANCH   5  26
BRANCH   7  30
ATOM     30  O   UNL     1       9.029  -5.014  24.003  0.00  0.00    -0.425 OA
BRANCH  30  31
ATOM     31  C   UNL     1       9.317  -5.269  25.343  0.00  0.00    +0.309 C 
ATOM     32  C   UNL     1       8.027  -5.439  26.088  0.00  0.00    +0.136 C 
ATOM     33  O   UNL     1      10.428  -5.308  25.852  0.00  0.00    -0.251 OA
ENDBRANCH  30  31
ENDBRANCH   7  30
BRANCH  11  34
ATOM     34  O   UNL     1       9.367   0.275  24.446  0.00  0.00    -0.418 OA
BRANCH  34  35
ATOM     35  C   UNL     1       9.947   0.911  23.380  0.00  0.00    +0.309 C 
ATOM     36  C   UNL     1      10.197   2.359  23.714  0.00  0.00    +0.136 C 
ATOM     37  O   UNL     1      10.241   0.404  22.304  0.00  0.00    -0.251 OA
ENDBRANCH  34  35
ENDBRANCH  11  34
TORSDOF 11
ENDMDL
MODEL 6
REMARK VINA RESULT:      -6.5      2.876      5.070
REMARK  Name = 
REMARK  16 active torsions:
REMARK  status: ('A' for Active; 'I' for Inactive)
REMARK    1  A    between atoms: C_1  and  C_2
REMARK    2  A    between atoms: C_2  and  O_4
REMARK    3  A    between atoms: O_4  and  C_5
REMARK    4  A    between atoms: C_6  and  O_34
REMARK    5  A    between atoms: C_8  and  C_11
REMARK    6  A    between atoms: C_12  and  O_30
REMARK    7  A    between atoms: C_19  and  O_26
REMARK    8  A    between atoms: C_21  and  O_22
REMARK    9  A    between atoms: O_22  and  C_23
REMARK   10  A    between atoms: C_23  and  C_25
REMARK   11  A    between atoms: O_26  and  C_27
REMARK   12  A    between atoms: C_27  and  C_29
REMARK   13  A    between atoms: O_30  and  C_31
REMARK   14  A    between atoms: C_31  and  C_33
REMARK   15  A    between atoms: O_34  and  C_35
REMARK   16  A    between atoms: C_35  and  C_37
REMARK                            x       y       z     vdW  Elec       q    Type
REMARK                         _______ _______ _______ _____ _____    ______ ____
ROOT
ATOM      1  C   UNL     1       6.367  -3.447  24.306  0.00  0.00    +0.182 A 
ATOM      2  O   UNL     1       6.196  -2.442  25.245  0.00  0.00    -0.451 OA
ATOM      3  C   UNL     1       6.970  -1.316  25.174  0.00  0.00    +0.147 A 
ATOM      4  C   UNL     1       6.732  -0.348  26.163  0.00  0.00    +0.093 A 
ATOM      5  C   UNL     1       7.479   0.826  26.174  0.00  0.00    +0.139 A 
ATOM      6  C   UNL     1       8.422   1.052  25.181  0.00  0.00    +0.093 A 
ATOM      7  C   UNL     1       8.670   0.070  24.207  0.00  0.00    +0.150 A 
ATOM      8  C   UNL     1       7.956  -1.134  24.205  0.00  0.00    +0.110 A 
ATOM      9  C   UNL     1       8.212  -2.248  23.260  0.00  0.00    +0.239 A 
ATOM     10  O   UNL     1       9.162  -2.244  22.485  0.00  0.00    -0.283 OA
ATOM     11  C   UNL     1       7.280  -3.414  23.314  0.00  0.00    +0.221 A 
ENDROOT
BRANCH   1  15
ATOM     12  C   UNL     1       3.470  -6.285  25.544  0.00  0.00    +0.174 A 
ATOM     13  C   UNL     1       3.152  -5.359  24.550  0.00  0.00    +0.051 A 
ATOM     14  C   UNL     1       4.143  -4.503  24.065  0.00  0.00    +0.015 A 
ATOM     15  C   UNL     1       5.446  -4.558  24.573  0.00  0.00    +0.025 A 
ATOM     16  C   UNL     1       5.778  -5.529  25.533  0.00  0.00    +0.061 A 
ATOM     17  C   UNL     1       4.781  -6.382  26.021  0.00  0.00    +0.174 A 
BRANCH  12  18
ATOM     18  O   UNL     1       2.466  -7.015  26.224  0.00  0.00    -0.422 OA
BRANCH  18  20
ATOM     19  C   UNL     1       0.615  -8.469  26.358  0.00  0.00    +0.136 C 
ATOM     20  C   UNL     1       1.925  -8.179  25.684  0.00  0.00    +0.309 C 
ATOM     21  O   UNL     1       2.395  -8.856  24.779  0.00  0.00    -0.251 OA
ENDBRANCH  18  20
ENDBRANCH  12  18
BRANCH  17  22
ATOM     22  O   UNL     1       4.999  -7.235  27.131  0.00  0.00    -0.422 OA
BRANCH  22  23
ATOM     23  C   UNL     1       5.461  -6.780  28.366  0.00  0.00    +0.309 C 
ATOM     24  C   UNL     1       4.478  -5.792  28.927  0.00  0.00    +0.136 C 
ATOM     25  O   UNL     1       6.485  -7.129  28.936  0.00  0.00    -0.251 OA
ENDBRANCH  22  23
ENDBRANCH  17  22
ENDBRANCH   1  15
BRANCH   5  26
ATOM     26  O   UNL     1       7.203   1.760  27.198  0.00  0.00    -0.426 OA
BRANCH  26  27
ATOM     27  C   UNL     1       6.390   2.877  26.975  0.00  0.00    +0.309 C 
ATOM     28  C   UNL     1       7.116   4.131  27.363  0.00  0.00    +0.136 C 
ATOM     29  O   UNL     1       5.254   2.877  26.521  0.00  0.00    -0.251 OA
ENDBRANCH  26  27
ENDBRANCH   5  26
BRANCH   7  30
ATOM     30  O   UNL     1       9.766   0.255  23.344  0.00  0.00    -0.425 OA
BRANCH  30  31
ATOM     31  C   UNL     1       9.582   1.104  22.254  0.00  0.00    +0.309 C 
ATOM     32  C   UNL     1      10.346   2.370  22.497  0.00  0.00    +0.136 C 
ATOM     33  O   UNL     1       8.884   0.886  21.274  0.00  0.00    -0.251 OA
ENDBRANCH  30  31
ENDBRANCH   7  30
BRANCH  11  34
ATOM     34  O   UNL     1       7.512  -4.471  22.414  0.00  0.00    -0.418 OA
BRANCH  34  35
ATOM     35  C   UNL     1       6.508  -4.664  21.502  0.00  0.00    +0.309 C 
ATOM     36  C   UNL     1       6.281  -6.138  21.285  0.00  0.00    +0.136 C 
ATOM     37  O   UNL     1       5.862  -3.790  20.935  0.00  0.00    -0.251 OA
ENDBRANCH  34  35
ENDBRANCH  11  34
TORSDOF 11
ENDMDL
MODEL 7
REMARK VINA RESULT:      -6.5      1.797      4.171
REMARK  Name = 
REMARK  16 active torsions:
REMARK  status: ('A' for Active; 'I' for Inactive)
REMARK    1  A    between atoms: C_1  and  C_2
REMARK    2  A    between atoms: C_2  and  O_4
REMARK    3  A    between atoms: O_4  and  C_5
REMARK    4  A    between atoms: C_6  and  O_34
REMARK    5  A    between atoms: C_8  and  C_11
REMARK    6  A    between atoms: C_12  and  O_30
REMARK    7  A    between atoms: C_19  and  O_26
REMARK    8  A    between atoms: C_21  and  O_22
REMARK    9  A    between atoms: O_22  and  C_23
REMARK   10  A    between atoms: C_23  and  C_25
REMARK   11  A    between atoms: O_26  and  C_27
REMARK   12  A    between atoms: C_27  and  C_29
REMARK   13  A    between atoms: O_30  and  C_31
REMARK   14  A    between atoms: C_31  and  C_33
REMARK   15  A    between atoms: O_34  and  C_35
REMARK   16  A    between atoms: C_35  and  C_37
REMARK                            x       y       z     vdW  Elec       q    Type
REMARK                         _______ _______ _______ _____ _____    ______ ____
ROOT
ATOM      1  C   UNL     1       7.143   0.818  24.638  0.00  0.00    +0.182 A 
ATOM      2  O   UNL     1       8.465   1.101  24.333  0.00  0.00    -0.451 OA
ATOM      3  C   UNL     1       8.849   2.401  24.148  0.00  0.00    +0.147 A 
ATOM      4  C   UNL     1      10.206   2.599  23.843  0.00  0.00    +0.093 A 
ATOM      5  C   UNL     1      10.684   3.888  23.629  0.00  0.00    +0.139 A 
ATOM      6  C   UNL     1       9.827   4.972  23.763  0.00  0.00    +0.093 A 
ATOM      7  C   UNL     1       8.467   4.765  24.047  0.00  0.00    +0.150 A 
ATOM      8  C   UNL     1       7.960   3.472  24.225  0.00  0.00    +0.110 A 
ATOM      9  C   UNL     1       6.526   3.167  24.451  0.00  0.00    +0.239 A 
ATOM     10  O   UNL     1       5.654   4.025  24.370  0.00  0.00    -0.283 OA
ATOM     11  C   UNL     1       6.171   1.746  24.744  0.00  0.00    +0.221 A 
ENDROOT
BRANCH   1  15
ATOM     12  C   UNL     1       7.227  -3.395  25.113  0.00  0.00    +0.174 A 
ATOM     13  C   UNL     1       7.116  -2.574  26.235  0.00  0.00    +0.051 A 
ATOM     14  C   UNL     1       6.972  -1.195  26.067  0.00  0.00    +0.015 A 
ATOM     15  C   UNL     1       6.951  -0.630  24.786  0.00  0.00    +0.025 A 
ATOM     16  C   UNL     1       7.006  -1.464  23.657  0.00  0.00    +0.061 A 
ATOM     17  C   UNL     1       7.156  -2.845  23.829  0.00  0.00    +0.174 A 
BRANCH  12  18
ATOM     18  O   UNL     1       7.596  -4.757  25.227  0.00  0.00    -0.422 OA
BRANCH  18  20
ATOM     19  C   UNL     1       5.630  -6.017  25.546  0.00  0.00    +0.136 C 
ATOM     20  C   UNL     1       6.955  -5.610  26.122  0.00  0.00    +0.309 C 
ATOM     21  O   UNL     1       7.391  -6.013  27.191  0.00  0.00    -0.251 OA
ENDBRANCH  18  20
ENDBRANCH  12  18
BRANCH  17  22
ATOM     22  O   UNL     1       7.428  -3.713  22.743  0.00  0.00    -0.422 OA
BRANCH  22  23
ATOM     23  C   UNL     1       6.430  -4.327  21.986  0.00  0.00    +0.309 C 
ATOM     24  C   UNL     1       6.865  -5.721  21.635  0.00  0.00    +0.136 C 
ATOM     25  O   UNL     1       5.355  -3.842  21.665  0.00  0.00    -0.251 OA
ENDBRANCH  22  23
ENDBRANCH  17  22
ENDBRANCH   1  15
BRANCH   5  26
ATOM     26  O   UNL     1      12.054   4.027  23.316  0.00  0.00    -0.426 OA
BRANCH  26  27
ATOM     27  C   UNL     1      12.705   5.263  23.394  0.00  0.00    +0.309 C 
ATOM     28  C   UNL     1      13.283   5.629  22.059  0.00  0.00    +0.136 C 
ATOM     29  O   UNL     1      12.801   5.979  24.382  0.00  0.00    -0.251 OA
ENDBRANCH  26  27
ENDBRANCH   5  26
BRANCH   7  30
ATOM     30  O   UNL     1       7.600   5.871  23.976  0.00  0.00    -0.425 OA
BRANCH  30  31
ATOM     31  C   UNL     1       7.533   6.699  25.096  0.00  0.00    +0.309 C 
ATOM     32  C   UNL     1       6.106   7.108  25.305  0.00  0.00    +0.136 C 
ATOM     33  O   UNL     1       8.474   7.074  25.779  0.00  0.00    -0.251 OA
ENDBRANCH  30  31
ENDBRANCH   7  30
BRANCH  11  34
ATOM     34  O   UNL     1       4.813   1.452  24.967  0.00  0.00    -0.418 OA
BRANCH  34  35
ATOM     35  C   UNL     1       4.385   1.704  26.244  0.00  0.00    +0.309 C 
ATOM     36  C   UNL     1       2.990   2.271  26.222  0.00  0.00    +0.136 C 
ATOM     37  O   UNL     1       5.016   1.500  27.275  0.00  0.00    -0.251 OA
ENDBRANCH  34  35
ENDBRANCH  11  34
TORSDOF 11
ENDMDL
MODEL 8
REMARK VINA RESULT:      -6.4      2.540      9.298
REMARK  Name = 
REMARK  16 active torsions:
REMARK  status: ('A' for Active; 'I' for Inactive)
REMARK    1  A    between atoms: C_1  and  C_2
REMARK    2  A    between atoms: C_2  and  O_4
REMARK    3  A    between atoms: O_4  and  C_5
REMARK    4  A    between atoms: C_6  and  O_34
REMARK    5  A    between atoms: C_8  and  C_11
REMARK    6  A    between atoms: C_12  and  O_30
REMARK    7  A    between atoms: C_19  and  O_26
REMARK    8  A    between atoms: C_21  and  O_22
REMARK    9  A    between atoms: O_22  and  C_23
REMARK   10  A    between atoms: C_23  and  C_25
REMARK   11  A    between atoms: O_26  and  C_27
REMARK   12  A    between atoms: C_27  and  C_29
REMARK   13  A    between atoms: O_30  and  C_31
REMARK   14  A    between atoms: C_31  and  C_33
REMARK   15  A    between atoms: O_34  and  C_35
REMARK   16  A    between atoms: C_35  and  C_37
REMARK                            x       y       z     vdW  Elec       q    Type
REMARK                         _______ _______ _______ _____ _____    ______ ____
ROOT
ATOM      1  C   UNL     1       6.293  -3.198  23.665  0.00  0.00    +0.182 A 
ATOM      2  O   UNL     1       6.167  -3.055  25.038  0.00  0.00    -0.451 OA
ATOM      3  C   UNL     1       5.209  -3.770  25.704  0.00  0.00    +0.147 A 
ATOM      4  C   UNL     1       5.151  -3.566  27.092  0.00  0.00    +0.093 A 
ATOM      5  C   UNL     1       4.201  -4.245  27.850  0.00  0.00    +0.139 A 
ATOM      6  C   UNL     1       3.347  -5.150  27.234  0.00  0.00    +0.093 A 
ATOM      7  C   UNL     1       3.397  -5.333  25.842  0.00  0.00    +0.150 A 
ATOM      8  C   UNL     1       4.320  -4.628  25.060  0.00  0.00    +0.110 A 
ATOM      9  C   UNL     1       4.384  -4.708  23.580  0.00  0.00    +0.239 A 
ATOM     10  O   UNL     1       3.541  -5.306  22.920  0.00  0.00    -0.283 OA
ATOM     11  C   UNL     1       5.506  -3.988  22.907  0.00  0.00    +0.221 A 
ENDROOT
BRANCH   1  15
ATOM     12  C   UNL     1       9.454  -0.506  22.804  0.00  0.00    +0.174 A 
ATOM     13  C   UNL     1       9.744  -1.819  23.174  0.00  0.00    +0.051 A 
ATOM     14  C   UNL     1       8.702  -2.733  23.343  0.00  0.00    +0.015 A 
ATOM     15  C   UNL     1       7.370  -2.340  23.159  0.00  0.00    +0.025 A 
ATOM     16  C   UNL     1       7.084  -1.032  22.731  0.00  0.00    +0.061 A 
ATOM     17  C   UNL     1       8.131  -0.118  22.567  0.00  0.00    +0.174 A 
BRANCH  12  18
ATOM     18  O   UNL     1      10.442   0.508  22.837  0.00  0.00    -0.422 OA
BRANCH  18  20
ATOM     19  C   UNL     1      10.815   2.644  23.760  0.00  0.00    +0.136 C 
ATOM     20  C   UNL     1      10.765   1.167  24.020  0.00  0.00    +0.309 C 
ATOM     21  O   UNL     1      10.944   0.657  25.119  0.00  0.00    -0.251 OA
ENDBRANCH  18  20
ENDBRANCH  12  18
BRANCH  17  22
ATOM     22  O   UNL     1       7.896   1.262  22.345  0.00  0.00    -0.422 OA
BRANCH  22  23
ATOM     23  C   UNL     1       7.162   2.063  23.218  0.00  0.00    +0.309 C 
ATOM     24  C   UNL     1       6.056   2.737  22.458  0.00  0.00    +0.136 C 
ATOM     25  O   UNL     1       7.351   2.197  24.419  0.00  0.00    -0.251 OA
ENDBRANCH  22  23
ENDBRANCH  17  22
ENDBRANCH   1  15
BRANCH   5  26
ATOM     26  O   UNL     1       4.181  -3.994  29.240  0.00  0.00    -0.426 OA
BRANCH  26  27
ATOM     27  C   UNL     1       3.509  -2.890  29.778  0.00  0.00    +0.309 C 
ATOM     28  C   UNL     1       2.162  -3.305  30.292  0.00  0.00    +0.136 C 
ATOM     29  O   UNL     1       3.926  -1.742  29.849  0.00  0.00    -0.251 OA
ENDBRANCH  26  27
ENDBRANCH   5  26
BRANCH   7  30
ATOM     30  O   UNL     1       2.388  -6.105  25.239  0.00  0.00    -0.425 OA
BRANCH  30  31
ATOM     31  C   UNL     1       2.530  -7.491  25.294  0.00  0.00    +0.309 C 
ATOM     32  C   UNL     1       1.355  -8.065  26.027  0.00  0.00    +0.136 C 
ATOM     33  O   UNL     1       3.468  -8.143  24.860  0.00  0.00    -0.251 OA
ENDBRANCH  30  31
ENDBRANCH   7  30
BRANCH  11  34
ATOM     34  O   UNL     1       5.576  -4.067  21.504  0.00  0.00    -0.418 OA
BRANCH  34  35
ATOM     35  C   UNL     1       6.140  -5.223  21.033  0.00  0.00    +0.309 C 
ATOM     36  C   UNL     1       7.115  -5.773  22.042  0.00  0.00    +0.136 C 
ATOM     37  O   UNL     1       5.902  -5.764  19.959  0.00  0.00    -0.251 OA
ENDBRANCH  34  35
ENDBRANCH  11  34
TORSDOF 11
ENDMDL
MODEL 9
REMARK VINA RESULT:      -6.4      1.933      4.383
REMARK  Name = 
REMARK  16 active torsions:
REMARK  status: ('A' for Active; 'I' for Inactive)
REMARK    1  A    between atoms: C_1  and  C_2
REMARK    2  A    between atoms: C_2  and  O_4
REMARK    3  A    between atoms: O_4  and  C_5
REMARK    4  A    between atoms: C_6  and  O_34
REMARK    5  A    between atoms: C_8  and  C_11
REMARK    6  A    between atoms: C_12  and  O_30
REMARK    7  A    between atoms: C_19  and  O_26
REMARK    8  A    between atoms: C_21  and  O_22
REMARK    9  A    between atoms: O_22  and  C_23
REMARK   10  A    between atoms: C_23  and  C_25
REMARK   11  A    between atoms: O_26  and  C_27
REMARK   12  A    between atoms: C_27  and  C_29
REMARK   13  A    between atoms: O_30  and  C_31
REMARK   14  A    between atoms: C_31  and  C_33
REMARK   15  A    between atoms: O_34  and  C_35
REMARK   16  A    between atoms: C_35  and  C_37
REMARK                            x       y       z     vdW  Elec       q    Type
REMARK                         _______ _______ _______ _____ _____    ______ ____
ROOT
ATOM      1  C   UNL     1       7.811  -0.129  24.096  0.00  0.00    +0.182 A 
ATOM      2  O   UNL     1       9.064   0.391  23.813  0.00  0.00    -0.451 OA
ATOM      3  C   UNL     1       9.273   1.739  23.924  0.00  0.00    +0.147 A 
ATOM      4  C   UNL     1      10.570   2.182  23.619  0.00  0.00    +0.093 A 
ATOM      5  C   UNL     1      10.872   3.539  23.696  0.00  0.00    +0.139 A 
ATOM      6  C   UNL     1       9.901   4.438  24.115  0.00  0.00    +0.093 A 
ATOM      7  C   UNL     1       8.599   3.990  24.398  0.00  0.00    +0.150 A 
ATOM      8  C   UNL     1       8.268   2.635  24.286  0.00  0.00    +0.110 A 
ATOM      9  C   UNL     1       6.901   2.095  24.492  0.00  0.00    +0.239 A 
ATOM     10  O   UNL     1       5.928   2.823  24.651  0.00  0.00    -0.283 OA
ATOM     11  C   UNL     1       6.743   0.611  24.456  0.00  0.00    +0.221 A 
ENDROOT
BRANCH   1  15
ATOM     12  C   UNL     1       7.166  -4.278  23.501  0.00  0.00    +0.174 A 
ATOM     13  C   UNL     1       7.389  -3.447  22.402  0.00  0.00    +0.051 A 
ATOM     14  C   UNL     1       7.715  -2.105  22.610  0.00  0.00    +0.015 A 
ATOM     15  C   UNL     1       7.808  -1.585  23.906  0.00  0.00    +0.025 A 
ATOM     16  C   UNL     1       7.639  -2.436  25.012  0.00  0.00    +0.061 A 
ATOM     17  C   UNL     1       7.307  -3.779  24.800  0.00  0.00    +0.174 A 
BRANCH  12  18
ATOM     18  O   UNL     1       6.619  -5.574  23.349  0.00  0.00    -0.422 OA
BRANCH  18  20
ATOM     19  C   UNL     1       4.716  -6.722  24.136  0.00  0.00    +0.136 C 
ATOM     20  C   UNL     1       5.259  -5.764  23.116  0.00  0.00    +0.309 C 
ATOM     21  O   UNL     1       4.579  -5.222  22.255  0.00  0.00    -0.251 OA
ENDBRANCH  18  20
ENDBRANCH  12  18
BRANCH  17  22
ATOM     22  O   UNL     1       6.919  -4.633  25.862  0.00  0.00    -0.422 OA
BRANCH  22  23
ATOM     23  C   UNL     1       7.830  -5.265  26.707  0.00  0.00    +0.309 C 
ATOM     24  C   UNL     1       9.195  -5.223  26.081  0.00  0.00    +0.136 C 
ATOM     25  O   UNL     1       7.591  -5.762  27.798  0.00  0.00    -0.251 OA
ENDBRANCH  22  23
ENDBRANCH  17  22
ENDBRANCH   1  15
BRANCH   5  26
ATOM     26  O   UNL     1      12.190   3.929  23.369  0.00  0.00    -0.426 OA
BRANCH  26  27
ATOM     27  C   UNL     1      12.497   5.244  23.002  0.00  0.00    +0.309 C 
ATOM     28  C   UNL     1      12.425   6.145  24.199  0.00  0.00    +0.136 C 
ATOM     29  O   UNL     1      12.797   5.642  21.884  0.00  0.00    -0.251 OA
ENDBRANCH  26  27
ENDBRANCH   5  26
BRANCH   7  30
ATOM     30  O   UNL     1       7.601   4.956  24.624  0.00  0.00    -0.425 OA
BRANCH  30  31
ATOM     31  C   UNL     1       7.528   5.506  25.903  0.00  0.00    +0.309 C 
ATOM     32  C   UNL     1       6.156   6.078  26.102  0.00  0.00    +0.136 C 
ATOM     33  O   UNL     1       8.433   5.560  26.723  0.00  0.00    -0.251 OA
ENDBRANCH  30  31
ENDBRANCH   7  30
BRANCH  11  34
ATOM     34  O   UNL     1       5.450   0.093  24.659  0.00  0.00    -0.418 OA
BRANCH  34  35
ATOM     35  C   UNL     1       5.171  -0.230  25.961  0.00  0.00    +0.309 C 
ATOM     36  C   UNL     1       4.433  -1.542  26.024  0.00  0.00    +0.136 C 
ATOM     37  O   UNL     1       5.472   0.425  26.952  0.00  0.00    -0.251 OA
ENDBRANCH  34  35
ENDBRANCH  11  34
TORSDOF 11
ENDMDL
