MODEL 1
REMARK VINA RESULT:      -7.6      0.000      0.000
REMARK  Name = 
REMARK  21 active torsions:
REMARK  status: ('A' for Active; 'I' for Inactive)
REMARK    1  A    between atoms: C_1  and  C_2
REMARK    2  A    between atoms: C_3  and  O_52
REMARK    3  A    between atoms: C_5  and  O_51
REMARK    4  A    between atoms: C_7  and  O_50
REMARK    5  A    between atoms: C_8  and  O_11
REMARK    6  A    between atoms: O_11  and  C_12
REMARK    7  A    between atoms: C_12  and  C_13
REMARK    8  A    between atoms: C_14  and  O_49
REMARK    9  A    between atoms: C_16  and  O_48
REMARK   10  A    between atoms: C_17  and  O_47
REMARK   11  A    between atoms: C_18  and  O_21
REMARK   12  A    between atoms: O_21  and  C_22
REMARK   13  A    between atoms: C_23  and  C_37
REMARK   14  A    between atoms: C_29  and  O_35
REMARK   15  A    between atoms: C_31  and  O_33
REMARK   16  A    between atoms: O_33  and  C_34
REMARK   17  A    between atoms: O_35  and  C_36
REMARK   18  A    between atoms: C_39  and  O_45
REMARK   19  A    between atoms: C_40  and  O_43
REMARK   20  A    between atoms: O_43  and  C_44
REMARK   21  A    between atoms: O_45  and  C_46
REMARK                            x       y       z     vdW  Elec       q    Type
REMARK                         _______ _______ _______ _____ _____    ______ ____
ROOT
ATOM      1  C   UNL     1       3.291  -2.457  26.967  0.00  0.00    +0.179 C 
ATOM      2  O   UNL     1       4.003  -1.822  25.885  0.00  0.00    -0.331 OA
ATOM      3  C   UNL     1       4.904  -0.730  26.209  0.00  0.00    +0.340 C 
ATOM      4  C   UNL     1       4.223   0.305  27.142  0.00  0.00    +0.214 C 
ATOM      5  C   UNL     1       3.523  -0.371  28.331  0.00  0.00    +0.180 C 
ATOM      6  C   UNL     1       2.515  -1.404  27.789  0.00  0.00    +0.177 C 
ENDROOT
BRANCH   6   7
ATOM      7  O   UNL     1       1.774  -2.017  28.843  0.00  0.00    -0.386 OA
ATOM      8  H   UNL     1       2.192  -2.878  29.045  0.00  0.00    +0.210 HD
ENDBRANCH   6   7
BRANCH   5   9
ATOM      9  O   UNL     1       2.852   0.619  29.126  0.00  0.00    -0.386 OA
ATOM     10  H   UNL     1       1.926   0.323  29.202  0.00  0.00    +0.210 HD
ENDBRANCH   5   9
BRANCH   4  11
ATOM     11  O   UNL     1       3.202   1.052  26.428  0.00  0.00    -0.383 OA
ATOM     12  H   UNL     1       3.418   1.998  26.530  0.00  0.00    +0.210 HD
ENDBRANCH   4  11
BRANCH   3  13
ATOM     13  O   UNL     1       5.260  -0.089  24.955  0.00  0.00    -0.453 OA
BRANCH  13  14
ATOM     14  C   UNL     1       6.515   0.466  24.691  0.00  0.00    +0.214 A 
ATOM     15  C   UNL     1       6.846   1.906  25.048  0.00  0.00    +0.238 A 
ATOM     16  O   UNL     1       6.065   2.581  25.704  0.00  0.00    -0.283 OA
ATOM     17  C   UNL     1       8.141   2.449  24.562  0.00  0.00    +0.109 A 
ATOM     18  C   UNL     1       8.483   3.812  24.575  0.00  0.00    +0.138 A 
ATOM     19  C   UNL     1       9.726   4.214  24.047  0.00  0.00    +0.092 A 
ATOM     20  C   UNL     1      10.638   3.276  23.537  0.00  0.00    +0.127 A 
ATOM     21  C   UNL     1      10.304   1.938  23.555  0.00  0.00    +0.092 A 
ATOM     22  C   UNL     1       9.055   1.539  24.036  0.00  0.00    +0.147 A 
ATOM     23  O   UNL     1       8.804   0.214  23.930  0.00  0.00    -0.451 OA
ATOM     24  C   UNL     1       7.516  -0.251  24.111  0.00  0.00    +0.181 A 
BRANCH  24  25
ATOM     25  C   UNL     1       7.466  -1.661  23.622  0.00  0.00    +0.025 A 
ATOM     26  C   UNL     1       6.478  -2.049  22.730  0.00  0.00    +0.015 A 
ATOM     27  C   UNL     1       6.374  -3.383  22.334  0.00  0.00    +0.050 A 
ATOM     28  C   UNL     1       7.275  -4.365  22.771  0.00  0.00    +0.162 A 
ATOM     29  C   UNL     1       8.220  -4.037  23.751  0.00  0.00    +0.162 A 
ATOM     30  C   UNL     1       8.295  -2.686  24.176  0.00  0.00    +0.061 A 
BRANCH  29  31
ATOM     31  O   UNL     1       8.958  -5.065  24.276  0.00  0.00    -0.491 OA
ATOM     32  C   UNL     1       9.656  -4.885  25.504  0.00  0.00    +0.277 C 
ENDBRANCH  29  31
BRANCH  28  33
ATOM     33  O   UNL     1       7.043  -5.559  22.142  0.00  0.00    -0.491 OA
ATOM     34  C   UNL     1       6.254  -5.613  20.964  0.00  0.00    +0.277 C 
ENDBRANCH  28  33
ENDBRANCH  24  25
BRANCH  20  35
ATOM     35  O   UNL     1      11.804   3.806  23.041  0.00  0.00    -0.495 OA
ATOM     36  C   UNL     1      12.133   5.131  23.454  0.00  0.00    +0.277 C 
ENDBRANCH  20  35
BRANCH  18  37
ATOM     37  O   UNL     1       7.560   4.689  25.078  0.00  0.00    -0.494 OA
ATOM     38  C   UNL     1       7.951   5.531  26.155  0.00  0.00    +0.277 C 
ENDBRANCH  18  37
ENDBRANCH  13  14
ENDBRANCH   3  13
BRANCH   1  39
ATOM     39  C   UNL     1       4.133  -3.381  27.903  0.00  0.00    +0.197 C 
BRANCH  39  40
ATOM     40  O   UNL     1       4.005  -4.790  27.736  0.00  0.00    -0.346 OA
BRANCH  40  44
ATOM     41  C   UNL     1       1.037  -5.476  24.801  0.00  0.00    +0.041 C 
ATOM     42  C   UNL     1       1.773  -6.591  25.537  0.00  0.00    +0.149 C 
ATOM     43  O   UNL     1       2.412  -6.055  26.705  0.00  0.00    -0.343 OA
ATOM     44  C   UNL     1       3.601  -5.284  26.466  0.00  0.00    +0.282 C 
ATOM     45  C   UNL     1       4.640  -6.218  25.795  0.00  0.00    +0.201 C 
ATOM     46  C   UNL     1       4.056  -6.601  24.422  0.00  0.00    +0.179 C 
ATOM     47  C   UNL     1       2.732  -7.358  24.606  0.00  0.00    +0.174 C 
BRANCH  47  48
ATOM     48  O   UNL     1       3.012  -8.671  25.123  0.00  0.00    -0.387 OA
ATOM     49  H   UNL     1       2.163  -9.024  25.475  0.00  0.00    +0.210 HD
ENDBRANCH  47  48
BRANCH  46  50
ATOM     50  O   UNL     1       4.970  -7.382  23.648  0.00  0.00    -0.386 OA
ATOM     51  H   UNL     1       5.195  -8.169  24.183  0.00  0.00    +0.210 HD
ENDBRANCH  46  50
BRANCH  45  52
ATOM     52  O   UNL     1       4.844  -7.406  26.597  0.00  0.00    -0.384 OA
ATOM     53  H   UNL     1       5.775  -7.372  26.898  0.00  0.00    +0.210 HD
ENDBRANCH  45  52
ENDBRANCH  40  44
ENDBRANCH  39  40
ENDBRANCH   1  39
TORSDOF 16
ENDMDL
MODEL 2
REMARK VINA RESULT:      -7.2      1.541      1.774
REMARK  Name = 
REMARK  21 active torsions:
REMARK  status: ('A' for Active; 'I' for Inactive)
REMARK    1  A    between atoms: C_1  and  C_2
REMARK    2  A    between atoms: C_3  and  O_52
REMARK    3  A    between atoms: C_5  and  O_51
REMARK    4  A    between atoms: C_7  and  O_50
REMARK    5  A    between atoms: C_8  and  O_11
REMARK    6  A    between atoms: O_11  and  C_12
REMARK    7  A    between atoms: C_12  and  C_13
REMARK    8  A    between atoms: C_14  and  O_49
REMARK    9  A    between atoms: C_16  and  O_48
REMARK   10  A    between atoms: C_17  and  O_47
REMARK   11  A    between atoms: C_18  and  O_21
REMARK   12  A    between atoms: O_21  and  C_22
REMARK   13  A    between atoms: C_23  and  C_37
REMARK   14  A    between atoms: C_29  and  O_35
REMARK   15  A    between atoms: C_31  and  O_33
REMARK   16  A    between atoms: O_33  and  C_34
REMARK   17  A    between atoms: O_35  and  C_36
REMARK   18  A    between atoms: C_39  and  O_45
REMARK   19  A    between atoms: C_40  and  O_43
REMARK   20  A    between atoms: O_43  and  C_44
REMARK   21  A    between atoms: O_45  and  C_46
REMARK                            x       y       z     vdW  Elec       q    Type
REMARK                         _______ _______ _______ _____ _____    ______ ____
ROOT
ATOM      1  C   UNL     1       3.567  -1.298  27.060  0.00  0.00    +0.179 C 
ATOM      2  O   UNL     1       4.385  -0.771  25.994  0.00  0.00    -0.331 OA
ATOM      3  C   UNL     1       4.979   0.542  26.176  0.00  0.00    +0.340 C 
ATOM      4  C   UNL     1       3.929   1.572  26.666  0.00  0.00    +0.214 C 
ATOM      5  C   UNL     1       3.106   1.033  27.845  0.00  0.00    +0.180 C 
ATOM      6  C   UNL     1       2.450  -0.297  27.422  0.00  0.00    +0.177 C 
ENDROOT
BRANCH   6   7
ATOM      7  O   UNL     1       1.606  -0.815  28.450  0.00  0.00    -0.386 OA
ATOM      8  H   UNL     1       0.681  -0.761  28.136  0.00  0.00    +0.210 HD
ENDBRANCH   6   7
BRANCH   5   9
ATOM      9  O   UNL     1       2.105   1.993  28.219  0.00  0.00    -0.386 OA
ATOM     10  H   UNL     1       1.926   2.523  27.419  0.00  0.00    +0.210 HD
ENDBRANCH   5   9
BRANCH   4  11
ATOM     11  O   UNL     1       2.984   1.891  25.610  0.00  0.00    -0.383 OA
ATOM     12  H   UNL     1       2.396   1.118  25.511  0.00  0.00    +0.210 HD
ENDBRANCH   4  11
BRANCH   3  13
ATOM     13  O   UNL     1       5.495   0.956  24.882  0.00  0.00    -0.453 OA
BRANCH  13  14
ATOM     14  C   UNL     1       6.804   1.394  24.668  0.00  0.00    +0.214 A 
ATOM     15  C   UNL     1       7.189   2.859  24.798  0.00  0.00    +0.238 A 
ATOM     16  O   UNL     1       6.391   3.678  25.229  0.00  0.00    -0.283 OA
ATOM     17  C   UNL     1       8.561   3.244  24.373  0.00  0.00    +0.109 A 
ATOM     18  C   UNL     1       8.988   4.568  24.181  0.00  0.00    +0.138 A 
ATOM     19  C   UNL     1      10.303   4.809  23.735  0.00  0.00    +0.092 A 
ATOM     20  C   UNL     1      11.200   3.753  23.508  0.00  0.00    +0.127 A 
ATOM     21  C   UNL     1      10.779   2.457  23.727  0.00  0.00    +0.092 A 
ATOM     22  C   UNL     1       9.463   2.212  24.125  0.00  0.00    +0.147 A 
ATOM     23  O   UNL     1       9.138   0.903  24.231  0.00  0.00    -0.451 OA
ATOM     24  C   UNL     1       7.811   0.538  24.344  0.00  0.00    +0.181 A 
BRANCH  24  25
ATOM     25  C   UNL     1       7.719  -0.934  24.112  0.00  0.00    +0.025 A 
ATOM     26  C   UNL     1       6.989  -1.422  23.039  0.00  0.00    +0.015 A 
ATOM     27  C   UNL     1       6.830  -2.797  22.866  0.00  0.00    +0.050 A 
ATOM     28  C   UNL     1       7.429  -3.734  23.720  0.00  0.00    +0.162 A 
ATOM     29  C   UNL     1       8.086  -3.283  24.873  0.00  0.00    +0.162 A 
ATOM     30  C   UNL     1       8.212  -1.884  25.062  0.00  0.00    +0.061 A 
BRANCH  29  31
ATOM     31  O   UNL     1       8.500  -4.235  25.767  0.00  0.00    -0.491 OA
ATOM     32  C   UNL     1       9.749  -4.892  25.579  0.00  0.00    +0.277 C 
ENDBRANCH  29  31
BRANCH  28  33
ATOM     33  O   UNL     1       7.234  -5.010  23.264  0.00  0.00    -0.491 OA
ATOM     34  C   UNL     1       7.193  -5.281  21.873  0.00  0.00    +0.277 C 
ENDBRANCH  28  33
ENDBRANCH  24  25
BRANCH  20  35
ATOM     35  O   UNL     1      12.443   4.128  23.062  0.00  0.00    -0.495 OA
ATOM     36  C   UNL     1      12.726   5.526  23.052  0.00  0.00    +0.277 C 
ENDBRANCH  20  35
BRANCH  18  37
ATOM     37  O   UNL     1       8.077   5.565  24.411  0.00  0.00    -0.494 OA
ATOM     38  C   UNL     1       7.726   6.416  23.328  0.00  0.00    +0.277 C 
ENDBRANCH  18  37
ENDBRANCH  13  14
ENDBRANCH   3  13
BRANCH   1  39
ATOM     39  C   UNL     1       4.321  -1.776  28.341  0.00  0.00    +0.197 C 
BRANCH  39  40
ATOM     40  O   UNL     1       3.969  -3.046  28.885  0.00  0.00    -0.346 OA
BRANCH  40  44
ATOM     41  C   UNL     1       2.088  -6.425  27.172  0.00  0.00    +0.041 C 
ATOM     42  C   UNL     1       3.301  -6.508  28.093  0.00  0.00    +0.149 C 
ATOM     43  O   UNL     1       3.456  -5.266  28.794  0.00  0.00    -0.343 OA
ATOM     44  C   UNL     1       3.985  -4.175  28.023  0.00  0.00    +0.282 C 
ATOM     45  C   UNL     1       5.402  -4.581  27.543  0.00  0.00    +0.201 C 
ATOM     46  C   UNL     1       5.211  -5.773  26.587  0.00  0.00    +0.179 C 
ATOM     47  C   UNL     1       4.568  -6.951  27.335  0.00  0.00    +0.174 C 
BRANCH  47  48
ATOM     48  O   UNL     1       5.536  -7.517  28.235  0.00  0.00    -0.387 OA
ATOM     49  H   UNL     1       5.111  -7.551  29.123  0.00  0.00    +0.210 HD
ENDBRANCH  47  48
BRANCH  46  50
ATOM     50  O   UNL     1       6.442  -6.182  25.985  0.00  0.00    -0.386 OA
ATOM     51  H   UNL     1       7.144  -6.043  26.652  0.00  0.00    +0.210 HD
ENDBRANCH  46  50
BRANCH  45  52
ATOM     52  O   UNL     1       6.223  -4.974  28.670  0.00  0.00    -0.384 OA
ATOM     53  H   UNL     1       5.740  -5.700  29.114  0.00  0.00    +0.210 HD
ENDBRANCH  45  52
ENDBRANCH  40  44
ENDBRANCH  39  40
ENDBRANCH   1  39
TORSDOF 16
ENDMDL
MODEL 3
REMARK VINA RESULT:      -7.1      2.531      7.014
REMARK  Name = 
REMARK  21 active torsions:
REMARK  status: ('A' for Active; 'I' for Inactive)
REMARK    1  A    between atoms: C_1  and  C_2
REMARK    2  A    between atoms: C_3  and  O_52
REMARK    3  A    between atoms: C_5  and  O_51
REMARK    4  A    between atoms: C_7  and  O_50
REMARK    5  A    between atoms: C_8  and  O_11
REMARK    6  A    between atoms: O_11  and  C_12
REMARK    7  A    between atoms: C_12  and  C_13
REMARK    8  A    between atoms: C_14  and  O_49
REMARK    9  A    between atoms: C_16  and  O_48
REMARK   10  A    between atoms: C_17  and  O_47
REMARK   11  A    between atoms: C_18  and  O_21
REMARK   12  A    between atoms: O_21  and  C_22
REMARK   13  A    between atoms: C_23  and  C_37
REMARK   14  A    between atoms: C_29  and  O_35
REMARK   15  A    between atoms: C_31  and  O_33
REMARK   16  A    between atoms: O_33  and  C_34
REMARK   17  A    between atoms: O_35  and  C_36
REMARK   18  A    between atoms: C_39  and  O_45
REMARK   19  A    between atoms: C_40  and  O_43
REMARK   20  A    between atoms: O_43  and  C_44
REMARK   21  A    between atoms: O_45  and  C_46
REMARK                            x       y       z     vdW  Elec       q    Type
REMARK                         _______ _______ _______ _____ _____    ______ ____
ROOT
ATOM      1  C   UNL     1       8.654  -2.056  25.537  0.00  0.00    +0.179 C 
ATOM      2  O   UNL     1       8.553  -0.636  25.772  0.00  0.00    -0.331 OA
ATOM      3  C   UNL     1       8.152   0.212  24.664  0.00  0.00    +0.340 C 
ATOM      4  C   UNL     1       8.968  -0.107  23.385  0.00  0.00    +0.214 C 
ATOM      5  C   UNL     1       9.016  -1.616  23.100  0.00  0.00    +0.180 C 
ATOM      6  C   UNL     1       9.586  -2.335  24.338  0.00  0.00    +0.177 C 
ENDROOT
BRANCH   6   7
ATOM      7  O   UNL     1       9.728  -3.737  24.111  0.00  0.00    -0.386 OA
ATOM      8  H   UNL     1       9.015  -4.018  23.504  0.00  0.00    +0.210 HD
ENDBRANCH   6   7
BRANCH   5   9
ATOM      9  O   UNL     1       9.836  -1.867  21.948  0.00  0.00    -0.386 OA
ATOM     10  H   UNL     1      10.722  -2.091  22.289  0.00  0.00    +0.210 HD
ENDBRANCH   5   9
BRANCH   4  11
ATOM     11  O   UNL     1      10.346   0.333  23.525  0.00  0.00    -0.383 OA
ATOM     12  H   UNL     1      10.324   1.301  23.644  0.00  0.00    +0.210 HD
ENDBRANCH   4  11
BRANCH   3  13
ATOM     13  O   UNL     1       8.406   1.585  25.068  0.00  0.00    -0.453 OA
BRANCH  13  14
ATOM     14  C   UNL     1       7.516   2.640  24.849  0.00  0.00    +0.214 A 
ATOM     15  C   UNL     1       6.020   2.486  25.070  0.00  0.00    +0.238 A 
ATOM     16  O   UNL     1       5.567   1.471  25.579  0.00  0.00    -0.283 OA
ATOM     17  C   UNL     1       5.148   3.608  24.636  0.00  0.00    +0.109 A 
ATOM     18  C   UNL     1       3.749   3.525  24.525  0.00  0.00    +0.138 A 
ATOM     19  C   UNL     1       3.030   4.644  24.060  0.00  0.00    +0.092 A 
ATOM     20  C   UNL     1       3.680   5.846  23.736  0.00  0.00    +0.127 A 
ATOM     21  C   UNL     1       5.051   5.924  23.875  0.00  0.00    +0.092 A 
ATOM     22  C   UNL     1       5.773   4.804  24.291  0.00  0.00    +0.147 A 
ATOM     23  O   UNL     1       7.115   4.971  24.314  0.00  0.00    -0.451 OA
ATOM     24  C   UNL     1       7.937   3.868  24.437  0.00  0.00    +0.181 A 
BRANCH  24  25
ATOM     25  C   UNL     1       9.329   4.294  24.106  0.00  0.00    +0.025 A 
ATOM     26  C   UNL     1      10.196   3.405  23.488  0.00  0.00    +0.015 A 
ATOM     27  C   UNL     1      11.522   3.769  23.252  0.00  0.00    +0.050 A 
ATOM     28  C   UNL     1      12.019   5.039  23.575  0.00  0.00    +0.162 A 
ATOM     29  C   UNL     1      11.207   5.927  24.293  0.00  0.00    +0.162 A 
ATOM     30  C   UNL     1       9.870   5.536  24.563  0.00  0.00    +0.061 A 
BRANCH  29  31
ATOM     31  O   UNL     1      11.790   7.083  24.741  0.00  0.00    -0.491 OA
ATOM     32  C   UNL     1      12.443   7.106  26.006  0.00  0.00    +0.277 C 
ENDBRANCH  29  31
BRANCH  28  33
ATOM     33  O   UNL     1      13.302   5.193  23.126  0.00  0.00    -0.491 OA
ATOM     34  C   UNL     1      13.561   5.808  21.874  0.00  0.00    +0.277 C 
ENDBRANCH  28  33
ENDBRANCH  24  25
BRANCH  20  35
ATOM     35  O   UNL     1       2.860   6.849  23.283  0.00  0.00    -0.495 OA
ATOM     36  C   UNL     1       1.550   6.470  22.866  0.00  0.00    +0.277 C 
ENDBRANCH  20  35
BRANCH  18  37
ATOM     37  O   UNL     1       3.159   2.333  24.849  0.00  0.00    -0.494 OA
ATOM     38  C   UNL     1       2.217   2.317  25.913  0.00  0.00    +0.277 C 
ENDBRANCH  18  37
ENDBRANCH  13  14
ENDBRANCH   3  13
BRANCH   1  39
ATOM     39  C   UNL     1       7.307  -2.830  25.384  0.00  0.00    +0.197 C 
BRANCH  39  40
ATOM     40  O   UNL     1       7.315  -4.234  25.629  0.00  0.00    -0.346 OA
BRANCH  40  44
ATOM     41  C   UNL     1       7.205  -5.644  21.642  0.00  0.00    +0.041 C 
ATOM     42  C   UNL     1       6.039  -4.933  22.321  0.00  0.00    +0.149 C 
ATOM     43  O   UNL     1       6.508  -4.256  23.496  0.00  0.00    -0.343 OA
ATOM     44  C   UNL     1       6.792  -5.096  24.628  0.00  0.00    +0.282 C 
ATOM     45  C   UNL     1       5.473  -5.802  25.032  0.00  0.00    +0.201 C 
ATOM     46  C   UNL     1       5.096  -6.723  23.857  0.00  0.00    +0.179 C 
ATOM     47  C   UNL     1       4.861  -5.890  22.588  0.00  0.00    +0.174 C 
BRANCH  47  48
ATOM     48  O   UNL     1       3.628  -5.163  22.729  0.00  0.00    -0.387 OA
ATOM     49  H   UNL     1       3.428  -5.127  23.692  0.00  0.00    +0.210 HD
ENDBRANCH  47  48
BRANCH  46  50
ATOM     50  O   UNL     1       3.944  -7.520  24.147  0.00  0.00    -0.386 OA
ATOM     51  H   UNL     1       3.350  -6.972  24.697  0.00  0.00    +0.210 HD
ENDBRANCH  46  50
BRANCH  45  52
ATOM     52  O   UNL     1       4.425  -4.827  25.254  0.00  0.00    -0.384 OA
ATOM     53  H   UNL     1       4.547  -4.140  24.568  0.00  0.00    +0.210 HD
ENDBRANCH  45  52
ENDBRANCH  40  44
ENDBRANCH  39  40
ENDBRANCH   1  39
TORSDOF 16
ENDMDL
MODEL 4
REMARK VINA RESULT:      -6.9      2.499      7.598
REMARK  Name = 
REMARK  21 active torsions:
REMARK  status: ('A' for Active; 'I' for Inactive)
REMARK    1  A    between atoms: C_1  and  C_2
REMARK    2  A    between atoms: C_3  and  O_52
REMARK    3  A    between atoms: C_5  and  O_51
REMARK    4  A    between atoms: C_7  and  O_50
REMARK    5  A    between atoms: C_8  and  O_11
REMARK    6  A    between atoms: O_11  and  C_12
REMARK    7  A    between atoms: C_12  and  C_13
REMARK    8  A    between atoms: C_14  and  O_49
REMARK    9  A    between atoms: C_16  and  O_48
REMARK   10  A    between atoms: C_17  and  O_47
REMARK   11  A    between atoms: C_18  and  O_21
REMARK   12  A    between atoms: O_21  and  C_22
REMARK   13  A    between atoms: C_23  and  C_37
REMARK   14  A    between atoms: C_29  and  O_35
REMARK   15  A    between atoms: C_31  and  O_33
REMARK   16  A    between atoms: O_33  and  C_34
REMARK   17  A    between atoms: O_35  and  C_36
REMARK   18  A    between atoms: C_39  and  O_45
REMARK   19  A    between atoms: C_40  and  O_43
REMARK   20  A    between atoms: O_43  and  C_44
REMARK   21  A    between atoms: O_45  and  C_46
REMARK                            x       y       z     vdW  Elec       q    Type
REMARK                         _______ _______ _______ _____ _____    ______ ____
ROOT
ATOM      1  C   UNL     1       9.751  -1.655  23.830  0.00  0.00    +0.179 C 
ATOM      2  O   UNL     1       9.287  -0.834  24.922  0.00  0.00    -0.331 OA
ATOM      3  C   UNL     1       8.174   0.065  24.673  0.00  0.00    +0.340 C 
ATOM      4  C   UNL     1       8.394   0.891  23.380  0.00  0.00    +0.214 C 
ATOM      5  C   UNL     1       8.823   0.004  22.201  0.00  0.00    +0.180 C 
ATOM      6  C   UNL     1      10.090  -0.777  22.606  0.00  0.00    +0.177 C 
ENDROOT
BRANCH   6   7
ATOM      7  O   UNL     1      10.586  -1.566  21.525  0.00  0.00    -0.386 OA
ATOM      8  H   UNL     1      11.142  -2.278  21.903  0.00  0.00    +0.210 HD
ENDBRANCH   6   7
BRANCH   5   9
ATOM      9  O   UNL     1       9.080   0.819  21.047  0.00  0.00    -0.386 OA
ATOM     10  H   UNL     1       8.503   0.477  20.340  0.00  0.00    +0.210 HD
ENDBRANCH   5   9
BRANCH   4  11
ATOM     11  O   UNL     1       9.448   1.874  23.565  0.00  0.00    -0.383 OA
ATOM     12  H   UNL     1       9.971   1.888  22.742  0.00  0.00    +0.210 HD
ENDBRANCH   4  11
BRANCH   3  13
ATOM     13  O   UNL     1       8.094   0.964  25.812  0.00  0.00    -0.453 OA
BRANCH  13  14
ATOM     14  C   UNL     1       6.896   1.345  26.424  0.00  0.00    +0.214 A 
ATOM     15  C   UNL     1       6.171   0.434  27.400  0.00  0.00    +0.238 A 
ATOM     16  O   UNL     1       6.688  -0.605  27.786  0.00  0.00    -0.283 OA
ATOM     17  C   UNL     1       4.820   0.856  27.852  0.00  0.00    +0.109 A 
ATOM     18  C   UNL     1       3.917   0.023  28.534  0.00  0.00    +0.138 A 
ATOM     19  C   UNL     1       2.644   0.523  28.874  0.00  0.00    +0.092 A 
ATOM     20  C   UNL     1       2.274   1.844  28.572  0.00  0.00    +0.127 A 
ATOM     21  C   UNL     1       3.179   2.661  27.927  0.00  0.00    +0.092 A 
ATOM     22  C   UNL     1       4.425   2.157  27.547  0.00  0.00    +0.147 A 
ATOM     23  O   UNL     1       5.197   3.022  26.851  0.00  0.00    -0.451 OA
ATOM     24  C   UNL     1       6.317   2.554  26.191  0.00  0.00    +0.181 A 
BRANCH  24  25
ATOM     25  C   UNL     1       6.780   3.625  25.259  0.00  0.00    +0.025 A 
ATOM     26  C   UNL     1       6.148   3.799  24.036  0.00  0.00    +0.015 A 
ATOM     27  C   UNL     1       6.628   4.741  23.126  0.00  0.00    +0.050 A 
ATOM     28  C   UNL     1       7.718   5.574  23.416  0.00  0.00    +0.162 A 
ATOM     29  C   UNL     1       8.446   5.360  24.594  0.00  0.00    +0.162 A 
ATOM     30  C   UNL     1       7.974   4.375  25.497  0.00  0.00    +0.061 A 
BRANCH  29  31
ATOM     31  O   UNL     1       9.604   6.076  24.750  0.00  0.00    -0.491 OA
ATOM     32  C   UNL     1      10.743   5.768  23.953  0.00  0.00    +0.277 C 
ENDBRANCH  29  31
BRANCH  28  33
ATOM     33  O   UNL     1       7.909   6.496  22.423  0.00  0.00    -0.491 OA
ATOM     34  C   UNL     1       6.802   7.060  21.738  0.00  0.00    +0.277 C 
ENDBRANCH  28  33
ENDBRANCH  24  25
BRANCH  20  35
ATOM     35  O   UNL     1       1.001   2.194  28.947  0.00  0.00    -0.495 OA
ATOM     36  C   UNL     1       0.806   3.540  29.378  0.00  0.00    +0.277 C 
ENDBRANCH  20  35
BRANCH  18  37
ATOM     37  O   UNL     1       4.319  -1.257  28.804  0.00  0.00    -0.494 OA
ATOM     38  C   UNL     1       3.585  -2.003  29.766  0.00  0.00    +0.277 C 
ENDBRANCH  18  37
ENDBRANCH  13  14
ENDBRANCH   3  13
BRANCH   1  39
ATOM     39  C   UNL     1       8.831  -2.848  23.419  0.00  0.00    +0.197 C 
BRANCH  39  40
ATOM     40  O   UNL     1       9.025  -4.096  24.080  0.00  0.00    -0.346 OA
BRANCH  40  44
ATOM     41  C   UNL     1       5.123  -5.726  24.188  0.00  0.00    +0.041 C 
ATOM     42  C   UNL     1       5.512  -4.416  24.866  0.00  0.00    +0.149 C 
ATOM     43  O   UNL     1       6.763  -3.955  24.336  0.00  0.00    -0.343 OA
ATOM     44  C   UNL     1       7.931  -4.659  24.790  0.00  0.00    +0.282 C 
ATOM     45  C   UNL     1       8.020  -4.480  26.327  0.00  0.00    +0.201 C 
ATOM     46  C   UNL     1       6.791  -5.194  26.919  0.00  0.00    +0.179 C 
ATOM     47  C   UNL     1       5.501  -4.539  26.402  0.00  0.00    +0.174 C 
BRANCH  47  48
ATOM     48  O   UNL     1       5.351  -3.250  27.021  0.00  0.00    -0.387 OA
ATOM     49  H   UNL     1       6.098  -2.694  26.703  0.00  0.00    +0.210 HD
ENDBRANCH  47  48
BRANCH  46  50
ATOM     50  O   UNL     1       6.807  -5.196  28.349  0.00  0.00    -0.386 OA
ATOM     51  H   UNL     1       6.340  -6.005  28.638  0.00  0.00    +0.210 HD
ENDBRANCH  46  50
BRANCH  45  52
ATOM     52  O   UNL     1       7.992  -3.074  26.674  0.00  0.00    -0.384 OA
ATOM     53  H   UNL     1       8.118  -3.033  27.644  0.00  0.00    +0.210 HD
ENDBRANCH  45  52
ENDBRANCH  40  44
ENDBRANCH  39  40
ENDBRANCH   1  39
TORSDOF 16
ENDMDL
MODEL 5
REMARK VINA RESULT:      -6.8      1.982      9.014
REMARK  Name = 
REMARK  21 active torsions:
REMARK  status: ('A' for Active; 'I' for Inactive)
REMARK    1  A    between atoms: C_1  and  C_2
REMARK    2  A    between atoms: C_3  and  O_52
REMARK    3  A    between atoms: C_5  and  O_51
REMARK    4  A    between atoms: C_7  and  O_50
REMARK    5  A    between atoms: C_8  and  O_11
REMARK    6  A    between atoms: O_11  and  C_12
REMARK    7  A    between atoms: C_12  and  C_13
REMARK    8  A    between atoms: C_14  and  O_49
REMARK    9  A    between atoms: C_16  and  O_48
REMARK   10  A    between atoms: C_17  and  O_47
REMARK   11  A    between atoms: C_18  and  O_21
REMARK   12  A    between atoms: O_21  and  C_22
REMARK   13  A    between atoms: C_23  and  C_37
REMARK   14  A    between atoms: C_29  and  O_35
REMARK   15  A    between atoms: C_31  and  O_33
REMARK   16  A    between atoms: O_33  and  C_34
REMARK   17  A    between atoms: O_35  and  C_36
REMARK   18  A    between atoms: C_39  and  O_45
REMARK   19  A    between atoms: C_40  and  O_43
REMARK   20  A    between atoms: O_43  and  C_44
REMARK   21  A    between atoms: O_45  and  C_46
REMARK                            x       y       z     vdW  Elec       q    Type
REMARK                         _______ _______ _______ _____ _____    ______ ____
ROOT
ATOM      1  C   UNL     1       7.426   0.085  26.547  0.00  0.00    +0.179 C 
ATOM      2  O   UNL     1       6.743  -1.186  26.558  0.00  0.00    -0.331 OA
ATOM      3  C   UNL     1       5.321  -1.197  26.263  0.00  0.00    +0.340 C 
ATOM      4  C   UNL     1       4.565  -0.125  27.088  0.00  0.00    +0.214 C 
ATOM      5  C   UNL     1       5.259   1.244  27.018  0.00  0.00    +0.180 C 
ATOM      6  C   UNL     1       6.718   1.083  27.489  0.00  0.00    +0.177 C 
ENDROOT
BRANCH   6   7
ATOM      7  O   UNL     1       7.400   2.336  27.521  0.00  0.00    -0.386 OA
ATOM      8  H   UNL     1       6.990   2.885  28.220  0.00  0.00    +0.210 HD
ENDBRANCH   6   7
BRANCH   5   9
ATOM      9  O   UNL     1       4.561   2.185  27.850  0.00  0.00    -0.386 OA
ATOM     10  H   UNL     1       3.768   2.453  27.350  0.00  0.00    +0.210 HD
ENDBRANCH   5   9
BRANCH   4  11
ATOM     11  O   UNL     1       4.512  -0.493  28.493  0.00  0.00    -0.383 OA
ATOM     12  H   UNL     1       4.252   0.307  28.987  0.00  0.00    +0.210 HD
ENDBRANCH   4  11
BRANCH   3  13
ATOM     13  O   UNL     1       4.826  -2.517  26.618  0.00  0.00    -0.453 OA
BRANCH  13  14
ATOM     14  C   UNL     1       4.216  -3.391  25.714  0.00  0.00    +0.214 A 
ATOM     15  C   UNL     1       2.851  -4.001  25.987  0.00  0.00    +0.238 A 
ATOM     16  O   UNL     1       2.185  -3.635  26.945  0.00  0.00    -0.283 OA
ATOM     17  C   UNL     1       2.375  -5.054  25.052  0.00  0.00    +0.109 A 
ATOM     18  C   UNL     1       1.277  -5.894  25.299  0.00  0.00    +0.138 A 
ATOM     19  C   UNL     1       0.945  -6.887  24.356  0.00  0.00    +0.092 A 
ATOM     20  C   UNL     1       1.673  -7.032  23.163  0.00  0.00    +0.127 A 
ATOM     21  C   UNL     1       2.732  -6.183  22.918  0.00  0.00    +0.092 A 
ATOM     22  C   UNL     1       3.092  -5.227  23.871  0.00  0.00    +0.147 A 
ATOM     23  O   UNL     1       4.194  -4.506  23.561  0.00  0.00    -0.451 OA
ATOM     24  C   UNL     1       4.801  -3.737  24.534  0.00  0.00    +0.181 A 
BRANCH  24  25
ATOM     25  C   UNL     1       6.143  -3.327  24.025  0.00  0.00    +0.025 A 
ATOM     26  C   UNL     1       6.239  -2.498  22.917  0.00  0.00    +0.015 A 
ATOM     27  C   UNL     1       7.489  -2.179  22.386  0.00  0.00    +0.050 A 
ATOM     28  C   UNL     1       8.684  -2.630  22.962  0.00  0.00    +0.162 A 
ATOM     29  C   UNL     1       8.629  -3.551  24.016  0.00  0.00    +0.162 A 
ATOM     30  C   UNL     1       7.353  -3.900  24.527  0.00  0.00    +0.061 A 
BRANCH  29  31
ATOM     31  O   UNL     1       9.815  -4.099  24.429  0.00  0.00    -0.491 OA
ATOM     32  C   UNL     1       9.828  -5.045  25.493  0.00  0.00    +0.277 C 
ENDBRANCH  29  31
BRANCH  28  33
ATOM     33  O   UNL     1       9.770  -2.075  22.339  0.00  0.00    -0.491 OA
ATOM     34  C   UNL     1       9.691  -0.779  21.768  0.00  0.00    +0.277 C 
ENDBRANCH  28  33
ENDBRANCH  24  25
BRANCH  20  35
ATOM     35  O   UNL     1       1.251  -8.047  22.342  0.00  0.00    -0.495 OA
ATOM     36  C   UNL     1       0.443  -7.677  21.226  0.00  0.00    +0.277 C 
ENDBRANCH  20  35
BRANCH  18  37
ATOM     37  O   UNL     1       0.600  -5.720  26.477  0.00  0.00    -0.494 OA
ATOM     38  C   UNL     1       0.564  -6.802  27.397  0.00  0.00    +0.277 C 
ENDBRANCH  18  37
ENDBRANCH  13  14
ENDBRANCH   3  13
BRANCH   1  39
ATOM     39  C   UNL     1       7.674   0.727  25.145  0.00  0.00    +0.197 C 
BRANCH  39  40
ATOM     40  O   UNL     1       8.844   1.524  24.976  0.00  0.00    -0.346 OA
BRANCH  40  44
ATOM     41  C   UNL     1       6.667   5.099  25.588  0.00  0.00    +0.041 C 
ATOM     42  C   UNL     1       6.919   4.487  24.214  0.00  0.00    +0.149 C 
ATOM     43  O   UNL     1       7.334   3.122  24.367  0.00  0.00    -0.343 OA
ATOM     44  C   UNL     1       8.685   2.927  24.818  0.00  0.00    +0.282 C 
ATOM     45  C   UNL     1       9.629   3.551  23.759  0.00  0.00    +0.201 C 
ATOM     46  C   UNL     1       9.352   5.066  23.770  0.00  0.00    +0.179 C 
ATOM     47  C   UNL     1       7.892   5.338  23.377  0.00  0.00    +0.174 C 
BRANCH  47  48
ATOM     48  O   UNL     1       7.730   5.075  21.972  0.00  0.00    -0.387 OA
ATOM     49  H   UNL     1       6.766   5.141  21.781  0.00  0.00    +0.210 HD
ENDBRANCH  47  48
BRANCH  46  50
ATOM     50  O   UNL     1      10.239   5.781  22.906  0.00  0.00    -0.386 OA
ATOM     51  H   UNL     1      11.149   5.517  23.150  0.00  0.00    +0.210 HD
ENDBRANCH  46  50
BRANCH  45  52
ATOM     52  O   UNL     1       9.348   3.005  22.447  0.00  0.00    -0.384 OA
ATOM     53  H   UNL     1      10.141   3.189  21.903  0.00  0.00    +0.210 HD
ENDBRANCH  45  52
ENDBRANCH  40  44
ENDBRANCH  39  40
ENDBRANCH   1  39
TORSDOF 16
ENDMDL
MODEL 6
REMARK VINA RESULT:      -6.8      2.267      8.290
REMARK  Name = 
REMARK  21 active torsions:
REMARK  status: ('A' for Active; 'I' for Inactive)
REMARK    1  A    between atoms: C_1  and  C_2
REMARK    2  A    between atoms: C_3  and  O_52
REMARK    3  A    between atoms: C_5  and  O_51
REMARK    4  A    between atoms: C_7  and  O_50
REMARK    5  A    between atoms: C_8  and  O_11
REMARK    6  A    between atoms: O_11  and  C_12
REMARK    7  A    between atoms: C_12  and  C_13
REMARK    8  A    between atoms: C_14  and  O_49
REMARK    9  A    between atoms: C_16  and  O_48
REMARK   10  A    between atoms: C_17  and  O_47
REMARK   11  A    between atoms: C_18  and  O_21
REMARK   12  A    between atoms: O_21  and  C_22
REMARK   13  A    between atoms: C_23  and  C_37
REMARK   14  A    between atoms: C_29  and  O_35
REMARK   15  A    between atoms: C_31  and  O_33
REMARK   16  A    between atoms: O_33  and  C_34
REMARK   17  A    between atoms: O_35  and  C_36
REMARK   18  A    between atoms: C_39  and  O_45
REMARK   19  A    between atoms: C_40  and  O_43
REMARK   20  A    between atoms: O_43  and  C_44
REMARK   21  A    between atoms: O_45  and  C_46
REMARK                            x       y       z     vdW  Elec       q    Type
REMARK                         _______ _______ _______ _____ _____    ______ ____
ROOT
ATOM      1  C   UNL     1       8.066   0.275  22.604  0.00  0.00    +0.179 C 
ATOM      2  O   UNL     1       7.622   0.057  23.959  0.00  0.00    -0.331 OA
ATOM      3  C   UNL     1       8.626  -0.236  24.966  0.00  0.00    +0.340 C 
ATOM      4  C   UNL     1       9.597  -1.347  24.488  0.00  0.00    +0.214 C 
ATOM      5  C   UNL     1      10.120  -1.076  23.069  0.00  0.00    +0.180 C 
ATOM      6  C   UNL     1       8.916  -0.919  22.120  0.00  0.00    +0.177 C 
ENDROOT
BRANCH   6   7
ATOM      7  O   UNL     1       9.335  -0.740  20.767  0.00  0.00    -0.386 OA
ATOM      8  H   UNL     1       9.233   0.207  20.543  0.00  0.00    +0.210 HD
ENDBRANCH   6   7
BRANCH   5   9
ATOM      9  O   UNL     1      10.959  -2.162  22.645  0.00  0.00    -0.386 OA
ATOM     10  H   UNL     1      10.741  -2.915  23.224  0.00  0.00    +0.210 HD
ENDBRANCH   5   9
BRANCH   4  11
ATOM     11  O   UNL     1       8.929  -2.636  24.445  0.00  0.00    -0.383 OA
ATOM     12  H   UNL     1       9.571  -3.278  24.087  0.00  0.00    +0.210 HD
ENDBRANCH   4  11
BRANCH   3  13
ATOM     13  O   UNL     1       7.918  -0.692  26.151  0.00  0.00    -0.453 OA
BRANCH  13  14
ATOM     14  C   UNL     1       6.585  -0.380  26.431  0.00  0.00    +0.214 A 
ATOM     15  C   UNL     1       6.196   0.908  27.140  0.00  0.00    +0.238 A 
ATOM     16  O   UNL     1       7.030   1.774  27.362  0.00  0.00    -0.283 OA
ATOM     17  C   UNL     1       4.776   1.057  27.551  0.00  0.00    +0.109 A 
ATOM     18  C   UNL     1       4.307   2.047  28.431  0.00  0.00    +0.138 A 
ATOM     19  C   UNL     1       2.942   2.063  28.782  0.00  0.00    +0.092 A 
ATOM     20  C   UNL     1       2.040   1.130  28.246  0.00  0.00    +0.127 A 
ATOM     21  C   UNL     1       2.506   0.180  27.360  0.00  0.00    +0.092 A 
ATOM     22  C   UNL     1       3.866   0.131  27.045  0.00  0.00    +0.147 A 
ATOM     23  O   UNL     1       4.223  -0.889  26.232  0.00  0.00    -0.451 OA
ATOM     24  C   UNL     1       5.559  -1.202  26.078  0.00  0.00    +0.181 A 
BRANCH  24  25
ATOM     25  C   UNL     1       5.645  -2.536  25.414  0.00  0.00    +0.025 A 
ATOM     26  C   UNL     1       5.362  -2.656  24.062  0.00  0.00    +0.015 A 
ATOM     27  C   UNL     1       5.358  -3.912  23.454  0.00  0.00    +0.050 A 
ATOM     28  C   UNL     1       5.682  -5.083  24.154  0.00  0.00    +0.162 A 
ATOM     29  C   UNL     1       5.871  -5.019  25.541  0.00  0.00    +0.162 A 
ATOM     30  C   UNL     1       5.837  -3.743  26.158  0.00  0.00    +0.061 A 
BRANCH  29  31
ATOM     31  O   UNL     1       6.009  -6.208  26.207  0.00  0.00    -0.491 OA
ATOM     32  C   UNL     1       4.890  -6.780  26.877  0.00  0.00    +0.277 C 
ENDBRANCH  29  31
BRANCH  28  33
ATOM     33  O   UNL     1       5.736  -6.159  23.311  0.00  0.00    -0.491 OA
ATOM     34  C   UNL     1       6.423  -6.074  22.072  0.00  0.00    +0.277 C 
ENDBRANCH  28  33
ENDBRANCH  24  25
BRANCH  20  35
ATOM     35  O   UNL     1       0.745   1.251  28.683  0.00  0.00    -0.495 OA
ATOM     36  C   UNL     1       0.554   1.837  29.969  0.00  0.00    +0.277 C 
ENDBRANCH  20  35
BRANCH  18  37
ATOM     37  O   UNL     1       5.222   2.933  28.932  0.00  0.00    -0.494 OA
ATOM     38  C   UNL     1       5.003   4.320  28.714  0.00  0.00    +0.277 C 
ENDBRANCH  18  37
ENDBRANCH  13  14
ENDBRANCH   3  13
BRANCH   1  39
ATOM     39  C   UNL     1       8.796   1.626  22.322  0.00  0.00    +0.197 C 
BRANCH  39  40
ATOM     40  O   UNL     1       8.001   2.744  21.934  0.00  0.00    -0.346 OA
BRANCH  40  44
ATOM     41  C   UNL     1       9.978   6.025  23.729  0.00  0.00    +0.041 C 
ATOM     42  C   UNL     1       9.393   4.856  24.515  0.00  0.00    +0.149 C 
ATOM     43  O   UNL     1       9.146   3.757  23.627  0.00  0.00    -0.343 OA
ATOM     44  C   UNL     1       7.999   3.892  22.771  0.00  0.00    +0.282 C 
ATOM     45  C   UNL     1       6.747   4.006  23.677  0.00  0.00    +0.201 C 
ATOM     46  C   UNL     1       6.897   5.324  24.460  0.00  0.00    +0.179 C 
ATOM     47  C   UNL     1       8.159   5.277  25.335  0.00  0.00    +0.174 C 
BRANCH  47  48
ATOM     48  O   UNL     1       7.934   4.372  26.430  0.00  0.00    -0.387 OA
ATOM     49  H   UNL     1       8.633   3.680  26.374  0.00  0.00    +0.210 HD
ENDBRANCH  47  48
BRANCH  46  50
ATOM     50  O   UNL     1       5.747   5.607  25.263  0.00  0.00    -0.386 OA
ATOM     51  H   UNL     1       6.045   6.190  25.989  0.00  0.00    +0.210 HD
ENDBRANCH  46  50
BRANCH  45  52
ATOM     52  O   UNL     1       6.684   2.888  24.596  0.00  0.00    -0.384 OA
ATOM     53  H   UNL     1       7.405   3.029  25.242  0.00  0.00    +0.210 HD
ENDBRANCH  45  52
ENDBRANCH  40  44
ENDBRANCH  39  40
ENDBRANCH   1  39
TORSDOF 16
ENDMDL
MODEL 7
REMARK VINA RESULT:      -6.8      2.205      6.707
REMARK  Name = 
REMARK  21 active torsions:
REMARK  status: ('A' for Active; 'I' for Inactive)
REMARK    1  A    between atoms: C_1  and  C_2
REMARK    2  A    between atoms: C_3  and  O_52
REMARK    3  A    between atoms: C_5  and  O_51
REMARK    4  A    between atoms: C_7  and  O_50
REMARK    5  A    between atoms: C_8  and  O_11
REMARK    6  A    between atoms: O_11  and  C_12
REMARK    7  A    between atoms: C_12  and  C_13
REMARK    8  A    between atoms: C_14  and  O_49
REMARK    9  A    between atoms: C_16  and  O_48
REMARK   10  A    between atoms: C_17  and  O_47
REMARK   11  A    between atoms: C_18  and  O_21
REMARK   12  A    between atoms: O_21  and  C_22
REMARK   13  A    between atoms: C_23  and  C_37
REMARK   14  A    between atoms: C_29  and  O_35
REMARK   15  A    between atoms: C_31  and  O_33
REMARK   16  A    between atoms: O_33  and  C_34
REMARK   17  A    between atoms: O_35  and  C_36
REMARK   18  A    between atoms: C_39  and  O_45
REMARK   19  A    between atoms: C_40  and  O_43
REMARK   20  A    between atoms: O_43  and  C_44
REMARK   21  A    between atoms: O_45  and  C_46
REMARK                            x       y       z     vdW  Elec       q    Type
REMARK                         _______ _______ _______ _____ _____    ______ ____
ROOT
ATOM      1  C   UNL     1       8.224  -4.304  25.804  0.00  0.00    +0.179 C 
ATOM      2  O   UNL     1       7.330  -3.183  25.645  0.00  0.00    -0.331 OA
ATOM      3  C   UNL     1       6.204  -3.331  24.739  0.00  0.00    +0.340 C 
ATOM      4  C   UNL     1       6.651  -3.915  23.375  0.00  0.00    +0.214 C 
ATOM      5  C   UNL     1       7.548  -5.151  23.548  0.00  0.00    +0.180 C 
ATOM      6  C   UNL     1       8.753  -4.767  24.429  0.00  0.00    +0.177 C 
ENDROOT
BRANCH   6   7
ATOM      7  O   UNL     1       9.668  -5.853  24.568  0.00  0.00    -0.386 OA
ATOM      8  H   UNL     1      10.488  -5.620  24.086  0.00  0.00    +0.210 HD
ENDBRANCH   6   7
BRANCH   5   9
ATOM      9  O   UNL     1       7.990  -5.614  22.262  0.00  0.00    -0.386 OA
ATOM     10  H   UNL     1       7.245  -6.116  21.884  0.00  0.00    +0.210 HD
ENDBRANCH   5   9
BRANCH   4  11
ATOM     11  O   UNL     1       7.425  -2.943  22.622  0.00  0.00    -0.383 OA
ATOM     12  H   UNL     1       8.357  -3.226  22.665  0.00  0.00    +0.210 HD
ENDBRANCH   4  11
BRANCH   3  13
ATOM     13  O   UNL     1       5.645  -2.005  24.537  0.00  0.00    -0.453 OA
BRANCH  13  14
ATOM     14  C   UNL     1       5.308  -1.133  25.576  0.00  0.00    +0.214 A 
ATOM     15  C   UNL     1       4.182  -1.444  26.548  0.00  0.00    +0.238 A 
ATOM     16  O   UNL     1       3.628  -2.534  26.533  0.00  0.00    -0.283 OA
ATOM     17  C   UNL     1       3.788  -0.373  27.500  0.00  0.00    +0.109 A 
ATOM     18  C   UNL     1       2.616  -0.394  28.275  0.00  0.00    +0.138 A 
ATOM     19  C   UNL     1       2.325   0.702  29.111  0.00  0.00    +0.092 A 
ATOM     20  C   UNL     1       3.197   1.798  29.206  0.00  0.00    +0.127 A 
ATOM     21  C   UNL     1       4.359   1.796  28.462  0.00  0.00    +0.092 A 
ATOM     22  C   UNL     1       4.629   0.733  27.597  0.00  0.00    +0.147 A 
ATOM     23  O   UNL     1       5.753   0.876  26.859  0.00  0.00    -0.451 OA
ATOM     24  C   UNL     1       5.973   0.036  25.785  0.00  0.00    +0.181 A 
BRANCH  24  25
ATOM     25  C   UNL     1       7.085   0.612  24.972  0.00  0.00    +0.025 A 
ATOM     26  C   UNL     1       8.397   0.480  25.401  0.00  0.00    +0.015 A 
ATOM     27  C   UNL     1       9.432   1.088  24.690  0.00  0.00    +0.050 A 
ATOM     28  C   UNL     1       9.207   1.805  23.506  0.00  0.00    +0.162 A 
ATOM     29  C   UNL     1       7.890   2.050  23.097  0.00  0.00    +0.162 A 
ATOM     30  C   UNL     1       6.840   1.459  23.845  0.00  0.00    +0.061 A 
BRANCH  29  31
ATOM     31  O   UNL     1       7.714   2.902  22.038  0.00  0.00    -0.491 OA
ATOM     32  C   UNL     1       7.199   4.211  22.258  0.00  0.00    +0.277 C 
ENDBRANCH  29  31
BRANCH  28  33
ATOM     33  O   UNL     1      10.389   2.188  22.932  0.00  0.00    -0.491 OA
ATOM     34  C   UNL     1      11.037   3.381  23.340  0.00  0.00    +0.277 C 
ENDBRANCH  28  33
ENDBRANCH  24  25
BRANCH  20  35
ATOM     35  O   UNL     1       2.784   2.801  30.048  0.00  0.00    -0.495 OA
ATOM     36  C   UNL     1       2.849   4.132  29.539  0.00  0.00    +0.277 C 
ENDBRANCH  20  35
BRANCH  18  37
ATOM     37  O   UNL     1       1.793  -1.482  28.146  0.00  0.00    -0.494 OA
ATOM     38  C   UNL     1       0.512  -1.289  27.562  0.00  0.00    +0.277 C 
ENDBRANCH  18  37
ENDBRANCH  13  14
ENDBRANCH   3  13
BRANCH   1  39
ATOM     39  C   UNL     1       7.677  -5.515  26.624  0.00  0.00    +0.197 C 
BRANCH  39  40
ATOM     40  O   UNL     1       7.280  -5.280  27.973  0.00  0.00    -0.346 OA
BRANCH  40  44
ATOM     41  C   UNL     1       3.949  -3.628  29.989  0.00  0.00    +0.041 C 
ATOM     42  C   UNL     1       4.471  -5.039  30.234  0.00  0.00    +0.149 C 
ATOM     43  O   UNL     1       5.799  -5.159  29.702  0.00  0.00    -0.343 OA
ATOM     44  C   UNL     1       5.891  -5.259  28.272  0.00  0.00    +0.282 C 
ATOM     45  C   UNL     1       5.136  -6.542  27.841  0.00  0.00    +0.201 C 
ATOM     46  C   UNL     1       3.654  -6.312  28.192  0.00  0.00    +0.179 C 
ATOM     47  C   UNL     1       3.497  -6.111  29.707  0.00  0.00    +0.174 C 
BRANCH  47  48
ATOM     48  O   UNL     1       3.708  -7.370  30.370  0.00  0.00    -0.387 OA
ATOM     49  H   UNL     1       4.255  -7.182  31.167  0.00  0.00    +0.210 HD
ENDBRANCH  47  48
BRANCH  46  50
ATOM     50  O   UNL     1       2.822  -7.387  27.746  0.00  0.00    -0.386 OA
ATOM     51  H   UNL     1       1.943  -7.253  28.154  0.00  0.00    +0.210 HD
ENDBRANCH  46  50
BRANCH  45  52
ATOM     52  O   UNL     1       5.643  -7.693  28.559  0.00  0.00    -0.384 OA
ATOM     53  H   UNL     1       4.863  -8.125  28.961  0.00  0.00    +0.210 HD
ENDBRANCH  45  52
ENDBRANCH  40  44
ENDBRANCH  39  40
ENDBRANCH   1  39
TORSDOF 16
ENDMDL
MODEL 8
REMARK VINA RESULT:      -6.7      2.979      8.364
REMARK  Name = 
REMARK  21 active torsions:
REMARK  status: ('A' for Active; 'I' for Inactive)
REMARK    1  A    between atoms: C_1  and  C_2
REMARK    2  A    between atoms: C_3  and  O_52
REMARK    3  A    between atoms: C_5  and  O_51
REMARK    4  A    between atoms: C_7  and  O_50
REMARK    5  A    between atoms: C_8  and  O_11
REMARK    6  A    between atoms: O_11  and  C_12
REMARK    7  A    between atoms: C_12  and  C_13
REMARK    8  A    between atoms: C_14  and  O_49
REMARK    9  A    between atoms: C_16  and  O_48
REMARK   10  A    between atoms: C_17  and  O_47
REMARK   11  A    between atoms: C_18  and  O_21
REMARK   12  A    between atoms: O_21  and  C_22
REMARK   13  A    between atoms: C_23  and  C_37
REMARK   14  A    between atoms: C_29  and  O_35
REMARK   15  A    between atoms: C_31  and  O_33
REMARK   16  A    between atoms: O_33  and  C_34
REMARK   17  A    between atoms: O_35  and  C_36
REMARK   18  A    between atoms: C_39  and  O_45
REMARK   19  A    between atoms: C_40  and  O_43
REMARK   20  A    between atoms: O_43  and  C_44
REMARK   21  A    between atoms: O_45  and  C_46
REMARK                            x       y       z     vdW  Elec       q    Type
REMARK                         _______ _______ _______ _____ _____    ______ ____
ROOT
ATOM      1  C   UNL     1       6.905   3.551  26.993  0.00  0.00    +0.179 C 
ATOM      2  O   UNL     1       7.503   2.294  26.615  0.00  0.00    -0.331 OA
ATOM      3  C   UNL     1       6.911   1.074  27.133  0.00  0.00    +0.340 C 
ATOM      4  C   UNL     1       6.675   1.167  28.662  0.00  0.00    +0.214 C 
ATOM      5  C   UNL     1       5.976   2.477  29.054  0.00  0.00    +0.180 C 
ATOM      6  C   UNL     1       6.814   3.660  28.531  0.00  0.00    +0.177 C 
ENDROOT
BRANCH   6   7
ATOM      7  O   UNL     1       6.258   4.913  28.928  0.00  0.00    -0.386 OA
ATOM      8  H   UNL     1       5.634   4.747  29.663  0.00  0.00    +0.210 HD
ENDBRANCH   6   7
BRANCH   5   9
ATOM      9  O   UNL     1       5.840   2.547  30.482  0.00  0.00    -0.386 OA
ATOM     10  H   UNL     1       5.613   3.473  30.688  0.00  0.00    +0.210 HD
ENDBRANCH   5   9
BRANCH   4  11
ATOM     11  O   UNL     1       7.935   1.136  29.385  0.00  0.00    -0.383 OA
ATOM     12  H   UNL     1       7.792   1.608  30.227  0.00  0.00    +0.210 HD
ENDBRANCH   4  11
BRANCH   3  13
ATOM     13  O   UNL     1       7.846  -0.003  26.853  0.00  0.00    -0.453 OA
BRANCH  13  14
ATOM     14  C   UNL     1       7.682  -0.932  25.823  0.00  0.00    +0.214 A 
ATOM     15  C   UNL     1       6.975  -2.259  26.046  0.00  0.00    +0.238 A 
ATOM     16  O   UNL     1       6.407  -2.493  27.104  0.00  0.00    -0.283 OA
ATOM     17  C   UNL     1       7.014  -3.247  24.937  0.00  0.00    +0.109 A 
ATOM     18  C   UNL     1       6.647  -4.597  25.067  0.00  0.00    +0.138 A 
ATOM     19  C   UNL     1       6.767  -5.452  23.953  0.00  0.00    +0.092 A 
ATOM     20  C   UNL     1       7.217  -4.974  22.712  0.00  0.00    +0.127 A 
ATOM     21  C   UNL     1       7.548  -3.640  22.588  0.00  0.00    +0.092 A 
ATOM     22  C   UNL     1       7.474  -2.799  23.701  0.00  0.00    +0.147 A 
ATOM     23  O   UNL     1       7.899  -1.534  23.484  0.00  0.00    -0.451 OA
ATOM     24  C   UNL     1       8.133  -0.700  24.560  0.00  0.00    +0.181 A 
BRANCH  24  25
ATOM     25  C   UNL     1       8.890   0.487  24.064  0.00  0.00    +0.025 A 
ATOM     26  C   UNL     1      10.266   0.547  24.224  0.00  0.00    +0.015 A 
ATOM     27  C   UNL     1      10.969   1.689  23.838  0.00  0.00    +0.050 A 
ATOM     28  C   UNL     1      10.339   2.788  23.237  0.00  0.00    +0.162 A 
ATOM     29  C   UNL     1       8.941   2.811  23.153  0.00  0.00    +0.162 A 
ATOM     30  C   UNL     1       8.230   1.661  23.582  0.00  0.00    +0.061 A 
BRANCH  29  31
ATOM     31  O   UNL     1       8.361   3.976  22.724  0.00  0.00    -0.491 OA
ATOM     32  C   UNL     1       8.241   5.080  23.615  0.00  0.00    +0.277 C 
ENDBRANCH  29  31
BRANCH  28  33
ATOM     33  O   UNL     1      11.257   3.719  22.834  0.00  0.00    -0.491 OA
ATOM     34  C   UNL     1      11.706   4.726  23.727  0.00  0.00    +0.277 C 
ENDBRANCH  28  33
ENDBRANCH  24  25
BRANCH  20  35
ATOM     35  O   UNL     1       7.298  -5.916  21.717  0.00  0.00    -0.495 OA
ATOM     36  C   UNL     1       6.240  -5.935  20.762  0.00  0.00    +0.277 C 
ENDBRANCH  20  35
BRANCH  18  37
ATOM     37  O   UNL     1       6.218  -5.020  26.297  0.00  0.00    -0.494 OA
ATOM     38  C   UNL     1       5.366  -6.156  26.357  0.00  0.00    +0.277 C 
ENDBRANCH  18  37
ENDBRANCH  13  14
ENDBRANCH   3  13
BRANCH   1  39
ATOM     39  C   UNL     1       5.533   3.893  26.332  0.00  0.00    +0.197 C 
BRANCH  39  40
ATOM     40  O   UNL     1       5.323   3.480  24.984  0.00  0.00    -0.346 OA
BRANCH  40  44
ATOM     41  C   UNL     1       1.177   3.776  24.201  0.00  0.00    +0.041 C 
ATOM     42  C   UNL     1       2.194   3.259  23.189  0.00  0.00    +0.149 C 
ATOM     43  O   UNL     1       3.415   2.925  23.865  0.00  0.00    -0.343 OA
ATOM     44  C   UNL     1       4.228   4.038  24.271  0.00  0.00    +0.282 C 
ATOM     45  C   UNL     1       4.638   4.813  22.992  0.00  0.00    +0.201 C 
ATOM     46  C   UNL     1       3.339   5.384  22.396  0.00  0.00    +0.179 C 
ATOM     47  C   UNL     1       2.386   4.240  22.016  0.00  0.00    +0.174 C 
BRANCH  47  48
ATOM     48  O   UNL     1       2.905   3.564  20.858  0.00  0.00    -0.387 OA
ATOM     49  H   UNL     1       3.887   3.602  20.924  0.00  0.00    +0.210 HD
ENDBRANCH  47  48
BRANCH  46  50
ATOM     50  O   UNL     1       3.589   6.216  21.260  0.00  0.00    -0.386 OA
ATOM     51  H   UNL     1       3.959   7.056  21.599  0.00  0.00    +0.210 HD
ENDBRANCH  46  50
BRANCH  45  52
ATOM     52  O   UNL     1       5.271   3.920  22.043  0.00  0.00    -0.384 OA
ATOM     53  H   UNL     1       6.143   4.317  21.841  0.00  0.00    +0.210 HD
ENDBRANCH  45  52
ENDBRANCH  40  44
ENDBRANCH  39  40
ENDBRANCH   1  39
TORSDOF 16
ENDMDL
MODEL 9
REMARK VINA RESULT:      -6.5      2.312      7.226
REMARK  Name = 
REMARK  21 active torsions:
REMARK  status: ('A' for Active; 'I' for Inactive)
REMARK    1  A    between atoms: C_1  and  C_2
REMARK    2  A    between atoms: C_3  and  O_52
REMARK    3  A    between atoms: C_5  and  O_51
REMARK    4  A    between atoms: C_7  and  O_50
REMARK    5  A    between atoms: C_8  and  O_11
REMARK    6  A    between atoms: O_11  and  C_12
REMARK    7  A    between atoms: C_12  and  C_13
REMARK    8  A    between atoms: C_14  and  O_49
REMARK    9  A    between atoms: C_16  and  O_48
REMARK   10  A    between atoms: C_17  and  O_47
REMARK   11  A    between atoms: C_18  and  O_21
REMARK   12  A    between atoms: O_21  and  C_22
REMARK   13  A    between atoms: C_23  and  C_37
REMARK   14  A    between atoms: C_29  and  O_35
REMARK   15  A    between atoms: C_31  and  O_33
REMARK   16  A    between atoms: O_33  and  C_34
REMARK   17  A    between atoms: O_35  and  C_36
REMARK   18  A    between atoms: C_39  and  O_45
REMARK   19  A    between atoms: C_40  and  O_43
REMARK   20  A    between atoms: O_43  and  C_44
REMARK   21  A    between atoms: O_45  and  C_46
REMARK                            x       y       z     vdW  Elec       q    Type
REMARK                         _______ _______ _______ _____ _____    ______ ____
ROOT
ATOM      1  C   UNL     1       6.139  -3.466  22.290  0.00  0.00    +0.179 C 
ATOM      2  O   UNL     1       5.422  -2.644  23.234  0.00  0.00    -0.331 OA
ATOM      3  C   UNL     1       5.253  -3.148  24.586  0.00  0.00    +0.340 C 
ATOM      4  C   UNL     1       4.739  -4.611  24.582  0.00  0.00    +0.214 C 
ATOM      5  C   UNL     1       5.550  -5.499  23.625  0.00  0.00    +0.180 C 
ATOM      6  C   UNL     1       5.509  -4.874  22.217  0.00  0.00    +0.177 C 
ENDROOT
BRANCH   6   7
ATOM      7  O   UNL     1       6.182  -5.692  21.260  0.00  0.00    -0.386 OA
ATOM      8  H   UNL     1       7.135  -5.691  21.480  0.00  0.00    +0.210 HD
ENDBRANCH   6   7
BRANCH   5   9
ATOM      9  O   UNL     1       4.996  -6.824  23.606  0.00  0.00    -0.386 OA
ATOM     10  H   UNL     1       5.725  -7.426  23.844  0.00  0.00    +0.210 HD
ENDBRANCH   5   9
BRANCH   4  11
ATOM     11  O   UNL     1       3.358  -4.675  24.138  0.00  0.00    -0.383 OA
ATOM     12  H   UNL     1       2.898  -3.907  24.528  0.00  0.00    +0.210 HD
ENDBRANCH   4  11
BRANCH   3  13
ATOM     13  O   UNL     1       4.273  -2.294  25.236  0.00  0.00    -0.453 OA
BRANCH  13  14
ATOM     14  C   UNL     1       4.582  -1.385  26.252  0.00  0.00    +0.214 A 
ATOM     15  C   UNL     1       5.161  -0.013  25.949  0.00  0.00    +0.238 A 
ATOM     16  O   UNL     1       5.245   0.388  24.797  0.00  0.00    -0.283 OA
ATOM     17  C   UNL     1       5.622   0.803  27.103  0.00  0.00    +0.109 A 
ATOM     18  C   UNL     1       6.408   1.961  26.989  0.00  0.00    +0.138 A 
ATOM     19  C   UNL     1       6.821   2.629  28.160  0.00  0.00    +0.092 A 
ATOM     20  C   UNL     1       6.437   2.175  29.432  0.00  0.00    +0.127 A 
ATOM     21  C   UNL     1       5.641   1.053  29.530  0.00  0.00    +0.092 A 
ATOM     22  C   UNL     1       5.267   0.362  28.375  0.00  0.00    +0.147 A 
ATOM     23  O   UNL     1       4.556  -0.768  28.596  0.00  0.00    -0.451 OA
ATOM     24  C   UNL     1       4.372  -1.669  27.566  0.00  0.00    +0.181 A 
BRANCH  24  25
ATOM     25  C   UNL     1       3.857  -2.941  28.156  0.00  0.00    +0.025 A 
ATOM     26  C   UNL     1       2.529  -3.036  28.541  0.00  0.00    +0.015 A 
ATOM     27  C   UNL     1       2.062  -4.192  29.169  0.00  0.00    +0.050 A 
ATOM     28  C   UNL     1       2.882  -5.307  29.391  0.00  0.00    +0.162 A 
ATOM     29  C   UNL     1       4.252  -5.212  29.112  0.00  0.00    +0.162 A 
ATOM     30  C   UNL     1       4.727  -4.020  28.508  0.00  0.00    +0.061 A 
BRANCH  29  31
ATOM     31  O   UNL     1       5.043  -6.258  29.508  0.00  0.00    -0.491 OA
ATOM     32  C   UNL     1       6.357  -6.396  28.978  0.00  0.00    +0.277 C 
ENDBRANCH  29  31
BRANCH  28  33
ATOM     33  O   UNL     1       2.161  -6.354  29.897  0.00  0.00    -0.491 OA
ATOM     34  C   UNL     1       1.664  -7.370  29.042  0.00  0.00    +0.277 C 
ENDBRANCH  28  33
ENDBRANCH  24  25
BRANCH  20  35
ATOM     35  O   UNL     1       6.920   2.911  30.485  0.00  0.00    -0.495 OA
ATOM     36  C   UNL     1       7.074   4.313  30.272  0.00  0.00    +0.277 C 
ENDBRANCH  20  35
BRANCH  18  37
ATOM     37  O   UNL     1       6.762   2.364  25.729  0.00  0.00    -0.494 OA
ATOM     38  C   UNL     1       7.564   3.530  25.597  0.00  0.00    +0.277 C 
ENDBRANCH  18  37
ENDBRANCH  13  14
ENDBRANCH   3  13
BRANCH   1  39
ATOM     39  C   UNL     1       7.685  -3.561  22.487  0.00  0.00    +0.197 C 
BRANCH  39  40
ATOM     40  O   UNL     1       8.497  -2.569  21.863  0.00  0.00    -0.346 OA
BRANCH  40  44
ATOM     41  C   UNL     1       8.729   1.642  21.546  0.00  0.00    +0.041 C 
ATOM     42  C   UNL     1       9.822   0.780  22.169  0.00  0.00    +0.149 C 
ATOM     43  O   UNL     1       9.627  -0.590  21.787  0.00  0.00    -0.343 OA
ATOM     44  C   UNL     1       8.556  -1.278  22.453  0.00  0.00    +0.282 C 
ATOM     45  C   UNL     1       8.879  -1.294  23.969  0.00  0.00    +0.201 C 
ATOM     46  C   UNL     1       8.845   0.174  24.435  0.00  0.00    +0.179 C 
ATOM     47  C   UNL     1       9.917   0.987  23.693  0.00  0.00    +0.174 C 
BRANCH  47  48
ATOM     48  O   UNL     1      11.214   0.609  24.185  0.00  0.00    -0.387 OA
ATOM     49  H   UNL     1      11.501   1.320  24.802  0.00  0.00    +0.210 HD
ENDBRANCH  47  48
BRANCH  46  50
ATOM     50  O   UNL     1       9.023   0.293  25.849  0.00  0.00    -0.386 OA
ATOM     51  H   UNL     1       8.400   0.980  26.157  0.00  0.00    +0.210 HD
ENDBRANCH  46  50
BRANCH  45  52
ATOM     52  O   UNL     1      10.193  -1.858  24.201  0.00  0.00    -0.384 OA
ATOM     53  H   UNL     1      10.828  -1.242  23.782  0.00  0.00    +0.210 HD
ENDBRANCH  45  52
ENDBRANCH  40  44
ENDBRANCH  39  40
ENDBRANCH   1  39
TORSDOF 16
ENDMDL
