MODEL 1
REMARK VINA RESULT:      -7.9      0.000      0.000
REMARK  Name = 
REMARK  12 active torsions:
REMARK  status: ('A' for Active; 'I' for Inactive)
REMARK    1  A    between atoms: C_3  and  O_38
REMARK    2  A    between atoms: C_4  and  O_21
REMARK    3  A    between atoms: C_6  and  C_7
REMARK    4  A    between atoms: C_8  and  O_20
REMARK    5  A    between atoms: C_12  and  O_19
REMARK    6  A    between atoms: C_14  and  O_18
REMARK    7  A    between atoms: O_21  and  C_22
REMARK    8  A    between atoms: C_24  and  O_37
REMARK    9  A    between atoms: C_26  and  O_36
REMARK   10  A    between atoms: C_28  and  O_35
REMARK   11  A    between atoms: C_30  and  C_33
REMARK   12  A    between atoms: C_33  and  O_34
REMARK                            x       y       z     vdW  Elec       q    Type
REMARK                         _______ _______ _______ _____ _____    ______ ____
ROOT
ATOM      1  C   UNL     1       9.199  -2.273  22.721  0.00  0.00    +0.015 A 
ATOM      2  C   UNL     1       7.974  -2.137  23.393  0.00  0.00    +0.025 A 
ATOM      3  C   UNL     1       7.316  -0.905  23.256  0.00  0.00    +0.061 A 
ATOM      4  C   UNL     1       7.893   0.190  22.569  0.00  0.00    +0.166 A 
ATOM      5  C   UNL     1       9.151   0.049  22.005  0.00  0.00    +0.159 A 
ATOM      6  C   UNL     1       9.794  -1.190  22.056  0.00  0.00    +0.050 A 
ENDROOT
BRANCH   2   7
ATOM      7  C   UNL     1       7.413  -3.231  24.251  0.00  0.00    +0.181 A 
ATOM      8  O   UNL     1       6.543  -4.101  23.583  0.00  0.00    -0.451 OA
ATOM      9  C   UNL     1       5.902  -5.090  24.300  0.00  0.00    +0.147 A 
ATOM     10  C   UNL     1       6.178  -5.346  25.641  0.00  0.00    +0.109 A 
ATOM     11  C   UNL     1       5.513  -6.375  26.326  0.00  0.00    +0.135 A 
ATOM     12  C   UNL     1       4.556  -7.145  25.677  0.00  0.00    +0.091 A 
ATOM     13  C   UNL     1       4.272  -6.880  24.341  0.00  0.00    +0.124 A 
ATOM     14  C   UNL     1       7.156  -4.498  26.321  0.00  0.00    +0.238 A 
ATOM     15  O   UNL     1       7.455  -4.744  27.495  0.00  0.00    -0.283 OA
ATOM     16  C   UNL     1       4.937  -5.863  23.648  0.00  0.00    +0.092 A 
ATOM     17  C   UNL     1       7.696  -3.341  25.570  0.00  0.00    +0.208 A 
BRANCH  11  18
ATOM     18  O   UNL     1       5.746  -6.671  27.644  0.00  0.00    -0.506 OA
ATOM     19  H   UNL     1       6.721  -6.726  27.777  0.00  0.00    +0.292 HD
ENDBRANCH  11  18
BRANCH  13  20
ATOM     20  O   UNL     1       3.329  -7.610  23.677  0.00  0.00    -0.507 OA
ATOM     21  H   UNL     1       3.701  -7.914  22.828  0.00  0.00    +0.292 HD
ENDBRANCH  13  20
BRANCH  17  22
ATOM     22  O   UNL     1       8.438  -2.436  26.306  0.00  0.00    -0.501 OA
ATOM     23  H   UNL     1       8.066  -2.389  27.205  0.00  0.00    +0.292 HD
ENDBRANCH  17  22
ENDBRANCH   2   7
BRANCH   5  24
ATOM     24  O   UNL     1       9.795   1.119  21.462  0.00  0.00    -0.503 OA
ATOM     25  H   UNL     1      10.240   0.850  20.641  0.00  0.00    +0.292 HD
ENDBRANCH   5  24
BRANCH   4  26
ATOM     26  O   UNL     1       7.164   1.323  22.678  0.00  0.00    -0.457 OA
BRANCH  26  27
ATOM     27  C   UNL     1       7.558   2.549  23.291  0.00  0.00    +0.339 C 
ATOM     28  O   UNL     1       6.528   3.500  23.586  0.00  0.00    -0.331 OA
ATOM     29  C   UNL     1       7.019   4.867  23.605  0.00  0.00    +0.179 C 
ATOM     30  C   UNL     1       8.249   5.051  24.539  0.00  0.00    +0.177 C 
ATOM     31  C   UNL     1       9.307   3.940  24.353  0.00  0.00    +0.180 C 
ATOM     32  C   UNL     1       8.644   2.541  24.390  0.00  0.00    +0.214 C 
BRANCH  30  33
ATOM     33  O   UNL     1       7.789   5.043  25.901  0.00  0.00    -0.386 OA
ATOM     34  H   UNL     1       8.508   5.403  26.453  0.00  0.00    +0.210 HD
ENDBRANCH  30  33
BRANCH  31  35
ATOM     35  O   UNL     1      10.002   4.169  23.120  0.00  0.00    -0.386 OA
ATOM     36  H   UNL     1       9.349   4.390  22.430  0.00  0.00    +0.210 HD
ENDBRANCH  31  35
BRANCH  32  37
ATOM     37  O   UNL     1       8.152   2.313  25.715  0.00  0.00    -0.383 OA
ATOM     38  H   UNL     1       7.252   2.709  25.747  0.00  0.00    +0.210 HD
ENDBRANCH  32  37
BRANCH  29  39
ATOM     39  C   UNL     1       7.244   5.388  22.169  0.00  0.00    +0.190 C 
BRANCH  39  40
ATOM     40  O   UNL     1       8.288   6.353  22.102  0.00  0.00    -0.392 OA
ATOM     41  H   UNL     1       9.084   5.897  21.775  0.00  0.00    +0.210 HD
ENDBRANCH  39  40
ENDBRANCH  29  39
ENDBRANCH  26  27
ENDBRANCH   4  26
TORSDOF 12
ENDMDL
MODEL 2
REMARK VINA RESULT:      -7.7      1.094      1.922
REMARK  Name = 
REMARK  12 active torsions:
REMARK  status: ('A' for Active; 'I' for Inactive)
REMARK    1  A    between atoms: C_3  and  O_38
REMARK    2  A    between atoms: C_4  and  O_21
REMARK    3  A    between atoms: C_6  and  C_7
REMARK    4  A    between atoms: C_8  and  O_20
REMARK    5  A    between atoms: C_12  and  O_19
REMARK    6  A    between atoms: C_14  and  O_18
REMARK    7  A    between atoms: O_21  and  C_22
REMARK    8  A    between atoms: C_24  and  O_37
REMARK    9  A    between atoms: C_26  and  O_36
REMARK   10  A    between atoms: C_28  and  O_35
REMARK   11  A    between atoms: C_30  and  C_33
REMARK   12  A    between atoms: C_33  and  O_34
REMARK                            x       y       z     vdW  Elec       q    Type
REMARK                         _______ _______ _______ _____ _____    ______ ____
ROOT
ATOM      1  C   UNL     1       9.584  -1.458  22.908  0.00  0.00    +0.015 A 
ATOM      2  C   UNL     1       8.222  -1.554  23.235  0.00  0.00    +0.025 A 
ATOM      3  C   UNL     1       7.399  -0.501  22.807  0.00  0.00    +0.061 A 
ATOM      4  C   UNL     1       7.914   0.655  22.171  0.00  0.00    +0.166 A 
ATOM      5  C   UNL     1       9.281   0.758  21.958  0.00  0.00    +0.159 A 
ATOM      6  C   UNL     1      10.113  -0.309  22.300  0.00  0.00    +0.050 A 
ENDROOT
BRANCH   2   7
ATOM      7  C   UNL     1       7.676  -2.696  24.037  0.00  0.00    +0.181 A 
ATOM      8  O   UNL     1       6.798  -3.529  23.334  0.00  0.00    -0.451 OA
ATOM      9  C   UNL     1       6.168  -4.558  24.003  0.00  0.00    +0.147 A 
ATOM     10  C   UNL     1       6.466  -4.889  25.323  0.00  0.00    +0.109 A 
ATOM     11  C   UNL     1       5.812  -5.956  25.960  0.00  0.00    +0.135 A 
ATOM     12  C   UNL     1       4.847  -6.691  25.283  0.00  0.00    +0.091 A 
ATOM     13  C   UNL     1       4.542  -6.352  23.968  0.00  0.00    +0.124 A 
ATOM     14  C   UNL     1       7.452  -4.079  26.036  0.00  0.00    +0.238 A 
ATOM     15  O   UNL     1       7.770  -4.390  27.189  0.00  0.00    -0.283 OA
ATOM     16  C   UNL     1       5.195  -5.295  23.324  0.00  0.00    +0.092 A 
ATOM     17  C   UNL     1       7.979  -2.879  25.343  0.00  0.00    +0.208 A 
BRANCH  11  18
ATOM     18  O   UNL     1       6.066  -6.326  27.254  0.00  0.00    -0.506 OA
ATOM     19  H   UNL     1       7.038  -6.262  27.406  0.00  0.00    +0.292 HD
ENDBRANCH  11  18
BRANCH  13  20
ATOM     20  O   UNL     1       3.590  -7.044  23.278  0.00  0.00    -0.507 OA
ATOM     21  H   UNL     1       2.721  -6.632  23.434  0.00  0.00    +0.292 HD
ENDBRANCH  13  20
BRANCH  17  22
ATOM     22  O   UNL     1       8.731  -2.016  26.118  0.00  0.00    -0.501 OA
ATOM     23  H   UNL     1       9.663  -2.081  25.840  0.00  0.00    +0.292 HD
ENDBRANCH  17  22
ENDBRANCH   2   7
BRANCH   5  24
ATOM     24  O   UNL     1       9.825   1.912  21.481  0.00  0.00    -0.503 OA
ATOM     25  H   UNL     1      10.439   2.278  22.139  0.00  0.00    +0.292 HD
ENDBRANCH   5  24
BRANCH   4  26
ATOM     26  O   UNL     1       6.978   1.609  21.973  0.00  0.00    -0.457 OA
BRANCH  26  27
ATOM     27  C   UNL     1       6.874   2.870  22.633  0.00  0.00    +0.339 C 
ATOM     28  O   UNL     1       7.657   3.951  22.115  0.00  0.00    -0.331 OA
ATOM     29  C   UNL     1       7.982   4.940  23.128  0.00  0.00    +0.179 C 
ATOM     30  C   UNL     1       6.729   5.458  23.888  0.00  0.00    +0.177 C 
ATOM     31  C   UNL     1       5.782   4.315  24.318  0.00  0.00    +0.180 C 
ATOM     32  C   UNL     1       5.497   3.363  23.130  0.00  0.00    +0.214 C 
BRANCH  30  33
ATOM     33  O   UNL     1       6.017   6.362  23.025  0.00  0.00    -0.386 OA
ATOM     34  H   UNL     1       6.454   7.231  23.092  0.00  0.00    +0.210 HD
ENDBRANCH  30  33
BRANCH  31  35
ATOM     35  O   UNL     1       6.370   3.623  25.427  0.00  0.00    -0.386 OA
ATOM     36  H   UNL     1       5.985   3.973  26.252  0.00  0.00    +0.210 HD
ENDBRANCH  31  35
BRANCH  32  37
ATOM     37  O   UNL     1       4.731   4.080  22.155  0.00  0.00    -0.383 OA
ATOM     38  H   UNL     1       5.278   4.102  21.338  0.00  0.00    +0.210 HD
ENDBRANCH  32  37
BRANCH  29  39
ATOM     39  C   UNL     1       9.104   4.425  24.057  0.00  0.00    +0.190 C 
BRANCH  39  40
ATOM     40  O   UNL     1      10.291   4.103  23.342  0.00  0.00    -0.392 OA
ATOM     41  H   UNL     1      11.007   4.010  23.996  0.00  0.00    +0.210 HD
ENDBRANCH  39  40
ENDBRANCH  29  39
ENDBRANCH  26  27
ENDBRANCH   4  26
TORSDOF 12
ENDMDL
MODEL 3
REMARK VINA RESULT:      -7.7      2.006      8.955
REMARK  Name = 
REMARK  12 active torsions:
REMARK  status: ('A' for Active; 'I' for Inactive)
REMARK    1  A    between atoms: C_3  and  O_38
REMARK    2  A    between atoms: C_4  and  O_21
REMARK    3  A    between atoms: C_6  and  C_7
REMARK    4  A    between atoms: C_8  and  O_20
REMARK    5  A    between atoms: C_12  and  O_19
REMARK    6  A    between atoms: C_14  and  O_18
REMARK    7  A    between atoms: O_21  and  C_22
REMARK    8  A    between atoms: C_24  and  O_37
REMARK    9  A    between atoms: C_26  and  O_36
REMARK   10  A    between atoms: C_28  and  O_35
REMARK   11  A    between atoms: C_30  and  C_33
REMARK   12  A    between atoms: C_33  and  O_34
REMARK                            x       y       z     vdW  Elec       q    Type
REMARK                         _______ _______ _______ _____ _____    ______ ____
ROOT
ATOM      1  C   UNL     1       6.647  -3.389  22.030  0.00  0.00    +0.015 A 
ATOM      2  C   UNL     1       7.385  -2.906  23.123  0.00  0.00    +0.025 A 
ATOM      3  C   UNL     1       7.524  -3.772  24.218  0.00  0.00    +0.061 A 
ATOM      4  C   UNL     1       6.874  -5.028  24.280  0.00  0.00    +0.166 A 
ATOM      5  C   UNL     1       6.069  -5.426  23.222  0.00  0.00    +0.159 A 
ATOM      6  C   UNL     1       5.977  -4.621  22.086  0.00  0.00    +0.050 A 
ENDROOT
BRANCH   2   7
ATOM      7  C   UNL     1       7.959  -1.522  23.143  0.00  0.00    +0.181 A 
ATOM      8  O   UNL     1       7.031  -0.506  22.884  0.00  0.00    -0.451 OA
ATOM      9  C   UNL     1       7.471   0.798  22.791  0.00  0.00    +0.147 A 
ATOM     10  C   UNL     1       8.784   1.169  23.071  0.00  0.00    +0.109 A 
ATOM     11  C   UNL     1       9.184   2.512  22.980  0.00  0.00    +0.135 A 
ATOM     12  C   UNL     1       8.275   3.490  22.594  0.00  0.00    +0.091 A 
ATOM     13  C   UNL     1       6.968   3.115  22.303  0.00  0.00    +0.124 A 
ATOM     14  C   UNL     1       9.739   0.123  23.434  0.00  0.00    +0.238 A 
ATOM     15  O   UNL     1      10.894   0.439  23.740  0.00  0.00    -0.283 OA
ATOM     16  C   UNL     1       6.559   1.780  22.400  0.00  0.00    +0.092 A 
ATOM     17  C   UNL     1       9.274  -1.281  23.356  0.00  0.00    +0.208 A 
BRANCH  11  18
ATOM     18  O   UNL     1      10.460   2.934  23.246  0.00  0.00    -0.506 OA
ATOM     19  H   UNL     1      10.456   3.919  23.280  0.00  0.00    +0.292 HD
ENDBRANCH  11  18
BRANCH  13  20
ATOM     20  O   UNL     1       6.052   4.048  21.909  0.00  0.00    -0.507 OA
ATOM     21  H   UNL     1       6.496   4.912  21.822  0.00  0.00    +0.292 HD
ENDBRANCH  13  20
BRANCH  17  22
ATOM     22  O   UNL     1      10.253  -2.250  23.483  0.00  0.00    -0.501 OA
ATOM     23  H   UNL     1       9.881  -3.105  23.203  0.00  0.00    +0.292 HD
ENDBRANCH  17  22
ENDBRANCH   2   7
BRANCH   5  24
ATOM     24  O   UNL     1       5.318  -6.559  23.308  0.00  0.00    -0.503 OA
ATOM     25  H   UNL     1       4.421  -6.333  23.605  0.00  0.00    +0.292 HD
ENDBRANCH   5  24
BRANCH   4  26
ATOM     26  O   UNL     1       7.020  -5.639  25.476  0.00  0.00    -0.457 OA
BRANCH  26  27
ATOM     27  C   UNL     1       6.022  -5.828  26.478  0.00  0.00    +0.339 C 
ATOM     28  O   UNL     1       5.154  -6.958  26.339  0.00  0.00    -0.331 OA
ATOM     29  C   UNL     1       3.862  -6.751  26.970  0.00  0.00    +0.179 C 
ATOM     30  C   UNL     1       3.982  -6.304  28.454  0.00  0.00    +0.177 C 
ATOM     31  C   UNL     1       5.035  -5.191  28.656  0.00  0.00    +0.180 C 
ATOM     32  C   UNL     1       6.367  -5.566  27.961  0.00  0.00    +0.214 C 
BRANCH  30  33
ATOM     33  O   UNL     1       4.347  -7.448  29.245  0.00  0.00    -0.386 OA
ATOM     34  H   UNL     1       4.969  -7.142  29.930  0.00  0.00    +0.210 HD
ENDBRANCH  30  33
BRANCH  31  35
ATOM     35  O   UNL     1       4.502  -3.958  28.156  0.00  0.00    -0.386 OA
ATOM     36  H   UNL     1       4.255  -3.395  28.914  0.00  0.00    +0.210 HD
ENDBRANCH  31  35
BRANCH  32  37
ATOM     37  O   UNL     1       6.932  -6.687  28.651  0.00  0.00    -0.383 OA
ATOM     38  H   UNL     1       6.684  -7.484  28.130  0.00  0.00    +0.210 HD
ENDBRANCH  32  37
BRANCH  29  39
ATOM     39  C   UNL     1       2.976  -5.823  26.110  0.00  0.00    +0.190 C 
BRANCH  39  40
ATOM     40  O   UNL     1       2.886  -6.260  24.760  0.00  0.00    -0.392 OA
ATOM     41  H   UNL     1       2.696  -7.215  24.776  0.00  0.00    +0.210 HD
ENDBRANCH  39  40
ENDBRANCH  29  39
ENDBRANCH  26  27
ENDBRANCH   4  26
TORSDOF 12
ENDMDL
MODEL 4
REMARK VINA RESULT:      -7.6      1.264      2.128
REMARK  Name = 
REMARK  12 active torsions:
REMARK  status: ('A' for Active; 'I' for Inactive)
REMARK    1  A    between atoms: C_3  and  O_38
REMARK    2  A    between atoms: C_4  and  O_21
REMARK    3  A    between atoms: C_6  and  C_7
REMARK    4  A    between atoms: C_8  and  O_20
REMARK    5  A    between atoms: C_12  and  O_19
REMARK    6  A    between atoms: C_14  and  O_18
REMARK    7  A    between atoms: O_21  and  C_22
REMARK    8  A    between atoms: C_24  and  O_37
REMARK    9  A    between atoms: C_26  and  O_36
REMARK   10  A    between atoms: C_28  and  O_35
REMARK   11  A    between atoms: C_30  and  C_33
REMARK   12  A    between atoms: C_33  and  O_34
REMARK                            x       y       z     vdW  Elec       q    Type
REMARK                         _______ _______ _______ _____ _____    ______ ____
ROOT
ATOM      1  C   UNL     1       9.633  -1.416  22.944  0.00  0.00    +0.015 A 
ATOM      2  C   UNL     1       8.265  -1.525  23.242  0.00  0.00    +0.025 A 
ATOM      3  C   UNL     1       7.441  -0.483  22.791  0.00  0.00    +0.061 A 
ATOM      4  C   UNL     1       7.957   0.675  22.161  0.00  0.00    +0.166 A 
ATOM      5  C   UNL     1       9.326   0.792  21.976  0.00  0.00    +0.159 A 
ATOM      6  C   UNL     1      10.163  -0.265  22.341  0.00  0.00    +0.050 A 
ENDROOT
BRANCH   2   7
ATOM      7  C   UNL     1       7.714  -2.669  24.038  0.00  0.00    +0.181 A 
ATOM      8  O   UNL     1       6.842  -3.501  23.328  0.00  0.00    -0.451 OA
ATOM      9  C   UNL     1       6.208  -4.532  23.991  0.00  0.00    +0.147 A 
ATOM     10  C   UNL     1       6.496  -4.864  25.312  0.00  0.00    +0.109 A 
ATOM     11  C   UNL     1       5.840  -5.934  25.942  0.00  0.00    +0.135 A 
ATOM     12  C   UNL     1       4.879  -6.668  25.257  0.00  0.00    +0.091 A 
ATOM     13  C   UNL     1       4.584  -6.326  23.941  0.00  0.00    +0.124 A 
ATOM     14  C   UNL     1       7.478  -4.055  26.034  0.00  0.00    +0.238 A 
ATOM     15  O   UNL     1       7.787  -4.368  27.188  0.00  0.00    -0.283 OA
ATOM     16  C   UNL     1       5.240  -5.268  23.303  0.00  0.00    +0.092 A 
ATOM     17  C   UNL     1       8.009  -2.854  25.347  0.00  0.00    +0.208 A 
BRANCH  11  18
ATOM     18  O   UNL     1       6.084  -6.306  27.238  0.00  0.00    -0.506 OA
ATOM     19  H   UNL     1       5.218  -6.398  27.698  0.00  0.00    +0.292 HD
ENDBRANCH  11  18
BRANCH  13  20
ATOM     20  O   UNL     1       3.637  -7.019  23.243  0.00  0.00    -0.507 OA
ATOM     21  H   UNL     1       2.985  -6.390  22.881  0.00  0.00    +0.292 HD
ENDBRANCH  13  20
BRANCH  17  22
ATOM     22  O   UNL     1       8.755  -1.991  26.128  0.00  0.00    -0.501 OA
ATOM     23  H   UNL     1       8.146  -1.383  26.585  0.00  0.00    +0.292 HD
ENDBRANCH  17  22
ENDBRANCH   2   7
BRANCH   5  24
ATOM     24  O   UNL     1       9.869   1.949  21.505  0.00  0.00    -0.503 OA
ATOM     25  H   UNL     1       9.527   2.129  20.614  0.00  0.00    +0.292 HD
ENDBRANCH   5  24
BRANCH   4  26
ATOM     26  O   UNL     1       7.015   1.618  21.937  0.00  0.00    -0.457 OA
BRANCH  26  27
ATOM     27  C   UNL     1       6.743   2.773  22.729  0.00  0.00    +0.339 C 
ATOM     28  O   UNL     1       6.779   2.621  24.152  0.00  0.00    -0.331 OA
ATOM     29  C   UNL     1       5.930   3.580  24.838  0.00  0.00    +0.179 C 
ATOM     30  C   UNL     1       6.218   5.048  24.415  0.00  0.00    +0.177 C 
ATOM     31  C   UNL     1       6.346   5.210  22.884  0.00  0.00    +0.180 C 
ATOM     32  C   UNL     1       7.306   4.146  22.298  0.00  0.00    +0.214 C 
BRANCH  30  33
ATOM     33  O   UNL     1       7.444   5.468  25.039  0.00  0.00    -0.386 OA
ATOM     34  H   UNL     1       7.674   6.340  24.669  0.00  0.00    +0.210 HD
ENDBRANCH  30  33
BRANCH  31  35
ATOM     35  O   UNL     1       5.038   5.127  22.302  0.00  0.00    -0.386 OA
ATOM     36  H   UNL     1       4.943   5.841  21.645  0.00  0.00    +0.210 HD
ENDBRANCH  31  35
BRANCH  32  37
ATOM     37  O   UNL     1       8.628   4.425  22.773  0.00  0.00    -0.383 OA
ATOM     38  H   UNL     1       9.213   3.741  22.377  0.00  0.00    +0.210 HD
ENDBRANCH  32  37
BRANCH  29  39
ATOM     39  C   UNL     1       4.444   3.179  24.720  0.00  0.00    +0.190 C 
BRANCH  39  40
ATOM     40  O   UNL     1       4.223   1.815  25.060  0.00  0.00    -0.392 OA
ATOM     41  H   UNL     1       3.813   1.798  25.942  0.00  0.00    +0.210 HD
ENDBRANCH  39  40
ENDBRANCH  29  39
ENDBRANCH  26  27
ENDBRANCH   4  26
TORSDOF 12
ENDMDL
MODEL 5
REMARK VINA RESULT:      -7.5      1.539      3.115
REMARK  Name = 
REMARK  12 active torsions:
REMARK  status: ('A' for Active; 'I' for Inactive)
REMARK    1  A    between atoms: C_3  and  O_38
REMARK    2  A    between atoms: C_4  and  O_21
REMARK    3  A    between atoms: C_6  and  C_7
REMARK    4  A    between atoms: C_8  and  O_20
REMARK    5  A    between atoms: C_12  and  O_19
REMARK    6  A    between atoms: C_14  and  O_18
REMARK    7  A    between atoms: O_21  and  C_22
REMARK    8  A    between atoms: C_24  and  O_37
REMARK    9  A    between atoms: C_26  and  O_36
REMARK   10  A    between atoms: C_28  and  O_35
REMARK   11  A    between atoms: C_30  and  C_33
REMARK   12  A    between atoms: C_33  and  O_34
REMARK                            x       y       z     vdW  Elec       q    Type
REMARK                         _______ _______ _______ _____ _____    ______ ____
ROOT
ATOM      1  C   UNL     1       8.548  -1.295  21.846  0.00  0.00    +0.015 A 
ATOM      2  C   UNL     1       7.686  -1.183  22.949  0.00  0.00    +0.025 A 
ATOM      3  C   UNL     1       7.610   0.078  23.560  0.00  0.00    +0.061 A 
ATOM      4  C   UNL     1       8.430   1.163  23.166  0.00  0.00    +0.166 A 
ATOM      5  C   UNL     1       9.342   0.983  22.138  0.00  0.00    +0.159 A 
ATOM      6  C   UNL     1       9.383  -0.236  21.458  0.00  0.00    +0.050 A 
ENDROOT
BRANCH   2   7
ATOM      7  C   UNL     1       6.918  -2.356  23.480  0.00  0.00    +0.181 A 
ATOM      8  O   UNL     1       7.373  -2.835  24.714  0.00  0.00    -0.451 OA
ATOM      9  C   UNL     1       6.795  -3.967  25.249  0.00  0.00    +0.147 A 
ATOM     10  C   UNL     1       5.685  -4.586  24.678  0.00  0.00    +0.109 A 
ATOM     11  C   UNL     1       5.118  -5.727  25.267  0.00  0.00    +0.135 A 
ATOM     12  C   UNL     1       5.666  -6.264  26.425  0.00  0.00    +0.091 A 
ATOM     13  C   UNL     1       6.781  -5.651  26.988  0.00  0.00    +0.124 A 
ATOM     14  C   UNL     1       5.146  -4.035  23.435  0.00  0.00    +0.238 A 
ATOM     15  O   UNL     1       4.130  -4.536  22.943  0.00  0.00    -0.283 OA
ATOM     16  C   UNL     1       7.348  -4.509  26.412  0.00  0.00    +0.092 A 
ATOM     17  C   UNL     1       5.896  -2.926  22.799  0.00  0.00    +0.208 A 
BRANCH  11  18
ATOM     18  O   UNL     1       4.027  -6.375  24.749  0.00  0.00    -0.506 OA
ATOM     19  H   UNL     1       3.638  -5.804  24.047  0.00  0.00    +0.292 HD
ENDBRANCH  11  18
BRANCH  13  20
ATOM     20  O   UNL     1       7.353  -6.159  28.119  0.00  0.00    -0.507 OA
ATOM     21  H   UNL     1       7.892  -5.466  28.542  0.00  0.00    +0.292 HD
ENDBRANCH  13  20
BRANCH  17  22
ATOM     22  O   UNL     1       5.495  -2.579  21.522  0.00  0.00    -0.501 OA
ATOM     23  H   UNL     1       6.286  -2.502  20.959  0.00  0.00    +0.292 HD
ENDBRANCH  17  22
ENDBRANCH   2   7
BRANCH   5  24
ATOM     24  O   UNL     1      10.243   1.957  21.828  0.00  0.00    -0.503 OA
ATOM     25  H   UNL     1      10.899   1.607  21.204  0.00  0.00    +0.292 HD
ENDBRANCH   5  24
BRANCH   4  26
ATOM     26  O   UNL     1       8.304   2.239  23.974  0.00  0.00    -0.457 OA
BRANCH  26  27
ATOM     27  C   UNL     1       7.972   3.573  23.592  0.00  0.00    +0.339 C 
ATOM     28  O   UNL     1       9.019   4.383  23.045  0.00  0.00    -0.331 OA
ATOM     29  C   UNL     1       8.800   5.801  23.266  0.00  0.00    +0.179 C 
ATOM     30  C   UNL     1       7.401   6.277  22.782  0.00  0.00    +0.177 C 
ATOM     31  C   UNL     1       6.266   5.327  23.225  0.00  0.00    +0.180 C 
ATOM     32  C   UNL     1       6.622   3.857  22.895  0.00  0.00    +0.214 C 
BRANCH  30  33
ATOM     33  O   UNL     1       7.420   6.354  21.346  0.00  0.00    -0.386 OA
ATOM     34  H   UNL     1       7.579   7.286  21.107  0.00  0.00    +0.210 HD
ENDBRANCH  30  33
BRANCH  31  35
ATOM     35  O   UNL     1       6.028   5.518  24.626  0.00  0.00    -0.386 OA
ATOM     36  H   UNL     1       5.634   4.702  24.989  0.00  0.00    +0.210 HD
ENDBRANCH  31  35
BRANCH  32  37
ATOM     37  O   UNL     1       6.642   3.709  21.471  0.00  0.00    -0.383 OA
ATOM     38  H   UNL     1       5.885   4.235  21.129  0.00  0.00    +0.210 HD
ENDBRANCH  32  37
BRANCH  29  39
ATOM     39  C   UNL     1       9.116   6.184  24.728  0.00  0.00    +0.190 C 
BRANCH  39  40
ATOM     40  O   UNL     1      10.385   6.815  24.859  0.00  0.00    -0.392 OA
ATOM     41  H   UNL     1      11.048   6.216  24.474  0.00  0.00    +0.210 HD
ENDBRANCH  39  40
ENDBRANCH  29  39
ENDBRANCH  26  27
ENDBRANCH   4  26
TORSDOF 12
ENDMDL
MODEL 6
REMARK VINA RESULT:      -7.5      1.862      9.092
REMARK  Name = 
REMARK  12 active torsions:
REMARK  status: ('A' for Active; 'I' for Inactive)
REMARK    1  A    between atoms: C_3  and  O_38
REMARK    2  A    between atoms: C_4  and  O_21
REMARK    3  A    between atoms: C_6  and  C_7
REMARK    4  A    between atoms: C_8  and  O_20
REMARK    5  A    between atoms: C_12  and  O_19
REMARK    6  A    between atoms: C_14  and  O_18
REMARK    7  A    between atoms: O_21  and  C_22
REMARK    8  A    between atoms: C_24  and  O_37
REMARK    9  A    between atoms: C_26  and  O_36
REMARK   10  A    between atoms: C_28  and  O_35
REMARK   11  A    between atoms: C_30  and  C_33
REMARK   12  A    between atoms: C_33  and  O_34
REMARK                            x       y       z     vdW  Elec       q    Type
REMARK                         _______ _______ _______ _____ _____    ______ ____
ROOT
ATOM      1  C   UNL     1       9.811  -0.904  22.913  0.00  0.00    +0.015 A 
ATOM      2  C   UNL     1       8.980  -0.167  23.772  0.00  0.00    +0.025 A 
ATOM      3  C   UNL     1       8.605  -0.793  24.971  0.00  0.00    +0.061 A 
ATOM      4  C   UNL     1       8.949  -2.134  25.267  0.00  0.00    +0.166 A 
ATOM      5  C   UNL     1       9.686  -2.863  24.345  0.00  0.00    +0.159 A 
ATOM      6  C   UNL     1      10.141  -2.241  23.181  0.00  0.00    +0.050 A 
ENDROOT
BRANCH   2   7
ATOM      7  C   UNL     1       8.480   1.200  23.415  0.00  0.00    +0.181 A 
ATOM      8  O   UNL     1       9.375   2.237  23.703  0.00  0.00    -0.451 OA
ATOM      9  C   UNL     1       8.978   3.542  23.496  0.00  0.00    +0.147 A 
ATOM     10  C   UNL     1       7.768   3.873  22.889  0.00  0.00    +0.109 A 
ATOM     11  C   UNL     1       7.413   5.215  22.682  0.00  0.00    +0.135 A 
ATOM     12  C   UNL     1       8.261   6.236  23.094  0.00  0.00    +0.091 A 
ATOM     13  C   UNL     1       9.463   5.904  23.711  0.00  0.00    +0.124 A 
ATOM     14  C   UNL     1       6.868   2.788  22.500  0.00  0.00    +0.238 A 
ATOM     15  O   UNL     1       5.816   3.059  21.911  0.00  0.00    -0.283 OA
ATOM     16  C   UNL     1       9.828   4.568  23.913  0.00  0.00    +0.092 A 
ATOM     17  C   UNL     1       7.249   1.411  22.893  0.00  0.00    +0.208 A 
BRANCH  11  18
ATOM     18  O   UNL     1       6.238   5.598  22.090  0.00  0.00    -0.506 OA
ATOM     19  H   UNL     1       5.500   5.135  22.550  0.00  0.00    +0.292 HD
ENDBRANCH  11  18
BRANCH  13  20
ATOM     20  O   UNL     1      10.314   6.882  24.139  0.00  0.00    -0.507 OA
ATOM     21  H   UNL     1      10.267   7.637  23.523  0.00  0.00    +0.292 HD
ENDBRANCH  13  20
BRANCH  17  22
ATOM     22  O   UNL     1       6.279   0.442  22.714  0.00  0.00    -0.501 OA
ATOM     23  H   UNL     1       5.930   0.516  21.807  0.00  0.00    +0.292 HD
ENDBRANCH  17  22
ENDBRANCH   2   7
BRANCH   5  24
ATOM     24  O   UNL     1       9.912  -4.193  24.531  0.00  0.00    -0.503 OA
ATOM     25  H   UNL     1      10.133  -4.608  23.681  0.00  0.00    +0.292 HD
ENDBRANCH   5  24
BRANCH   4  26
ATOM     26  O   UNL     1       8.370  -2.589  26.400  0.00  0.00    -0.457 OA
BRANCH  26  27
ATOM     27  C   UNL     1       7.356  -3.587  26.512  0.00  0.00    +0.339 C 
ATOM     28  O   UNL     1       6.450  -3.734  25.412  0.00  0.00    -0.331 OA
ATOM     29  C   UNL     1       5.161  -4.264  25.819  0.00  0.00    +0.179 C 
ATOM     30  C   UNL     1       5.281  -5.581  26.636  0.00  0.00    +0.177 C 
ATOM     31  C   UNL     1       6.371  -5.503  27.729  0.00  0.00    +0.180 C 
ATOM     32  C   UNL     1       7.696  -4.956  27.144  0.00  0.00    +0.214 C 
BRANCH  30  33
ATOM     33  O   UNL     1       5.599  -6.651  25.729  0.00  0.00    -0.386 OA
ATOM     34  H   UNL     1       6.117  -7.309  26.226  0.00  0.00    +0.210 HD
ENDBRANCH  30  33
BRANCH  31  35
ATOM     35  O   UNL     1       5.885  -4.687  28.804  0.00  0.00    -0.386 OA
ATOM     36  H   UNL     1       5.093  -4.207  28.498  0.00  0.00    +0.210 HD
ENDBRANCH  31  35
BRANCH  32  37
ATOM     37  O   UNL     1       8.215  -5.925  26.227  0.00  0.00    -0.383 OA
ATOM     38  H   UNL     1       7.815  -6.787  26.481  0.00  0.00    +0.210 HD
ENDBRANCH  32  37
BRANCH  29  39
ATOM     39  C   UNL     1       4.316  -3.175  26.515  0.00  0.00    +0.190 C 
BRANCH  39  40
ATOM     40  O   UNL     1       4.104  -2.041  25.682  0.00  0.00    -0.392 OA
ATOM     41  H   UNL     1       4.804  -1.396  25.887  0.00  0.00    +0.210 HD
ENDBRANCH  39  40
ENDBRANCH  29  39
ENDBRANCH  26  27
ENDBRANCH   4  26
TORSDOF 12
ENDMDL
MODEL 7
REMARK VINA RESULT:      -7.4      1.890      9.378
REMARK  Name = 
REMARK  12 active torsions:
REMARK  status: ('A' for Active; 'I' for Inactive)
REMARK    1  A    between atoms: C_3  and  O_38
REMARK    2  A    between atoms: C_4  and  O_21
REMARK    3  A    between atoms: C_6  and  C_7
REMARK    4  A    between atoms: C_8  and  O_20
REMARK    5  A    between atoms: C_12  and  O_19
REMARK    6  A    between atoms: C_14  and  O_18
REMARK    7  A    between atoms: O_21  and  C_22
REMARK    8  A    between atoms: C_24  and  O_37
REMARK    9  A    between atoms: C_26  and  O_36
REMARK   10  A    between atoms: C_28  and  O_35
REMARK   11  A    between atoms: C_30  and  C_33
REMARK   12  A    between atoms: C_33  and  O_34
REMARK                            x       y       z     vdW  Elec       q    Type
REMARK                         _______ _______ _______ _____ _____    ______ ____
ROOT
ATOM      1  C   UNL     1       8.908  -3.607  26.026  0.00  0.00    +0.015 A 
ATOM      2  C   UNL     1       7.964  -2.689  25.540  0.00  0.00    +0.025 A 
ATOM      3  C   UNL     1       6.620  -2.946  25.854  0.00  0.00    +0.061 A 
ATOM      4  C   UNL     1       6.210  -4.119  26.533  0.00  0.00    +0.166 A 
ATOM      5  C   UNL     1       7.165  -5.053  26.907  0.00  0.00    +0.159 A 
ATOM      6  C   UNL     1       8.516  -4.785  26.680  0.00  0.00    +0.050 A 
ENDROOT
BRANCH   2   7
ATOM      7  C   UNL     1       8.357  -1.518  24.691  0.00  0.00    +0.181 A 
ATOM      8  O   UNL     1       8.351  -0.289  25.362  0.00  0.00    -0.451 OA
ATOM      9  C   UNL     1       8.611   0.864  24.652  0.00  0.00    +0.147 A 
ATOM     10  C   UNL     1       9.008   0.852  23.317  0.00  0.00    +0.109 A 
ATOM     11  C   UNL     1       9.280   2.050  22.638  0.00  0.00    +0.135 A 
ATOM     12  C   UNL     1       9.141   3.271  23.288  0.00  0.00    +0.091 A 
ATOM     13  C   UNL     1       8.733   3.282  24.618  0.00  0.00    +0.124 A 
ATOM     14  C   UNL     1       9.107  -0.438  22.635  0.00  0.00    +0.238 A 
ATOM     15  O   UNL     1       9.510  -0.474  21.467  0.00  0.00    -0.283 OA
ATOM     16  C   UNL     1       8.469   2.092  25.304  0.00  0.00    +0.092 A 
ATOM     17  C   UNL     1       8.655  -1.638  23.376  0.00  0.00    +0.208 A 
BRANCH  11  18
ATOM     18  O   UNL     1       9.674   2.097  21.327  0.00  0.00    -0.506 OA
ATOM     19  H   UNL     1       8.894   2.352  20.782  0.00  0.00    +0.292 HD
ENDBRANCH  11  18
BRANCH  13  20
ATOM     20  O   UNL     1       8.576   4.464  25.283  0.00  0.00    -0.507 OA
ATOM     21  H   UNL     1       7.645   4.747  25.212  0.00  0.00    +0.292 HD
ENDBRANCH  13  20
BRANCH  17  22
ATOM     22  O   UNL     1       8.547  -2.801  22.636  0.00  0.00    -0.501 OA
ATOM     23  H   UNL     1       8.202  -2.575  21.753  0.00  0.00    +0.292 HD
ENDBRANCH  17  22
ENDBRANCH   2   7
BRANCH   5  24
ATOM     24  O   UNL     1       6.795  -6.254  27.432  0.00  0.00    -0.503 OA
ATOM     25  H   UNL     1       5.829  -6.282  27.530  0.00  0.00    +0.292 HD
ENDBRANCH   5  24
BRANCH   4  26
ATOM     26  O   UNL     1       4.867  -4.243  26.607  0.00  0.00    -0.457 OA
BRANCH  26  27
ATOM     27  C   UNL     1       4.060  -5.270  26.032  0.00  0.00    +0.339 C 
ATOM     28  O   UNL     1       4.630  -6.036  24.965  0.00  0.00    -0.331 OA
ATOM     29  C   UNL     1       3.625  -6.575  24.066  0.00  0.00    +0.179 C 
ATOM     30  C   UNL     1       2.517  -7.372  24.811  0.00  0.00    +0.177 C 
ATOM     31  C   UNL     1       1.997  -6.634  26.065  0.00  0.00    +0.180 C 
ATOM     32  C   UNL     1       3.176  -6.150  26.944  0.00  0.00    +0.214 C 
BRANCH  30  33
ATOM     33  O   UNL     1       3.059  -8.645  25.202  0.00  0.00    -0.386 OA
ATOM     34  H   UNL     1       2.600  -9.329  24.680  0.00  0.00    +0.210 HD
ENDBRANCH  30  33
BRANCH  31  35
ATOM     35  O   UNL     1       1.162  -5.547  25.646  0.00  0.00    -0.386 OA
ATOM     36  H   UNL     1       1.519  -5.182  24.815  0.00  0.00    +0.210 HD
ENDBRANCH  31  35
BRANCH  32  37
ATOM     37  O   UNL     1       3.835  -7.301  27.484  0.00  0.00    -0.383 OA
ATOM     38  H   UNL     1       4.092  -7.858  26.715  0.00  0.00    +0.210 HD
ENDBRANCH  32  37
BRANCH  29  39
ATOM     39  C   UNL     1       3.077  -5.473  23.132  0.00  0.00    +0.190 C 
BRANCH  39  40
ATOM     40  O   UNL     1       1.763  -5.761  22.669  0.00  0.00    -0.392 OA
ATOM     41  H   UNL     1       1.791  -6.636  22.242  0.00  0.00    +0.210 HD
ENDBRANCH  39  40
ENDBRANCH  29  39
ENDBRANCH  26  27
ENDBRANCH   4  26
TORSDOF 12
ENDMDL
MODEL 8
REMARK VINA RESULT:      -7.3      1.813      2.893
REMARK  Name = 
REMARK  12 active torsions:
REMARK  status: ('A' for Active; 'I' for Inactive)
REMARK    1  A    between atoms: C_3  and  O_38
REMARK    2  A    between atoms: C_4  and  O_21
REMARK    3  A    between atoms: C_6  and  C_7
REMARK    4  A    between atoms: C_8  and  O_20
REMARK    5  A    between atoms: C_12  and  O_19
REMARK    6  A    between atoms: C_14  and  O_18
REMARK    7  A    between atoms: O_21  and  C_22
REMARK    8  A    between atoms: C_24  and  O_37
REMARK    9  A    between atoms: C_26  and  O_36
REMARK   10  A    between atoms: C_28  and  O_35
REMARK   11  A    between atoms: C_30  and  C_33
REMARK   12  A    between atoms: C_33  and  O_34
REMARK                            x       y       z     vdW  Elec       q    Type
REMARK                         _______ _______ _______ _____ _____    ______ ____
ROOT
ATOM      1  C   UNL     1       9.185  -1.390  22.020  0.00  0.00    +0.015 A 
ATOM      2  C   UNL     1       8.238  -1.283  23.051  0.00  0.00    +0.025 A 
ATOM      3  C   UNL     1       7.866   0.017  23.427  0.00  0.00    +0.061 A 
ATOM      4  C   UNL     1       8.480   1.171  22.881  0.00  0.00    +0.166 A 
ATOM      5  C   UNL     1       9.484   1.020  21.937  0.00  0.00    +0.159 A 
ATOM      6  C   UNL     1       9.818  -0.258  21.485  0.00  0.00    +0.050 A 
ENDROOT
BRANCH   2   7
ATOM      7  C   UNL     1       7.682  -2.487  23.749  0.00  0.00    +0.181 A 
ATOM      8  O   UNL     1       6.750  -3.212  22.997  0.00  0.00    -0.451 OA
ATOM      9  C   UNL     1       6.111  -4.288  23.578  0.00  0.00    +0.147 A 
ATOM     10  C   UNL     1       6.445  -4.768  24.842  0.00  0.00    +0.109 A 
ATOM     11  C   UNL     1       5.779  -5.877  25.387  0.00  0.00    +0.135 A 
ATOM     12  C   UNL     1       4.764  -6.505  24.676  0.00  0.00    +0.091 A 
ATOM     13  C   UNL     1       4.424  -6.017  23.418  0.00  0.00    +0.124 A 
ATOM     14  C   UNL     1       7.485  -4.070  25.597  0.00  0.00    +0.238 A 
ATOM     15  O   UNL     1       7.834  -4.513  26.696  0.00  0.00    -0.283 OA
ATOM     16  C   UNL     1       5.088  -4.917  22.864  0.00  0.00    +0.092 A 
ATOM     17  C   UNL     1       8.027  -2.820  25.015  0.00  0.00    +0.208 A 
BRANCH  11  18
ATOM     18  O   UNL     1       6.068  -6.392  26.624  0.00  0.00    -0.506 OA
ATOM     19  H   UNL     1       6.986  -6.748  26.600  0.00  0.00    +0.292 HD
ENDBRANCH  11  18
BRANCH  13  20
ATOM     20  O   UNL     1       3.423  -6.602  22.697  0.00  0.00    -0.507 OA
ATOM     21  H   UNL     1       2.858  -5.906  22.314  0.00  0.00    +0.292 HD
ENDBRANCH  13  20
BRANCH  17  22
ATOM     22  O   UNL     1       8.837  -2.068  25.846  0.00  0.00    -0.501 OA
ATOM     23  H   UNL     1       8.922  -1.173  25.469  0.00  0.00    +0.292 HD
ENDBRANCH  17  22
ENDBRANCH   2   7
BRANCH   5  24
ATOM     24  O   UNL     1      10.193   2.096  21.497  0.00  0.00    -0.503 OA
ATOM     25  H   UNL     1       9.765   2.914  21.802  0.00  0.00    +0.292 HD
ENDBRANCH   5  24
BRANCH   4  26
ATOM     26  O   UNL     1       8.082   2.313  23.482  0.00  0.00    -0.457 OA
BRANCH  26  27
ATOM     27  C   UNL     1       7.150   2.448  24.554  0.00  0.00    +0.339 C 
ATOM     28  O   UNL     1       7.676   2.753  25.851  0.00  0.00    -0.331 OA
ATOM     29  C   UNL     1       6.824   2.274  26.925  0.00  0.00    +0.179 C 
ATOM     30  C   UNL     1       5.351   2.750  26.783  0.00  0.00    +0.177 C 
ATOM     31  C   UNL     1       4.810   2.580  25.345  0.00  0.00    +0.180 C 
ATOM     32  C   UNL     1       5.803   3.166  24.313  0.00  0.00    +0.214 C 
BRANCH  30  33
ATOM     33  O   UNL     1       5.284   4.138  27.152  0.00  0.00    -0.386 OA
ATOM     34  H   UNL     1       5.970   4.608  26.642  0.00  0.00    +0.210 HD
ENDBRANCH  30  33
BRANCH  31  35
ATOM     35  O   UNL     1       4.555   1.189  25.111  0.00  0.00    -0.386 OA
ATOM     36  H   UNL     1       3.983   0.852  25.825  0.00  0.00    +0.210 HD
ENDBRANCH  31  35
BRANCH  32  37
ATOM     37  O   UNL     1       5.845   4.587  24.487  0.00  0.00    -0.383 OA
ATOM     38  H   UNL     1       6.526   4.922  23.861  0.00  0.00    +0.210 HD
ENDBRANCH  32  37
BRANCH  29  39
ATOM     39  C   UNL     1       6.971   0.747  27.102  0.00  0.00    +0.190 C 
BRANCH  39  40
ATOM     40  O   UNL     1       8.318   0.358  27.341  0.00  0.00    -0.392 OA
ATOM     41  H   UNL     1       8.298  -0.541  27.715  0.00  0.00    +0.210 HD
ENDBRANCH  39  40
ENDBRANCH  29  39
ENDBRANCH  26  27
ENDBRANCH   4  26
TORSDOF 12
ENDMDL
MODEL 9
REMARK VINA RESULT:      -7.3      1.511      2.838
REMARK  Name = 
REMARK  12 active torsions:
REMARK  status: ('A' for Active; 'I' for Inactive)
REMARK    1  A    between atoms: C_3  and  O_38
REMARK    2  A    between atoms: C_4  and  O_21
REMARK    3  A    between atoms: C_6  and  C_7
REMARK    4  A    between atoms: C_8  and  O_20
REMARK    5  A    between atoms: C_12  and  O_19
REMARK    6  A    between atoms: C_14  and  O_18
REMARK    7  A    between atoms: O_21  and  C_22
REMARK    8  A    between atoms: C_24  and  O_37
REMARK    9  A    between atoms: C_26  and  O_36
REMARK   10  A    between atoms: C_28  and  O_35
REMARK   11  A    between atoms: C_30  and  C_33
REMARK   12  A    between atoms: C_33  and  O_34
REMARK                            x       y       z     vdW  Elec       q    Type
REMARK                         _______ _______ _______ _____ _____    ______ ____
ROOT
ATOM      1  C   UNL     1       8.963  -3.091  23.749  0.00  0.00    +0.015 A 
ATOM      2  C   UNL     1       7.626  -2.765  23.472  0.00  0.00    +0.025 A 
ATOM      3  C   UNL     1       7.396  -1.519  22.870  0.00  0.00    +0.061 A 
ATOM      4  C   UNL     1       8.435  -0.582  22.643  0.00  0.00    +0.166 A 
ATOM      5  C   UNL     1       9.729  -0.902  23.024  0.00  0.00    +0.159 A 
ATOM      6  C   UNL     1       9.999  -2.166  23.551  0.00  0.00    +0.050 A 
ENDROOT
BRANCH   2   7
ATOM      7  C   UNL     1       6.493  -3.676  23.839  0.00  0.00    +0.181 A 
ATOM      8  O   UNL     1       6.617  -4.275  25.098  0.00  0.00    -0.451 OA
ATOM      9  C   UNL     1       5.675  -5.200  25.496  0.00  0.00    +0.147 A 
ATOM     10  C   UNL     1       4.529  -5.473  24.753  0.00  0.00    +0.109 A 
ATOM     11  C   UNL     1       3.587  -6.411  25.207  0.00  0.00    +0.135 A 
ATOM     12  C   UNL     1       3.794  -7.092  26.400  0.00  0.00    +0.091 A 
ATOM     13  C   UNL     1       4.945  -6.826  27.135  0.00  0.00    +0.124 A 
ATOM     14  C   UNL     1       4.347  -4.781  23.479  0.00  0.00    +0.238 A 
ATOM     15  O   UNL     1       3.311  -4.968  22.832  0.00  0.00    -0.283 OA
ATOM     16  C   UNL     1       5.884  -5.887  26.694  0.00  0.00    +0.092 A 
ATOM     17  C   UNL     1       5.459  -3.926  23.002  0.00  0.00    +0.208 A 
BRANCH  11  18
ATOM     18  O   UNL     1       2.443  -6.717  24.518  0.00  0.00    -0.506 OA
ATOM     19  H   UNL     1       2.680  -7.341  23.793  0.00  0.00    +0.292 HD
ENDBRANCH  11  18
BRANCH  13  20
ATOM     20  O   UNL     1       5.186  -7.486  28.305  0.00  0.00    -0.507 OA
ATOM     21  H   UNL     1       4.384  -7.976  28.565  0.00  0.00    +0.292 HD
ENDBRANCH  13  20
BRANCH  17  22
ATOM     22  O   UNL     1       5.355  -3.468  21.701  0.00  0.00    -0.501 OA
ATOM     23  H   UNL     1       5.326  -4.237  21.104  0.00  0.00    +0.292 HD
ENDBRANCH  17  22
ENDBRANCH   2   7
BRANCH   5  24
ATOM     24  O   UNL     1      10.724   0.025  22.953  0.00  0.00    -0.503 OA
ATOM     25  H   UNL     1      11.286  -0.159  22.182  0.00  0.00    +0.292 HD
ENDBRANCH   5  24
BRANCH   4  26
ATOM     26  O   UNL     1       7.982   0.607  22.190  0.00  0.00    -0.457 OA
BRANCH  26  27
ATOM     27  C   UNL     1       7.817   1.811  22.937  0.00  0.00    +0.339 C 
ATOM     28  O   UNL     1       7.038   1.742  24.137  0.00  0.00    -0.331 OA
ATOM     29  C   UNL     1       6.416   3.010  24.473  0.00  0.00    +0.179 C 
ATOM     30  C   UNL     1       7.433   4.185  24.523  0.00  0.00    +0.177 C 
ATOM     31  C   UNL     1       8.395   4.187  23.313  0.00  0.00    +0.180 C 
ATOM     32  C   UNL     1       9.008   2.782  23.098  0.00  0.00    +0.214 C 
BRANCH  30  33
ATOM     33  O   UNL     1       8.198   4.072  25.735  0.00  0.00    -0.386 OA
ATOM     34  H   UNL     1       9.139   4.157  25.494  0.00  0.00    +0.210 HD
ENDBRANCH  30  33
BRANCH  31  35
ATOM     35  O   UNL     1       7.679   4.640  22.157  0.00  0.00    -0.386 OA
ATOM     36  H   UNL     1       7.898   5.578  22.002  0.00  0.00    +0.210 HD
ENDBRANCH  31  35
BRANCH  32  37
ATOM     37  O   UNL     1       9.868   2.493  24.206  0.00  0.00    -0.383 OA
ATOM     38  H   UNL     1      10.750   2.283  23.824  0.00  0.00    +0.210 HD
ENDBRANCH  32  37
BRANCH  29  39
ATOM     39  C   UNL     1       5.197   3.280  23.565  0.00  0.00    +0.190 C 
BRANCH  39  40
ATOM     40  O   UNL     1       4.240   2.229  23.619  0.00  0.00    -0.392 OA
ATOM     41  H   UNL     1       3.577   2.404  22.927  0.00  0.00    +0.210 HD
ENDBRANCH  39  40
ENDBRANCH  29  39
ENDBRANCH  26  27
ENDBRANCH   4  26
TORSDOF 12
ENDMDL
