MODEL 1
REMARK VINA RESULT:      -7.1      0.000      0.000
REMARK  Name = 
REMARK  17 active torsions:
REMARK  status: ('A' for Active; 'I' for Inactive)
REMARK    1  A    between atoms: C_1  and  C_2
REMARK    2  A    between atoms: C_3  and  O_48
REMARK    3  A    between atoms: C_5  and  O_47
REMARK    4  A    between atoms: C_6  and  O_46
REMARK    5  A    between atoms: C_8  and  O_11
REMARK    6  A    between atoms: O_11  and  C_12
REMARK    7  A    between atoms: C_13  and  O_24
REMARK    8  A    between atoms: C_16  and  C_22
REMARK    9  A    between atoms: C_17  and  O_21
REMARK   10  A    between atoms: C_19  and  O_20
REMARK   11  A    between atoms: C_22  and  O_23
REMARK   12  A    between atoms: O_24  and  C_25
REMARK   13  A    between atoms: C_26  and  C_38
REMARK   14  A    between atoms: C_30  and  O_37
REMARK   15  A    between atoms: C_32  and  O_36
REMARK   16  A    between atoms: C_40  and  O_45
REMARK   17  A    between atoms: C_41  and  O_44
REMARK                            x       y       z     vdW  Elec       q    Type
REMARK                         _______ _______ _______ _____ _____    ______ ____
ROOT
ATOM      1  C   UNL     1       4.830  -2.100  26.046  0.00  0.00    +0.221 C 
ATOM      2  C   UNL     1       3.980  -2.266  27.322  0.00  0.00    +0.180 C 
ATOM      3  C   UNL     1       2.889  -1.190  27.437  0.00  0.00    +0.177 C 
ATOM      4  C   UNL     1       3.457   0.219  27.253  0.00  0.00    +0.179 C 
ATOM      5  O   UNL     1       4.150   0.318  26.002  0.00  0.00    -0.331 OA
ATOM      6  C   UNL     1       5.214  -0.613  25.791  0.00  0.00    +0.340 C 
ENDROOT
BRANCH   3   7
ATOM      7  O   UNL     1       1.876  -1.391  26.438  0.00  0.00    -0.386 OA
ATOM      8  H   UNL     1       2.019  -2.273  26.039  0.00  0.00    +0.210 HD
ENDBRANCH   3   7
BRANCH   2   9
ATOM      9  O   UNL     1       4.781  -2.283  28.509  0.00  0.00    -0.386 OA
ATOM     10  H   UNL     1       5.640  -1.856  28.353  0.00  0.00    +0.210 HD
ENDBRANCH   2   9
BRANCH   6  11
ATOM     11  O   UNL     1       6.441  -0.253  26.444  0.00  0.00    -0.453 OA
BRANCH  11  12
ATOM     12  C   UNL     1       7.353   0.466  25.656  0.00  0.00    +0.214 A 
ATOM     13  C   UNL     1       7.356   1.968  25.582  0.00  0.00    +0.238 A 
ATOM     14  O   UNL     1       6.430   2.634  26.011  0.00  0.00    -0.283 OA
ATOM     15  C   UNL     1       8.487   2.611  24.883  0.00  0.00    +0.109 A 
ATOM     16  C   UNL     1       9.376   1.789  24.194  0.00  0.00    +0.147 A 
ATOM     17  C   UNL     1      10.459   2.340  23.501  0.00  0.00    +0.092 A 
ATOM     18  C   UNL     1      10.624   3.725  23.490  0.00  0.00    +0.124 A 
ATOM     19  C   UNL     1       9.735   4.559  24.150  0.00  0.00    +0.091 A 
ATOM     20  O   UNL     1       9.231   0.425  24.115  0.00  0.00    -0.451 OA
ATOM     21  C   UNL     1       8.668   4.004  24.853  0.00  0.00    +0.135 A 
ATOM     22  C   UNL     1       8.233  -0.174  24.859  0.00  0.00    +0.181 A 
BRANCH  22  23
ATOM     23  C   UNL     1       8.169  -1.640  24.688  0.00  0.00    +0.025 A 
ATOM     24  C   UNL     1       8.815  -2.479  25.614  0.00  0.00    +0.015 A 
ATOM     25  C   UNL     1       8.917  -3.854  25.376  0.00  0.00    +0.050 A 
ATOM     26  C   UNL     1       8.404  -4.377  24.200  0.00  0.00    +0.158 A 
ATOM     27  C   UNL     1       7.743  -3.558  23.289  0.00  0.00    +0.159 A 
ATOM     28  C   UNL     1       7.566  -2.204  23.557  0.00  0.00    +0.060 A 
BRANCH  27  29
ATOM     29  O   UNL     1       7.327  -4.111  22.111  0.00  0.00    -0.503 OA
ATOM     30  H   UNL     1       7.962  -3.847  21.416  0.00  0.00    +0.292 HD
ENDBRANCH  27  29
BRANCH  26  31
ATOM     31  O   UNL     1       8.593  -5.699  23.917  0.00  0.00    -0.503 OA
ATOM     32  H   UNL     1       8.209  -6.172  24.680  0.00  0.00    +0.292 HD
ENDBRANCH  26  31
ENDBRANCH  22  23
BRANCH  21  33
ATOM     33  O   UNL     1       7.808   4.844  25.501  0.00  0.00    -0.506 OA
ATOM     34  H   UNL     1       8.190   5.135  26.345  0.00  0.00    +0.292 HD
ENDBRANCH  21  33
BRANCH  18  35
ATOM     35  O   UNL     1      11.656   4.317  22.822  0.00  0.00    -0.507 OA
ATOM     36  H   UNL     1      11.879   3.784  22.039  0.00  0.00    +0.292 HD
ENDBRANCH  18  35
ENDBRANCH  11  12
ENDBRANCH   6  11
BRANCH   4  37
ATOM     37  C   UNL     1       4.317   0.733  28.405  0.00  0.00    +0.190 C 
BRANCH  37  38
ATOM     38  O   UNL     1       4.953   1.984  28.175  0.00  0.00    -0.392 OA
ATOM     39  H   UNL     1       5.308   1.974  27.258  0.00  0.00    +0.210 HD
ENDBRANCH  37  38
ENDBRANCH   4  37
BRANCH   1  40
ATOM     40  O   UNL     1       4.067  -2.646  24.944  0.00  0.00    -0.337 OA
BRANCH  40  44
ATOM     41  C   UNL     1       4.436  -6.526  26.617  0.00  0.00    +0.041 C 
ATOM     42  C   UNL     1       5.229  -6.078  25.387  0.00  0.00    +0.149 C 
ATOM     43  O   UNL     1       5.231  -4.645  25.256  0.00  0.00    -0.343 OA
ATOM     44  C   UNL     1       3.963  -4.081  24.892  0.00  0.00    +0.282 C 
ATOM     45  C   UNL     1       3.503  -4.628  23.521  0.00  0.00    +0.201 C 
ATOM     46  C   UNL     1       3.436  -6.156  23.585  0.00  0.00    +0.179 C 
ATOM     47  C   UNL     1       4.757  -6.752  24.087  0.00  0.00    +0.174 C 
BRANCH  47  48
ATOM     48  O   UNL     1       5.743  -6.563  23.053  0.00  0.00    -0.387 OA
ATOM     49  H   UNL     1       5.801  -5.593  22.903  0.00  0.00    +0.210 HD
ENDBRANCH  47  48
BRANCH  46  50
ATOM     50  O   UNL     1       3.135  -6.657  22.272  0.00  0.00    -0.386 OA
ATOM     51  H   UNL     1       2.305  -6.199  22.009  0.00  0.00    +0.210 HD
ENDBRANCH  46  50
BRANCH  45  52
ATOM     52  O   UNL     1       4.408  -4.219  22.478  0.00  0.00    -0.384 OA
ATOM     53  H   UNL     1       5.203  -3.879  22.931  0.00  0.00    +0.210 HD
ENDBRANCH  45  52
ENDBRANCH  40  44
ENDBRANCH   1  40
TORSDOF 16
ENDMDL
MODEL 2
REMARK VINA RESULT:      -6.8      2.234      8.925
REMARK  Name = 
REMARK  17 active torsions:
REMARK  status: ('A' for Active; 'I' for Inactive)
REMARK    1  A    between atoms: C_1  and  C_2
REMARK    2  A    between atoms: C_3  and  O_48
REMARK    3  A    between atoms: C_5  and  O_47
REMARK    4  A    between atoms: C_6  and  O_46
REMARK    5  A    between atoms: C_8  and  O_11
REMARK    6  A    between atoms: O_11  and  C_12
REMARK    7  A    between atoms: C_13  and  O_24
REMARK    8  A    between atoms: C_16  and  C_22
REMARK    9  A    between atoms: C_17  and  O_21
REMARK   10  A    between atoms: C_19  and  O_20
REMARK   11  A    between atoms: C_22  and  O_23
REMARK   12  A    between atoms: O_24  and  C_25
REMARK   13  A    between atoms: C_26  and  C_38
REMARK   14  A    between atoms: C_30  and  O_37
REMARK   15  A    between atoms: C_32  and  O_36
REMARK   16  A    between atoms: C_40  and  O_45
REMARK   17  A    between atoms: C_41  and  O_44
REMARK                            x       y       z     vdW  Elec       q    Type
REMARK                         _______ _______ _______ _____ _____    ______ ____
ROOT
ATOM      1  C   UNL     1       7.907   1.342  23.797  0.00  0.00    +0.221 C 
ATOM      2  C   UNL     1       9.423   1.614  23.843  0.00  0.00    +0.180 C 
ATOM      3  C   UNL     1      10.139   1.128  22.573  0.00  0.00    +0.177 C 
ATOM      4  C   UNL     1       9.782  -0.321  22.237  0.00  0.00    +0.179 C 
ATOM      5  O   UNL     1       8.361  -0.470  22.118  0.00  0.00    -0.331 OA
ATOM      6  C   UNL     1       7.586  -0.080  23.254  0.00  0.00    +0.340 C 
ENDROOT
BRANCH   3   7
ATOM      7  O   UNL     1       9.777   1.944  21.447  0.00  0.00    -0.386 OA
ATOM      8  H   UNL     1       8.872   2.284  21.602  0.00  0.00    +0.210 HD
ENDBRANCH   3   7
BRANCH   2   9
ATOM      9  O   UNL     1      10.042   1.046  25.004  0.00  0.00    -0.386 OA
ATOM     10  H   UNL     1       9.756   1.509  25.809  0.00  0.00    +0.210 HD
ENDBRANCH   2   9
BRANCH   6  11
ATOM     11  O   UNL     1       7.552  -1.063  24.300  0.00  0.00    -0.453 OA
BRANCH  11  12
ATOM     12  C   UNL     1       6.347  -1.774  24.420  0.00  0.00    +0.214 A 
ATOM     13  C   UNL     1       5.958  -2.878  23.476  0.00  0.00    +0.238 A 
ATOM     14  O   UNL     1       6.547  -3.062  22.425  0.00  0.00    -0.283 OA
ATOM     15  C   UNL     1       4.770  -3.681  23.825  0.00  0.00    +0.109 A 
ATOM     16  C   UNL     1       3.993  -3.258  24.901  0.00  0.00    +0.147 A 
ATOM     17  C   UNL     1       2.847  -3.970  25.272  0.00  0.00    +0.092 A 
ATOM     18  C   UNL     1       2.478  -5.096  24.535  0.00  0.00    +0.124 A 
ATOM     19  C   UNL     1       3.227  -5.517  23.447  0.00  0.00    +0.091 A 
ATOM     20  O   UNL     1       4.267  -2.123  25.625  0.00  0.00    -0.451 OA
ATOM     21  C   UNL     1       4.376  -4.815  23.093  0.00  0.00    +0.135 A 
ATOM     22  C   UNL     1       5.438  -1.440  25.358  0.00  0.00    +0.181 A 
BRANCH  22  23
ATOM     23  C   UNL     1       5.621  -0.235  26.192  0.00  0.00    +0.025 A 
ATOM     24  C   UNL     1       4.935   0.949  25.867  0.00  0.00    +0.015 A 
ATOM     25  C   UNL     1       5.227   2.145  26.532  0.00  0.00    +0.050 A 
ATOM     26  C   UNL     1       6.225   2.159  27.492  0.00  0.00    +0.158 A 
ATOM     27  C   UNL     1       6.893   0.988  27.837  0.00  0.00    +0.159 A 
ATOM     28  C   UNL     1       6.553  -0.221  27.238  0.00  0.00    +0.060 A 
BRANCH  27  29
ATOM     29  O   UNL     1       7.922   1.075  28.732  0.00  0.00    -0.503 OA
ATOM     30  H   UNL     1       7.575   1.486  29.548  0.00  0.00    +0.292 HD
ENDBRANCH  27  29
BRANCH  26  31
ATOM     31  O   UNL     1       6.582   3.344  28.068  0.00  0.00    -0.503 OA
ATOM     32  H   UNL     1       5.749   3.850  28.131  0.00  0.00    +0.292 HD
ENDBRANCH  26  31
ENDBRANCH  22  23
BRANCH  21  33
ATOM     33  O   UNL     1       5.102  -5.251  22.021  0.00  0.00    -0.506 OA
ATOM     34  H   UNL     1       6.022  -4.948  22.088  0.00  0.00    +0.292 HD
ENDBRANCH  21  33
BRANCH  18  35
ATOM     35  O   UNL     1       1.366  -5.821  24.845  0.00  0.00    -0.507 OA
ATOM     36  H   UNL     1       1.023  -6.243  24.038  0.00  0.00    +0.292 HD
ENDBRANCH  18  35
ENDBRANCH  11  12
ENDBRANCH   6  11
BRANCH   4  37
ATOM     37  C   UNL     1      10.372  -1.375  23.171  0.00  0.00    +0.190 C 
BRANCH  37  38
ATOM     38  O   UNL     1       9.732  -2.643  23.137  0.00  0.00    -0.392 OA
ATOM     39  H   UNL     1       9.301  -2.784  24.010  0.00  0.00    +0.210 HD
ENDBRANCH  37  38
ENDBRANCH   4  37
BRANCH   1  40
ATOM     40  O   UNL     1       7.308   2.371  22.973  0.00  0.00    -0.337 OA
BRANCH  40  44
ATOM     41  C   UNL     1       8.867   5.362  25.544  0.00  0.00    +0.041 C 
ATOM     42  C   UNL     1       7.417   5.366  25.058  0.00  0.00    +0.149 C 
ATOM     43  O   UNL     1       7.032   4.080  24.540  0.00  0.00    -0.343 OA
ATOM     44  C   UNL     1       7.658   3.729  23.298  0.00  0.00    +0.282 C 
ATOM     45  C   UNL     1       7.289   4.752  22.199  0.00  0.00    +0.201 C 
ATOM     46  C   UNL     1       7.702   6.154  22.656  0.00  0.00    +0.179 C 
ATOM     47  C   UNL     1       7.126   6.482  24.040  0.00  0.00    +0.174 C 
BRANCH  47  48
ATOM     48  O   UNL     1       5.702   6.650  23.892  0.00  0.00    -0.387 OA
ATOM     49  H   UNL     1       5.463   6.224  23.038  0.00  0.00    +0.210 HD
ENDBRANCH  47  48
BRANCH  46  50
ATOM     50  O   UNL     1       7.236   7.108  21.688  0.00  0.00    -0.386 OA
ATOM     51  H   UNL     1       8.044   7.582  21.388  0.00  0.00    +0.210 HD
ENDBRANCH  46  50
BRANCH  45  52
ATOM     52  O   UNL     1       5.875   4.721  21.928  0.00  0.00    -0.384 OA
ATOM     53  H   UNL     1       5.611   5.648  21.772  0.00  0.00    +0.210 HD
ENDBRANCH  45  52
ENDBRANCH  40  44
ENDBRANCH   1  40
TORSDOF 16
ENDMDL
MODEL 3
REMARK VINA RESULT:      -6.8      2.836      9.002
REMARK  Name = 
REMARK  17 active torsions:
REMARK  status: ('A' for Active; 'I' for Inactive)
REMARK    1  A    between atoms: C_1  and  C_2
REMARK    2  A    between atoms: C_3  and  O_48
REMARK    3  A    between atoms: C_5  and  O_47
REMARK    4  A    between atoms: C_6  and  O_46
REMARK    5  A    between atoms: C_8  and  O_11
REMARK    6  A    between atoms: O_11  and  C_12
REMARK    7  A    between atoms: C_13  and  O_24
REMARK    8  A    between atoms: C_16  and  C_22
REMARK    9  A    between atoms: C_17  and  O_21
REMARK   10  A    between atoms: C_19  and  O_20
REMARK   11  A    between atoms: C_22  and  O_23
REMARK   12  A    between atoms: O_24  and  C_25
REMARK   13  A    between atoms: C_26  and  C_38
REMARK   14  A    between atoms: C_30  and  O_37
REMARK   15  A    between atoms: C_32  and  O_36
REMARK   16  A    between atoms: C_40  and  O_45
REMARK   17  A    between atoms: C_41  and  O_44
REMARK                            x       y       z     vdW  Elec       q    Type
REMARK                         _______ _______ _______ _____ _____    ______ ____
ROOT
ATOM      1  C   UNL     1       8.590   1.712  24.022  0.00  0.00    +0.221 C 
ATOM      2  C   UNL     1       9.947   1.768  23.292  0.00  0.00    +0.180 C 
ATOM      3  C   UNL     1       9.986   0.840  22.067  0.00  0.00    +0.177 C 
ATOM      4  C   UNL     1       9.527  -0.578  22.412  0.00  0.00    +0.179 C 
ATOM      5  O   UNL     1       8.219  -0.551  22.998  0.00  0.00    -0.331 OA
ATOM      6  C   UNL     1       8.066   0.255  24.169  0.00  0.00    +0.340 C 
ENDROOT
BRANCH   3   7
ATOM      7  O   UNL     1       9.128   1.341  21.030  0.00  0.00    -0.386 OA
ATOM      8  H   UNL     1       8.768   0.573  20.541  0.00  0.00    +0.210 HD
ENDBRANCH   3   7
BRANCH   2   9
ATOM      9  O   UNL     1      11.045   1.475  24.165  0.00  0.00    -0.386 OA
ATOM     10  H   UNL     1      11.535   0.696  23.854  0.00  0.00    +0.210 HD
ENDBRANCH   2   9
BRANCH   6  11
ATOM     11  O   UNL     1       8.538  -0.371  25.372  0.00  0.00    -0.453 OA
BRANCH  11  12
ATOM     12  C   UNL     1       7.643  -1.268  25.975  0.00  0.00    +0.214 A 
ATOM     13  C   UNL     1       7.840  -2.758  25.941  0.00  0.00    +0.238 A 
ATOM     14  O   UNL     1       8.651  -3.283  25.197  0.00  0.00    -0.283 OA
ATOM     15  C   UNL     1       6.946  -3.580  26.780  0.00  0.00    +0.109 A 
ATOM     16  C   UNL     1       5.877  -2.944  27.407  0.00  0.00    +0.147 A 
ATOM     17  C   UNL     1       4.987  -3.672  28.204  0.00  0.00    +0.092 A 
ATOM     18  C   UNL     1       5.170  -5.048  28.345  0.00  0.00    +0.124 A 
ATOM     19  C   UNL     1       6.215  -5.701  27.709  0.00  0.00    +0.091 A 
ATOM     20  O   UNL     1       5.607  -1.606  27.257  0.00  0.00    -0.451 OA
ATOM     21  C   UNL     1       7.108  -4.968  26.930  0.00  0.00    +0.135 A 
ATOM     22  C   UNL     1       6.509  -0.827  26.557  0.00  0.00    +0.181 A 
BRANCH  22  23
ATOM     23  C   UNL     1       6.110   0.591  26.454  0.00  0.00    +0.025 A 
ATOM     24  C   UNL     1       5.103   0.969  25.547  0.00  0.00    +0.015 A 
ATOM     25  C   UNL     1       4.834   2.320  25.307  0.00  0.00    +0.050 A 
ATOM     26  C   UNL     1       5.594   3.285  25.947  0.00  0.00    +0.158 A 
ATOM     27  C   UNL     1       6.576   2.922  26.863  0.00  0.00    +0.159 A 
ATOM     28  C   UNL     1       6.795   1.582  27.168  0.00  0.00    +0.060 A 
BRANCH  27  29
ATOM     29  O   UNL     1       7.348   3.911  27.404  0.00  0.00    -0.503 OA
ATOM     30  H   UNL     1       7.792   4.379  26.671  0.00  0.00    +0.292 HD
ENDBRANCH  27  29
BRANCH  26  31
ATOM     31  O   UNL     1       5.403   4.601  25.636  0.00  0.00    -0.503 OA
ATOM     32  H   UNL     1       6.109   4.808  24.993  0.00  0.00    +0.292 HD
ENDBRANCH  26  31
ENDBRANCH  22  23
BRANCH  21  33
ATOM     33  O   UNL     1       8.133  -5.632  26.317  0.00  0.00    -0.506 OA
ATOM     34  H   UNL     1       8.504  -6.304  26.911  0.00  0.00    +0.292 HD
ENDBRANCH  21  33
BRANCH  18  35
ATOM     35  O   UNL     1       4.328  -5.808  29.101  0.00  0.00    -0.507 OA
ATOM     36  H   UNL     1       3.695  -5.227  29.558  0.00  0.00    +0.292 HD
ENDBRANCH  18  35
ENDBRANCH  11  12
ENDBRANCH   6  11
BRANCH   4  37
ATOM     37  C   UNL     1      10.498  -1.391  23.265  0.00  0.00    +0.190 C 
BRANCH  37  38
ATOM     38  O   UNL     1      10.362  -2.802  23.160  0.00  0.00    -0.392 OA
ATOM     39  H   UNL     1      11.266  -3.190  23.157  0.00  0.00    +0.210 HD
ENDBRANCH  37  38
ENDBRANCH   4  37
BRANCH   1  40
ATOM     40  O   UNL     1       7.663   2.536  23.273  0.00  0.00    -0.337 OA
BRANCH  40  44
ATOM     41  C   UNL     1      10.100   5.922  24.035  0.00  0.00    +0.041 C 
ATOM     42  C   UNL     1       8.600   5.900  24.336  0.00  0.00    +0.149 C 
ATOM     43  O   UNL     1       8.088   4.555  24.364  0.00  0.00    -0.343 OA
ATOM     44  C   UNL     1       8.045   3.910  23.084  0.00  0.00    +0.282 C 
ATOM     45  C   UNL     1       7.123   4.690  22.118  0.00  0.00    +0.201 C 
ATOM     46  C   UNL     1       7.621   6.133  22.000  0.00  0.00    +0.179 C 
ATOM     47  C   UNL     1       7.780   6.783  23.381  0.00  0.00    +0.174 C 
BRANCH  47  48
ATOM     48  O   UNL     1       6.459   6.993  23.919  0.00  0.00    -0.387 OA
ATOM     49  H   UNL     1       6.041   7.683  23.358  0.00  0.00    +0.210 HD
ENDBRANCH  47  48
BRANCH  46  50
ATOM     50  O   UNL     1       6.684   6.879  21.207  0.00  0.00    -0.386 OA
ATOM     51  H   UNL     1       6.695   7.787  21.586  0.00  0.00    +0.210 HD
ENDBRANCH  46  50
BRANCH  45  52
ATOM     52  O   UNL     1       5.763   4.678  22.590  0.00  0.00    -0.384 OA
ATOM     53  H   UNL     1       5.808   4.432  23.534  0.00  0.00    +0.210 HD
ENDBRANCH  45  52
ENDBRANCH  40  44
ENDBRANCH   1  40
TORSDOF 16
ENDMDL
MODEL 4
REMARK VINA RESULT:      -6.7      1.847      6.299
REMARK  Name = 
REMARK  17 active torsions:
REMARK  status: ('A' for Active; 'I' for Inactive)
REMARK    1  A    between atoms: C_1  and  C_2
REMARK    2  A    between atoms: C_3  and  O_48
REMARK    3  A    between atoms: C_5  and  O_47
REMARK    4  A    between atoms: C_6  and  O_46
REMARK    5  A    between atoms: C_8  and  O_11
REMARK    6  A    between atoms: O_11  and  C_12
REMARK    7  A    between atoms: C_13  and  O_24
REMARK    8  A    between atoms: C_16  and  C_22
REMARK    9  A    between atoms: C_17  and  O_21
REMARK   10  A    between atoms: C_19  and  O_20
REMARK   11  A    between atoms: C_22  and  O_23
REMARK   12  A    between atoms: O_24  and  C_25
REMARK   13  A    between atoms: C_26  and  C_38
REMARK   14  A    between atoms: C_30  and  O_37
REMARK   15  A    between atoms: C_32  and  O_36
REMARK   16  A    between atoms: C_40  and  O_45
REMARK   17  A    between atoms: C_41  and  O_44
REMARK                            x       y       z     vdW  Elec       q    Type
REMARK                         _______ _______ _______ _____ _____    ______ ____
ROOT
ATOM      1  C   UNL     1       8.044  -1.549  22.421  0.00  0.00    +0.221 C 
ATOM      2  C   UNL     1       9.572  -1.399  22.279  0.00  0.00    +0.180 C 
ATOM      3  C   UNL     1      10.317  -1.816  23.557  0.00  0.00    +0.177 C 
ATOM      4  C   UNL     1       9.743  -1.132  24.800  0.00  0.00    +0.179 C 
ATOM      5  O   UNL     1       8.339  -1.398  24.911  0.00  0.00    -0.331 OA
ATOM      6  C   UNL     1       7.532  -1.022  23.792  0.00  0.00    +0.340 C 
ENDROOT
BRANCH   3   7
ATOM      7  O   UNL     1      10.226  -3.236  23.753  0.00  0.00    -0.386 OA
ATOM      8  H   UNL     1       9.726  -3.393  24.580  0.00  0.00    +0.210 HD
ENDBRANCH   3   7
BRANCH   2   9
ATOM      9  O   UNL     1       9.954  -0.073  21.897  0.00  0.00    -0.386 OA
ATOM     10  H   UNL     1      10.878   0.106  22.144  0.00  0.00    +0.210 HD
ENDBRANCH   2   9
BRANCH   6  11
ATOM     11  O   UNL     1       7.214   0.378  23.749  0.00  0.00    -0.453 OA
BRANCH  11  12
ATOM     12  C   UNL     1       6.385   0.839  24.784  0.00  0.00    +0.214 A 
ATOM     13  C   UNL     1       5.321  -0.016  25.415  0.00  0.00    +0.238 A 
ATOM     14  O   UNL     1       4.960  -1.067  24.914  0.00  0.00    -0.283 OA
ATOM     15  C   UNL     1       4.656   0.509  26.623  0.00  0.00    +0.109 A 
ATOM     16  C   UNL     1       4.930   1.823  26.995  0.00  0.00    +0.147 A 
ATOM     17  C   UNL     1       4.320   2.382  28.124  0.00  0.00    +0.092 A 
ATOM     18  C   UNL     1       3.415   1.615  28.858  0.00  0.00    +0.124 A 
ATOM     19  C   UNL     1       3.113   0.314  28.487  0.00  0.00    +0.091 A 
ATOM     20  O   UNL     1       5.761   2.650  26.279  0.00  0.00    -0.451 OA
ATOM     21  C   UNL     1       3.736  -0.244  27.373  0.00  0.00    +0.135 A 
ATOM     22  C   UNL     1       6.459   2.115  25.213  0.00  0.00    +0.181 A 
BRANCH  22  23
ATOM     23  C   UNL     1       7.313   3.098  24.515  0.00  0.00    +0.025 A 
ATOM     24  C   UNL     1       8.449   3.618  25.160  0.00  0.00    +0.015 A 
ATOM     25  C   UNL     1       9.168   4.674  24.592  0.00  0.00    +0.050 A 
ATOM     26  C   UNL     1       8.729   5.228  23.400  0.00  0.00    +0.158 A 
ATOM     27  C   UNL     1       7.620   4.705  22.742  0.00  0.00    +0.159 A 
ATOM     28  C   UNL     1       6.947   3.602  23.260  0.00  0.00    +0.060 A 
BRANCH  27  29
ATOM     29  O   UNL     1       7.184   5.339  21.613  0.00  0.00    -0.503 OA
ATOM     30  H   UNL     1       7.894   5.282  20.945  0.00  0.00    +0.292 HD
ENDBRANCH  27  29
BRANCH  26  31
ATOM     31  O   UNL     1       9.367   6.324  22.896  0.00  0.00    -0.503 OA
ATOM     32  H   UNL     1       9.751   6.768  23.678  0.00  0.00    +0.292 HD
ENDBRANCH  26  31
ENDBRANCH  22  23
BRANCH  21  33
ATOM     33  O   UNL     1       3.428  -1.530  27.030  0.00  0.00    -0.506 OA
ATOM     34  H   UNL     1       4.086  -2.144  27.392  0.00  0.00    +0.292 HD
ENDBRANCH  21  33
BRANCH  18  35
ATOM     35  O   UNL     1       2.784   2.112  29.959  0.00  0.00    -0.507 OA
ATOM     36  H   UNL     1       2.401   2.981  29.745  0.00  0.00    +0.292 HD
ENDBRANCH  18  35
ENDBRANCH  11  12
ENDBRANCH   6  11
BRANCH   4  37
ATOM     37  C   UNL     1      10.034   0.362  24.919  0.00  0.00    +0.190 C 
BRANCH  37  38
ATOM     38  O   UNL     1      11.318   0.767  24.463  0.00  0.00    -0.392 OA
ATOM     39  H   UNL     1      11.423   0.444  23.540  0.00  0.00    +0.210 HD
ENDBRANCH  37  38
ENDBRANCH   4  37
BRANCH   1  40
ATOM     40  O   UNL     1       7.728  -2.950  22.240  0.00  0.00    -0.337 OA
BRANCH  40  44
ATOM     41  C   UNL     1       6.431  -4.270  26.056  0.00  0.00    +0.041 C 
ATOM     42  C   UNL     1       6.515  -5.202  24.845  0.00  0.00    +0.149 C 
ATOM     43  O   UNL     1       7.333  -4.638  23.803  0.00  0.00    -0.343 OA
ATOM     44  C   UNL     1       6.754  -3.503  23.144  0.00  0.00    +0.282 C 
ATOM     45  C   UNL     1       5.422  -3.896  22.465  0.00  0.00    +0.201 C 
ATOM     46  C   UNL     1       4.471  -4.474  23.517  0.00  0.00    +0.179 C 
ATOM     47  C   UNL     1       5.136  -5.612  24.303  0.00  0.00    +0.174 C 
BRANCH  47  48
ATOM     48  O   UNL     1       5.274  -6.736  23.412  0.00  0.00    -0.387 OA
ATOM     49  H   UNL     1       4.663  -6.567  22.661  0.00  0.00    +0.210 HD
ENDBRANCH  47  48
BRANCH  46  50
ATOM     50  O   UNL     1       3.290  -4.955  22.855  0.00  0.00    -0.386 OA
ATOM     51  H   UNL     1       2.706  -5.277  23.577  0.00  0.00    +0.210 HD
ENDBRANCH  46  50
BRANCH  45  52
ATOM     52  O   UNL     1       5.645  -4.863  21.422  0.00  0.00    -0.384 OA
ATOM     53  H   UNL     1       6.086  -5.622  21.849  0.00  0.00    +0.210 HD
ENDBRANCH  45  52
ENDBRANCH  40  44
ENDBRANCH   1  40
TORSDOF 16
ENDMDL
MODEL 5
REMARK VINA RESULT:      -6.6      1.864      7.266
REMARK  Name = 
REMARK  17 active torsions:
REMARK  status: ('A' for Active; 'I' for Inactive)
REMARK    1  A    between atoms: C_1  and  C_2
REMARK    2  A    between atoms: C_3  and  O_48
REMARK    3  A    between atoms: C_5  and  O_47
REMARK    4  A    between atoms: C_6  and  O_46
REMARK    5  A    between atoms: C_8  and  O_11
REMARK    6  A    between atoms: O_11  and  C_12
REMARK    7  A    between atoms: C_13  and  O_24
REMARK    8  A    between atoms: C_16  and  C_22
REMARK    9  A    between atoms: C_17  and  O_21
REMARK   10  A    between atoms: C_19  and  O_20
REMARK   11  A    between atoms: C_22  and  O_23
REMARK   12  A    between atoms: O_24  and  C_25
REMARK   13  A    between atoms: C_26  and  C_38
REMARK   14  A    between atoms: C_30  and  O_37
REMARK   15  A    between atoms: C_32  and  O_36
REMARK   16  A    between atoms: C_40  and  O_45
REMARK   17  A    between atoms: C_41  and  O_44
REMARK                            x       y       z     vdW  Elec       q    Type
REMARK                         _______ _______ _______ _____ _____    ______ ____
ROOT
ATOM      1  C   UNL     1       9.526  -0.753  24.127  0.00  0.00    +0.221 C 
ATOM      2  C   UNL     1      10.194  -1.746  23.156  0.00  0.00    +0.180 C 
ATOM      3  C   UNL     1       9.388  -1.921  21.859  0.00  0.00    +0.177 C 
ATOM      4  C   UNL     1       7.915  -2.228  22.141  0.00  0.00    +0.179 C 
ATOM      5  O   UNL     1       7.344  -1.209  22.971  0.00  0.00    -0.331 OA
ATOM      6  C   UNL     1       7.989  -0.976  24.224  0.00  0.00    +0.340 C 
ENDROOT
BRANCH   3   7
ATOM      7  O   UNL     1       9.445  -0.725  21.066  0.00  0.00    -0.386 OA
ATOM      8  H   UNL     1       9.606   0.028  21.669  0.00  0.00    +0.210 HD
ENDBRANCH   3   7
BRANCH   2   9
ATOM      9  O   UNL     1      10.431  -3.022  23.763  0.00  0.00    -0.386 OA
ATOM     10  H   UNL     1      10.960  -2.926  24.573  0.00  0.00    +0.210 HD
ENDBRANCH   2   9
BRANCH   6  11
ATOM     11  O   UNL     1       7.645  -1.929  25.242  0.00  0.00    -0.453 OA
BRANCH  11  12
ATOM     12  C   UNL     1       6.786  -1.454  26.245  0.00  0.00    +0.214 A 
ATOM     13  C   UNL     1       7.129  -0.282  27.121  0.00  0.00    +0.238 A 
ATOM     14  O   UNL     1       8.258   0.174  27.172  0.00  0.00    -0.283 OA
ATOM     15  C   UNL     1       6.064   0.246  27.997  0.00  0.00    +0.109 A 
ATOM     16  C   UNL     1       4.876  -0.477  28.083  0.00  0.00    +0.147 A 
ATOM     17  C   UNL     1       3.835  -0.035  28.906  0.00  0.00    +0.092 A 
ATOM     18  C   UNL     1       4.010   1.126  29.659  0.00  0.00    +0.124 A 
ATOM     19  C   UNL     1       5.194   1.844  29.604  0.00  0.00    +0.091 A 
ATOM     20  O   UNL     1       4.667  -1.660  27.417  0.00  0.00    -0.451 OA
ATOM     21  C   UNL     1       6.221   1.409  28.769  0.00  0.00    +0.135 A 
ATOM     22  C   UNL     1       5.627  -2.088  26.519  0.00  0.00    +0.181 A 
BRANCH  22  23
ATOM     23  C   UNL     1       5.298  -3.373  25.871  0.00  0.00    +0.025 A 
ATOM     24  C   UNL     1       5.826  -4.571  26.386  0.00  0.00    +0.015 A 
ATOM     25  C   UNL     1       5.673  -5.773  25.688  0.00  0.00    +0.050 A 
ATOM     26  C   UNL     1       5.023  -5.768  24.465  0.00  0.00    +0.158 A 
ATOM     27  C   UNL     1       4.477  -4.592  23.958  0.00  0.00    +0.159 A 
ATOM     28  C   UNL     1       4.554  -3.408  24.684  0.00  0.00    +0.060 A 
BRANCH  27  29
ATOM     29  O   UNL     1       3.917  -4.628  22.712  0.00  0.00    -0.503 OA
ATOM     30  H   UNL     1       4.166  -5.477  22.297  0.00  0.00    +0.292 HD
ENDBRANCH  27  29
BRANCH  26  31
ATOM     31  O   UNL     1       4.963  -6.919  23.734  0.00  0.00    -0.503 OA
ATOM     32  H   UNL     1       4.346  -6.716  23.004  0.00  0.00    +0.292 HD
ENDBRANCH  26  31
ENDBRANCH  22  23
BRANCH  21  33
ATOM     33  O   UNL     1       7.377   2.136  28.726  0.00  0.00    -0.506 OA
ATOM     34  H   UNL     1       7.185   3.084  28.810  0.00  0.00    +0.292 HD
ENDBRANCH  21  33
BRANCH  18  35
ATOM     35  O   UNL     1       3.033   1.597  30.485  0.00  0.00    -0.507 OA
ATOM     36  H   UNL     1       2.163   1.423  30.085  0.00  0.00    +0.292 HD
ENDBRANCH  18  35
ENDBRANCH  11  12
ENDBRANCH   6  11
BRANCH   4  37
ATOM     37  C   UNL     1       7.632  -3.620  22.700  0.00  0.00    +0.190 C 
BRANCH  37  38
ATOM     38  O   UNL     1       6.977  -4.510  21.806  0.00  0.00    -0.392 OA
ATOM     39  H   UNL     1       6.706  -5.304  22.320  0.00  0.00    +0.210 HD
ENDBRANCH  37  38
ENDBRANCH   4  37
BRANCH   1  40
ATOM     40  O   UNL     1       9.839   0.583  23.662  0.00  0.00    -0.337 OA
BRANCH  40  44
ATOM     41  C   UNL     1       5.875   2.001  23.152  0.00  0.00    +0.041 C 
ATOM     42  C   UNL     1       7.088   2.704  22.539  0.00  0.00    +0.149 C 
ATOM     43  O   UNL     1       8.241   1.842  22.518  0.00  0.00    -0.343 OA
ATOM     44  C   UNL     1       8.800   1.567  23.810  0.00  0.00    +0.282 C 
ATOM     45  C   UNL     1       9.268   2.877  24.485  0.00  0.00    +0.201 C 
ATOM     46  C   UNL     1       8.085   3.844  24.583  0.00  0.00    +0.179 C 
ATOM     47  C   UNL     1       7.414   4.045  23.217  0.00  0.00    +0.174 C 
BRANCH  47  48
ATOM     48  O   UNL     1       8.321   4.803  22.392  0.00  0.00    -0.387 OA
ATOM     49  H   UNL     1       8.262   5.734  22.705  0.00  0.00    +0.210 HD
ENDBRANCH  47  48
BRANCH  46  50
ATOM     50  O   UNL     1       8.562   5.102  25.089  0.00  0.00    -0.386 OA
ATOM     51  H   UNL     1       8.822   5.616  24.292  0.00  0.00    +0.210 HD
ENDBRANCH  46  50
BRANCH  45  52
ATOM     52  O   UNL     1      10.337   3.484  23.735  0.00  0.00    -0.384 OA
ATOM     53  H   UNL     1       9.993   3.609  22.830  0.00  0.00    +0.210 HD
ENDBRANCH  45  52
ENDBRANCH  40  44
ENDBRANCH   1  40
TORSDOF 16
ENDMDL
MODEL 6
REMARK VINA RESULT:      -6.5      1.849      5.528
REMARK  Name = 
REMARK  17 active torsions:
REMARK  status: ('A' for Active; 'I' for Inactive)
REMARK    1  A    between atoms: C_1  and  C_2
REMARK    2  A    between atoms: C_3  and  O_48
REMARK    3  A    between atoms: C_5  and  O_47
REMARK    4  A    between atoms: C_6  and  O_46
REMARK    5  A    between atoms: C_8  and  O_11
REMARK    6  A    between atoms: O_11  and  C_12
REMARK    7  A    between atoms: C_13  and  O_24
REMARK    8  A    between atoms: C_16  and  C_22
REMARK    9  A    between atoms: C_17  and  O_21
REMARK   10  A    between atoms: C_19  and  O_20
REMARK   11  A    between atoms: C_22  and  O_23
REMARK   12  A    between atoms: O_24  and  C_25
REMARK   13  A    between atoms: C_26  and  C_38
REMARK   14  A    between atoms: C_30  and  O_37
REMARK   15  A    between atoms: C_32  and  O_36
REMARK   16  A    between atoms: C_40  and  O_45
REMARK   17  A    between atoms: C_41  and  O_44
REMARK                            x       y       z     vdW  Elec       q    Type
REMARK                         _______ _______ _______ _____ _____    ______ ____
ROOT
ATOM      1  C   UNL     1       6.453  -4.226  24.532  0.00  0.00    +0.221 C 
ATOM      2  C   UNL     1       7.656  -4.751  23.725  0.00  0.00    +0.180 C 
ATOM      3  C   UNL     1       8.961  -4.714  24.537  0.00  0.00    +0.177 C 
ATOM      4  C   UNL     1       9.195  -3.344  25.176  0.00  0.00    +0.179 C 
ATOM      5  O   UNL     1       8.072  -2.971  25.985  0.00  0.00    -0.331 OA
ATOM      6  C   UNL     1       6.803  -2.936  25.329  0.00  0.00    +0.340 C 
ENDROOT
BRANCH   3   7
ATOM      7  O   UNL     1       8.925  -5.691  25.590  0.00  0.00    -0.386 OA
ATOM      8  H   UNL     1       9.746  -5.596  26.115  0.00  0.00    +0.210 HD
ENDBRANCH   3   7
BRANCH   2   9
ATOM      9  O   UNL     1       7.828  -4.049  22.488  0.00  0.00    -0.386 OA
ATOM     10  H   UNL     1       8.515  -4.470  21.944  0.00  0.00    +0.210 HD
ENDBRANCH   2   9
BRANCH   6  11
ATOM     11  O   UNL     1       6.579  -1.746  24.557  0.00  0.00    -0.453 OA
BRANCH  11  12
ATOM     12  C   UNL     1       5.969  -0.687  25.247  0.00  0.00    +0.214 A 
ATOM     13  C   UNL     1       4.685  -0.850  26.014  0.00  0.00    +0.238 A 
ATOM     14  O   UNL     1       3.983  -1.838  25.889  0.00  0.00    -0.283 OA
ATOM     15  C   UNL     1       4.253   0.280  26.860  0.00  0.00    +0.109 A 
ATOM     16  C   UNL     1       4.961   1.475  26.760  0.00  0.00    +0.147 A 
ATOM     17  C   UNL     1       4.591   2.585  27.527  0.00  0.00    +0.092 A 
ATOM     18  C   UNL     1       3.489   2.488  28.376  0.00  0.00    +0.124 A 
ATOM     19  C   UNL     1       2.758   1.313  28.470  0.00  0.00    +0.091 A 
ATOM     20  O   UNL     1       6.015   1.654  25.897  0.00  0.00    -0.451 OA
ATOM     21  C   UNL     1       3.142   0.206  27.717  0.00  0.00    +0.135 A 
ATOM     22  C   UNL     1       6.478   0.560  25.189  0.00  0.00    +0.181 A 
BRANCH  22  23
ATOM     23  C   UNL     1       7.605   0.875  24.289  0.00  0.00    +0.025 A 
ATOM     24  C   UNL     1       8.818   1.343  24.827  0.00  0.00    +0.015 A 
ATOM     25  C   UNL     1       9.834   1.812  23.987  0.00  0.00    +0.050 A 
ATOM     26  C   UNL     1       9.620   1.843  22.619  0.00  0.00    +0.158 A 
ATOM     27  C   UNL     1       8.433   1.360  22.076  0.00  0.00    +0.159 A 
ATOM     28  C   UNL     1       7.450   0.818  22.898  0.00  0.00    +0.060 A 
BRANCH  27  29
ATOM     29  O   UNL     1       8.243   1.488  20.728  0.00  0.00    -0.503 OA
ATOM     30  H   UNL     1       7.301   1.311  20.541  0.00  0.00    +0.292 HD
ENDBRANCH  27  29
BRANCH  26  31
ATOM     31  O   UNL     1      10.567   2.396  21.806  0.00  0.00    -0.503 OA
ATOM     32  H   UNL     1      11.088   2.978  22.394  0.00  0.00    +0.292 HD
ENDBRANCH  26  31
ENDBRANCH  22  23
BRANCH  21  33
ATOM     33  O   UNL     1       2.411  -0.943  27.830  0.00  0.00    -0.506 OA
ATOM     34  H   UNL     1       1.470  -0.736  27.954  0.00  0.00    +0.292 HD
ENDBRANCH  21  33
BRANCH  18  35
ATOM     35  O   UNL     1       3.077   3.540  29.138  0.00  0.00    -0.507 OA
ATOM     36  H   UNL     1       2.607   3.205  29.922  0.00  0.00    +0.292 HD
ENDBRANCH  18  35
ENDBRANCH  11  12
ENDBRANCH   6  11
BRANCH   4  37
ATOM     37  C   UNL     1       9.574  -2.226  24.207  0.00  0.00    +0.190 C 
BRANCH  37  38
ATOM     38  O   UNL     1      10.406  -2.619  23.123  0.00  0.00    -0.392 OA
ATOM     39  H   UNL     1       9.988  -2.297  22.293  0.00  0.00    +0.210 HD
ENDBRANCH  37  38
ENDBRANCH   4  37
BRANCH   1  40
ATOM     40  O   UNL     1       6.024  -5.293  25.412  0.00  0.00    -0.337 OA
BRANCH  40  44
ATOM     41  C   UNL     1       2.150  -5.638  27.103  0.00  0.00    +0.041 C 
ATOM     42  C   UNL     1       2.939  -6.846  26.594  0.00  0.00    +0.149 C 
ATOM     43  O   UNL     1       4.336  -6.535  26.440  0.00  0.00    -0.343 OA
ATOM     44  C   UNL     1       4.627  -5.636  25.360  0.00  0.00    +0.282 C 
ATOM     45  C   UNL     1       4.182  -6.250  24.013  0.00  0.00    +0.201 C 
ATOM     46  C   UNL     1       2.689  -6.579  24.077  0.00  0.00    +0.179 C 
ATOM     47  C   UNL     1       2.360  -7.444  25.301  0.00  0.00    +0.174 C 
BRANCH  47  48
ATOM     48  O   UNL     1       2.919  -8.753  25.074  0.00  0.00    -0.387 OA
ATOM     49  H   UNL     1       3.660  -8.628  24.439  0.00  0.00    +0.210 HD
ENDBRANCH  47  48
BRANCH  46  50
ATOM     50  O   UNL     1       2.317  -7.267  22.871  0.00  0.00    -0.386 OA
ATOM     51  H   UNL     1       2.372  -6.587  22.163  0.00  0.00    +0.210 HD
ENDBRANCH  46  50
BRANCH  45  52
ATOM     52  O   UNL     1       4.935  -7.443  23.722  0.00  0.00    -0.384 OA
ATOM     53  H   UNL     1       4.687  -8.091  24.408  0.00  0.00    +0.210 HD
ENDBRANCH  45  52
ENDBRANCH  40  44
ENDBRANCH   1  40
TORSDOF 16
ENDMDL
MODEL 7
REMARK VINA RESULT:      -6.5      2.171      6.017
REMARK  Name = 
REMARK  17 active torsions:
REMARK  status: ('A' for Active; 'I' for Inactive)
REMARK    1  A    between atoms: C_1  and  C_2
REMARK    2  A    between atoms: C_3  and  O_48
REMARK    3  A    between atoms: C_5  and  O_47
REMARK    4  A    between atoms: C_6  and  O_46
REMARK    5  A    between atoms: C_8  and  O_11
REMARK    6  A    between atoms: O_11  and  C_12
REMARK    7  A    between atoms: C_13  and  O_24
REMARK    8  A    between atoms: C_16  and  C_22
REMARK    9  A    between atoms: C_17  and  O_21
REMARK   10  A    between atoms: C_19  and  O_20
REMARK   11  A    between atoms: C_22  and  O_23
REMARK   12  A    between atoms: O_24  and  C_25
REMARK   13  A    between atoms: C_26  and  C_38
REMARK   14  A    between atoms: C_30  and  O_37
REMARK   15  A    between atoms: C_32  and  O_36
REMARK   16  A    between atoms: C_40  and  O_45
REMARK   17  A    between atoms: C_41  and  O_44
REMARK                            x       y       z     vdW  Elec       q    Type
REMARK                         _______ _______ _______ _____ _____    ______ ____
ROOT
ATOM      1  C   UNL     1       6.664  -3.114  24.867  0.00  0.00    +0.221 C 
ATOM      2  C   UNL     1       7.109  -3.765  23.542  0.00  0.00    +0.180 C 
ATOM      3  C   UNL     1       8.607  -3.560  23.269  0.00  0.00    +0.177 C 
ATOM      4  C   UNL     1       9.016  -2.092  23.403  0.00  0.00    +0.179 C 
ATOM      5  O   UNL     1       8.653  -1.589  24.695  0.00  0.00    -0.331 OA
ATOM      6  C   UNL     1       7.273  -1.694  25.052  0.00  0.00    +0.340 C 
ENDROOT
BRANCH   3   7
ATOM      7  O   UNL     1       9.396  -4.323  24.196  0.00  0.00    -0.386 OA
ATOM      8  H   UNL     1       9.048  -4.157  25.095  0.00  0.00    +0.210 HD
ENDBRANCH   3   7
BRANCH   2   9
ATOM      9  O   UNL     1       6.338  -3.304  22.426  0.00  0.00    -0.386 OA
ATOM     10  H   UNL     1       5.492  -2.928  22.722  0.00  0.00    +0.210 HD
ENDBRANCH   2   9
BRANCH   6  11
ATOM     11  O   UNL     1       6.444  -0.672  24.475  0.00  0.00    -0.453 OA
BRANCH  11  12
ATOM     12  C   UNL     1       5.958   0.288  25.377  0.00  0.00    +0.214 A 
ATOM     13  C   UNL     1       4.748   0.055  26.237  0.00  0.00    +0.238 A 
ATOM     14  O   UNL     1       3.987  -0.875  26.038  0.00  0.00    -0.283 OA
ATOM     15  C   UNL     1       4.458   1.054  27.285  0.00  0.00    +0.109 A 
ATOM     16  C   UNL     1       5.214   2.224  27.295  0.00  0.00    +0.147 A 
ATOM     17  C   UNL     1       4.977   3.213  28.255  0.00  0.00    +0.092 A 
ATOM     18  C   UNL     1       3.958   3.025  29.188  0.00  0.00    +0.124 A 
ATOM     19  C   UNL     1       3.180   1.878  29.177  0.00  0.00    +0.091 A 
ATOM     20  O   UNL     1       6.188   2.496  26.365  0.00  0.00    -0.451 OA
ATOM     21  C   UNL     1       3.431   0.888  28.231  0.00  0.00    +0.135 A 
ATOM     22  C   UNL     1       6.523   1.510  25.456  0.00  0.00    +0.181 A 
BRANCH  22  23
ATOM     23  C   UNL     1       7.575   1.920  24.503  0.00  0.00    +0.025 A 
ATOM     24  C   UNL     1       7.219   2.341  23.209  0.00  0.00    +0.015 A 
ATOM     25  C   UNL     1       8.201   2.563  22.239  0.00  0.00    +0.050 A 
ATOM     26  C   UNL     1       9.529   2.329  22.555  0.00  0.00    +0.158 A 
ATOM     27  C   UNL     1       9.893   1.935  23.838  0.00  0.00    +0.159 A 
ATOM     28  C   UNL     1       8.930   1.790  24.832  0.00  0.00    +0.060 A 
BRANCH  27  29
ATOM     29  O   UNL     1      11.208   1.642  24.072  0.00  0.00    -0.503 OA
ATOM     30  H   UNL     1      11.503   2.179  24.833  0.00  0.00    +0.292 HD
ENDBRANCH  27  29
BRANCH  26  31
ATOM     31  O   UNL     1      10.479   2.445  21.581  0.00  0.00    -0.503 OA
ATOM     32  H   UNL     1      11.310   2.612  22.065  0.00  0.00    +0.292 HD
ENDBRANCH  26  31
ENDBRANCH  22  23
BRANCH  21  33
ATOM     33  O   UNL     1       2.656  -0.237  28.243  0.00  0.00    -0.506 OA
ATOM     34  H   UNL     1       2.803  -0.742  29.059  0.00  0.00    +0.292 HD
ENDBRANCH  21  33
BRANCH  18  35
ATOM     35  O   UNL     1       3.676   3.960  30.139  0.00  0.00    -0.507 OA
ATOM     36  H   UNL     1       2.839   4.404  29.915  0.00  0.00    +0.292 HD
ENDBRANCH  18  35
ENDBRANCH  11  12
ENDBRANCH   6  11
BRANCH   4  37
ATOM     37  C   UNL     1       8.519  -1.171  22.291  0.00  0.00    +0.190 C 
BRANCH  37  38
ATOM     38  O   UNL     1       9.446  -0.933  21.241  0.00  0.00    -0.392 OA
ATOM     39  H   UNL     1       9.078  -0.220  20.672  0.00  0.00    +0.210 HD
ENDBRANCH  37  38
ENDBRANCH   4  37
BRANCH   1  40
ATOM     40  O   UNL     1       7.059  -4.003  25.940  0.00  0.00    -0.337 OA
BRANCH  40  44
ATOM     41  C   UNL     1       3.314  -3.747  27.913  0.00  0.00    +0.041 C 
ATOM     42  C   UNL     1       4.626  -4.000  28.661  0.00  0.00    +0.149 C 
ATOM     43  O   UNL     1       5.766  -3.657  27.852  0.00  0.00    -0.343 OA
ATOM     44  C   UNL     1       5.994  -4.540  26.744  0.00  0.00    +0.282 C 
ATOM     45  C   UNL     1       6.251  -5.980  27.246  0.00  0.00    +0.201 C 
ATOM     46  C   UNL     1       5.060  -6.440  28.090  0.00  0.00    +0.179 C 
ATOM     47  C   UNL     1       4.744  -5.434  29.204  0.00  0.00    +0.174 C 
BRANCH  47  48
ATOM     48  O   UNL     1       5.809  -5.504  30.172  0.00  0.00    -0.387 OA
ATOM     49  H   UNL     1       5.462  -6.036  30.923  0.00  0.00    +0.210 HD
ENDBRANCH  47  48
BRANCH  46  50
ATOM     50  O   UNL     1       5.367  -7.724  28.656  0.00  0.00    -0.386 OA
ATOM     51  H   UNL     1       4.501  -8.184  28.731  0.00  0.00    +0.210 HD
ENDBRANCH  46  50
BRANCH  45  52
ATOM     52  O   UNL     1       7.459  -6.040  28.027  0.00  0.00    -0.384 OA
ATOM     53  H   UNL     1       8.195  -5.988  27.388  0.00  0.00    +0.210 HD
ENDBRANCH  45  52
ENDBRANCH  40  44
ENDBRANCH   1  40
TORSDOF 16
ENDMDL
MODEL 8
REMARK VINA RESULT:      -6.4      2.407      7.939
REMARK  Name = 
REMARK  17 active torsions:
REMARK  status: ('A' for Active; 'I' for Inactive)
REMARK    1  A    between atoms: C_1  and  C_2
REMARK    2  A    between atoms: C_3  and  O_48
REMARK    3  A    between atoms: C_5  and  O_47
REMARK    4  A    between atoms: C_6  and  O_46
REMARK    5  A    between atoms: C_8  and  O_11
REMARK    6  A    between atoms: O_11  and  C_12
REMARK    7  A    between atoms: C_13  and  O_24
REMARK    8  A    between atoms: C_16  and  C_22
REMARK    9  A    between atoms: C_17  and  O_21
REMARK   10  A    between atoms: C_19  and  O_20
REMARK   11  A    between atoms: C_22  and  O_23
REMARK   12  A    between atoms: O_24  and  C_25
REMARK   13  A    between atoms: C_26  and  C_38
REMARK   14  A    between atoms: C_30  and  O_37
REMARK   15  A    between atoms: C_32  and  O_36
REMARK   16  A    between atoms: C_40  and  O_45
REMARK   17  A    between atoms: C_41  and  O_44
REMARK                            x       y       z     vdW  Elec       q    Type
REMARK                         _______ _______ _______ _____ _____    ______ ____
ROOT
ATOM      1  C   UNL     1       8.331   1.839  24.066  0.00  0.00    +0.221 C 
ATOM      2  C   UNL     1       9.743   1.861  23.447  0.00  0.00    +0.180 C 
ATOM      3  C   UNL     1       9.857   0.932  22.228  0.00  0.00    +0.177 C 
ATOM      4  C   UNL     1       9.338  -0.475  22.534  0.00  0.00    +0.179 C 
ATOM      5  O   UNL     1       7.989  -0.416  23.014  0.00  0.00    -0.331 OA
ATOM      6  C   UNL     1       7.762   0.394  24.169  0.00  0.00    +0.340 C 
ENDROOT
BRANCH   3   7
ATOM      7  O   UNL     1       9.096   1.452  21.126  0.00  0.00    -0.386 OA
ATOM      8  H   UNL     1       9.492   1.109  20.299  0.00  0.00    +0.210 HD
ENDBRANCH   3   7
BRANCH   2   9
ATOM      9  O   UNL     1      10.760   1.543  24.404  0.00  0.00    -0.386 OA
ATOM     10  H   UNL     1      10.428   1.653  25.311  0.00  0.00    +0.210 HD
ENDBRANCH   2   9
BRANCH   6  11
ATOM     11  O   UNL     1       8.123  -0.241  25.405  0.00  0.00    -0.453 OA
BRANCH  11  12
ATOM     12  C   UNL     1       7.077  -0.399  26.328  0.00  0.00    +0.214 A 
ATOM     13  C   UNL     1       6.500   0.751  27.107  0.00  0.00    +0.238 A 
ATOM     14  O   UNL     1       7.055   1.835  27.158  0.00  0.00    -0.283 OA
ATOM     15  C   UNL     1       5.276   0.494  27.890  0.00  0.00    +0.109 A 
ATOM     16  C   UNL     1       4.838  -0.825  27.997  0.00  0.00    +0.147 A 
ATOM     17  C   UNL     1       3.692  -1.134  28.737  0.00  0.00    +0.092 A 
ATOM     18  C   UNL     1       3.006  -0.108  29.387  0.00  0.00    +0.124 A 
ATOM     19  C   UNL     1       3.441   1.206  29.312  0.00  0.00    +0.091 A 
ATOM     20  O   UNL     1       5.505  -1.886  27.434  0.00  0.00    -0.451 OA
ATOM     21  C   UNL     1       4.573   1.510  28.559  0.00  0.00    +0.135 A 
ATOM     22  C   UNL     1       6.587  -1.622  26.616  0.00  0.00    +0.181 A 
BRANCH  22  23
ATOM     23  C   UNL     1       7.227  -2.838  26.075  0.00  0.00    +0.025 A 
ATOM     24  C   UNL     1       8.258  -3.465  26.799  0.00  0.00    +0.015 A 
ATOM     25  C   UNL     1       8.995  -4.508  26.227  0.00  0.00    +0.050 A 
ATOM     26  C   UNL     1       8.722  -4.895  24.926  0.00  0.00    +0.158 A 
ATOM     27  C   UNL     1       7.689  -4.297  24.210  0.00  0.00    +0.159 A 
ATOM     28  C   UNL     1       6.899  -3.315  24.799  0.00  0.00    +0.060 A 
BRANCH  27  29
ATOM     29  O   UNL     1       7.516  -4.662  22.904  0.00  0.00    -0.503 OA
ATOM     30  H   UNL     1       7.083  -3.918  22.441  0.00  0.00    +0.292 HD
ENDBRANCH  27  29
BRANCH  26  31
ATOM     31  O   UNL     1       9.507  -5.840  24.330  0.00  0.00    -0.503 OA
ATOM     32  H   UNL     1      10.370  -5.401  24.204  0.00  0.00    +0.292 HD
ENDBRANCH  26  31
ENDBRANCH  22  23
BRANCH  21  33
ATOM     33  O   UNL     1       4.981   2.813  28.493  0.00  0.00    -0.506 OA
ATOM     34  H   UNL     1       4.620   3.241  27.701  0.00  0.00    +0.292 HD
ENDBRANCH  21  33
BRANCH  18  35
ATOM     35  O   UNL     1       1.889  -0.352  30.130  0.00  0.00    -0.507 OA
ATOM     36  H   UNL     1       1.944  -1.249  30.506  0.00  0.00    +0.292 HD
ENDBRANCH  18  35
ENDBRANCH  11  12
ENDBRANCH   6  11
BRANCH   4  37
ATOM     37  C   UNL     1      10.219  -1.310  23.460  0.00  0.00    +0.190 C 
BRANCH  37  38
ATOM     38  O   UNL     1      10.456  -2.644  23.031  0.00  0.00    -0.392 OA
ATOM     39  H   UNL     1      10.866  -3.131  23.780  0.00  0.00    +0.210 HD
ENDBRANCH  37  38
ENDBRANCH   4  37
BRANCH   1  40
ATOM     40  O   UNL     1       7.487   2.684  23.247  0.00  0.00    -0.337 OA
BRANCH  40  44
ATOM     41  C   UNL     1       9.586   6.109  24.604  0.00  0.00    +0.041 C 
ATOM     42  C   UNL     1       8.058   6.035  24.576  0.00  0.00    +0.149 C 
ATOM     43  O   UNL     1       7.600   4.676  24.458  0.00  0.00    -0.343 OA
ATOM     44  C   UNL     1       7.853   4.074  23.181  0.00  0.00    +0.282 C 
ATOM     45  C   UNL     1       7.131   4.860  22.062  0.00  0.00    +0.201 C 
ATOM     46  C   UNL     1       7.592   6.319  22.092  0.00  0.00    +0.179 C 
ATOM     47  C   UNL     1       7.430   6.926  23.492  0.00  0.00    +0.174 C 
BRANCH  47  48
ATOM     48  O   UNL     1       6.019   7.080  23.741  0.00  0.00    -0.387 OA
ATOM     49  H   UNL     1       5.560   6.687  22.965  0.00  0.00    +0.210 HD
ENDBRANCH  47  48
BRANCH  46  50
ATOM     50  O   UNL     1       6.820   7.065  21.137  0.00  0.00    -0.386 OA
ATOM     51  H   UNL     1       6.846   7.994  21.458  0.00  0.00    +0.210 HD
ENDBRANCH  46  50
BRANCH  45  52
ATOM     52  O   UNL     1       5.702   4.793  22.232  0.00  0.00    -0.384 OA
ATOM     53  H   UNL     1       5.537   4.947  23.181  0.00  0.00    +0.210 HD
ENDBRANCH  45  52
ENDBRANCH  40  44
ENDBRANCH   1  40
TORSDOF 16
ENDMDL
MODEL 9
REMARK VINA RESULT:      -6.4      2.227      7.523
REMARK  Name = 
REMARK  17 active torsions:
REMARK  status: ('A' for Active; 'I' for Inactive)
REMARK    1  A    between atoms: C_1  and  C_2
REMARK    2  A    between atoms: C_3  and  O_48
REMARK    3  A    between atoms: C_5  and  O_47
REMARK    4  A    between atoms: C_6  and  O_46
REMARK    5  A    between atoms: C_8  and  O_11
REMARK    6  A    between atoms: O_11  and  C_12
REMARK    7  A    between atoms: C_13  and  O_24
REMARK    8  A    between atoms: C_16  and  C_22
REMARK    9  A    between atoms: C_17  and  O_21
REMARK   10  A    between atoms: C_19  and  O_20
REMARK   11  A    between atoms: C_22  and  O_23
REMARK   12  A    between atoms: O_24  and  C_25
REMARK   13  A    between atoms: C_26  and  C_38
REMARK   14  A    between atoms: C_30  and  O_37
REMARK   15  A    between atoms: C_32  and  O_36
REMARK   16  A    between atoms: C_40  and  O_45
REMARK   17  A    between atoms: C_41  and  O_44
REMARK                            x       y       z     vdW  Elec       q    Type
REMARK                         _______ _______ _______ _____ _____    ______ ____
ROOT
ATOM      1  C   UNL     1       8.794   0.848  23.462  0.00  0.00    +0.221 C 
ATOM      2  C   UNL     1      10.034  -0.026  23.191  0.00  0.00    +0.180 C 
ATOM      3  C   UNL     1       9.712  -1.226  22.287  0.00  0.00    +0.177 C 
ATOM      4  C   UNL     1       8.501  -2.012  22.793  0.00  0.00    +0.179 C 
ATOM      5  O   UNL     1       7.366  -1.147  22.927  0.00  0.00    -0.331 OA
ATOM      6  C   UNL     1       7.533  -0.008  23.774  0.00  0.00    +0.340 C 
ENDROOT
BRANCH   3   7
ATOM      7  O   UNL     1       9.425  -0.786  20.950  0.00  0.00    -0.386 OA
ATOM      8  H   UNL     1       9.105   0.138  21.000  0.00  0.00    +0.210 HD
ENDBRANCH   3   7
BRANCH   2   9
ATOM      9  O   UNL     1      10.656  -0.475  24.401  0.00  0.00    -0.386 OA
ATOM     10  H   UNL     1       9.994  -0.833  25.017  0.00  0.00    +0.210 HD
ENDBRANCH   2   9
BRANCH   6  11
ATOM     11  O   UNL     1       7.413  -0.302  25.175  0.00  0.00    -0.453 OA
BRANCH  11  12
ATOM     12  C   UNL     1       6.195   0.069  25.765  0.00  0.00    +0.214 A 
ATOM     13  C   UNL     1       5.875   1.489  26.142  0.00  0.00    +0.238 A 
ATOM     14  O   UNL     1       6.732   2.354  26.175  0.00  0.00    -0.283 OA
ATOM     15  C   UNL     1       4.492   1.783  26.566  0.00  0.00    +0.109 A 
ATOM     16  C   UNL     1       3.628   0.707  26.755  0.00  0.00    +0.147 A 
ATOM     17  C   UNL     1       2.308   0.921  27.169  0.00  0.00    +0.092 A 
ATOM     18  C   UNL     1       1.876   2.224  27.413  0.00  0.00    +0.124 A 
ATOM     19  C   UNL     1       2.730   3.305  27.254  0.00  0.00    +0.091 A 
ATOM     20  O   UNL     1       4.011  -0.602  26.593  0.00  0.00    -0.451 OA
ATOM     21  C   UNL     1       4.037   3.087  26.825  0.00  0.00    +0.135 A 
ATOM     22  C   UNL     1       5.274  -0.860  26.093  0.00  0.00    +0.181 A 
BRANCH  22  23
ATOM     23  C   UNL     1       5.577  -2.300  25.970  0.00  0.00    +0.025 A 
ATOM     24  C   UNL     1       5.045  -3.035  24.895  0.00  0.00    +0.015 A 
ATOM     25  C   UNL     1       5.172  -4.427  24.854  0.00  0.00    +0.050 A 
ATOM     26  C   UNL     1       5.797  -5.081  25.904  0.00  0.00    +0.158 A 
ATOM     27  C   UNL     1       6.346  -4.360  26.960  0.00  0.00    +0.159 A 
ATOM     28  C   UNL     1       6.296  -2.970  26.968  0.00  0.00    +0.060 A 
BRANCH  27  29
ATOM     29  O   UNL     1       6.881  -5.059  28.006  0.00  0.00    -0.503 OA
ATOM     30  H   UNL     1       7.839  -4.872  28.032  0.00  0.00    +0.292 HD
ENDBRANCH  27  29
BRANCH  26  31
ATOM     31  O   UNL     1       5.831  -6.445  25.918  0.00  0.00    -0.503 OA
ATOM     32  H   UNL     1       5.946  -6.680  26.859  0.00  0.00    +0.292 HD
ENDBRANCH  26  31
ENDBRANCH  22  23
BRANCH  21  33
ATOM     33  O   UNL     1       4.859   4.168  26.668  0.00  0.00    -0.506 OA
ATOM     34  H   UNL     1       4.342   4.989  26.671  0.00  0.00    +0.292 HD
ENDBRANCH  21  33
BRANCH  18  35
ATOM     35  O   UNL     1       0.605   2.490  27.828  0.00  0.00    -0.507 OA
ATOM     36  H   UNL     1       0.637   3.044  28.629  0.00  0.00    +0.292 HD
ENDBRANCH  18  35
ENDBRANCH  11  12
ENDBRANCH   6  11
BRANCH   4  37
ATOM     37  C   UNL     1       8.732  -2.823  24.066  0.00  0.00    +0.190 C 
BRANCH  37  38
ATOM     38  O   UNL     1      10.012  -3.430  24.173  0.00  0.00    -0.392 OA
ATOM     39  H   UNL     1       9.886  -4.404  24.124  0.00  0.00    +0.210 HD
ENDBRANCH  37  38
ENDBRANCH   4  37
BRANCH   1  40
ATOM     40  O   UNL     1       8.591   1.684  22.296  0.00  0.00    -0.337 OA
BRANCH  40  44
ATOM     41  C   UNL     1      10.125   5.365  23.738  0.00  0.00    +0.041 C 
ATOM     42  C   UNL     1       8.843   4.735  24.285  0.00  0.00    +0.149 C 
ATOM     43  O   UNL     1       8.748   3.343  23.930  0.00  0.00    -0.343 OA
ATOM     44  C   UNL     1       8.512   3.101  22.536  0.00  0.00    +0.282 C 
ATOM     45  C   UNL     1       7.174   3.738  22.097  0.00  0.00    +0.201 C 
ATOM     46  C   UNL     1       7.204   5.237  22.405  0.00  0.00    +0.179 C 
ATOM     47  C   UNL     1       7.573   5.498  23.872  0.00  0.00    +0.174 C 
BRANCH  47  48
ATOM     48  O   UNL     1       6.461   5.073  24.684  0.00  0.00    -0.387 OA
ATOM     49  H   UNL     1       5.941   4.448  24.131  0.00  0.00    +0.210 HD
ENDBRANCH  47  48
BRANCH  46  50
ATOM     50  O   UNL     1       5.910   5.792  22.115  0.00  0.00    -0.386 OA
ATOM     51  H   UNL     1       5.465   5.870  22.989  0.00  0.00    +0.210 HD
ENDBRANCH  46  50
BRANCH  45  52
ATOM     52  O   UNL     1       6.066   3.119  22.778  0.00  0.00    -0.384 OA
ATOM     53  H   UNL     1       5.310   3.172  22.163  0.00  0.00    +0.210 HD
ENDBRANCH  45  52
ENDBRANCH  40  44
ENDBRANCH   1  40
TORSDOF 16
ENDMDL
