MODEL 1
REMARK VINA RESULT:      -7.3      0.000      0.000
REMARK  Name = 
REMARK  11 active torsions:
REMARK  status: ('A' for Active; 'I' for Inactive)
REMARK    1  A    between atoms: C_3  and  O_35
REMARK    2  A    between atoms: C_4  and  O_34
REMARK    3  A    between atoms: C_6  and  C_7
REMARK    4  A    between atoms: C_8  and  O_20
REMARK    5  A    between atoms: C_12  and  O_19
REMARK    6  A    between atoms: C_14  and  O_18
REMARK    7  A    between atoms: O_20  and  C_21
REMARK    8  A    between atoms: C_23  and  O_33
REMARK    9  A    between atoms: C_25  and  O_32
REMARK   10  A    between atoms: C_27  and  C_30
REMARK   11  A    between atoms: C_30  and  O_31
REMARK                            x       y       z     vdW  Elec       q    Type
REMARK                         _______ _______ _______ _____ _____    ______ ____
ROOT
ATOM      1  C   UNL     1       7.519  -2.937  23.696  0.00  0.00    +0.181 A 
ATOM      2  O   UNL     1       6.531  -3.627  22.967  0.00  0.00    -0.451 OA
ATOM      3  C   UNL     1       5.798  -4.619  23.557  0.00  0.00    +0.147 A 
ATOM      4  C   UNL     1       6.116  -5.129  24.797  0.00  0.00    +0.109 A 
ATOM      5  C   UNL     1       5.370  -6.176  25.362  0.00  0.00    +0.135 A 
ATOM      6  C   UNL     1       4.295  -6.718  24.675  0.00  0.00    +0.091 A 
ATOM      7  C   UNL     1       3.977  -6.203  23.424  0.00  0.00    +0.124 A 
ATOM      8  C   UNL     1       7.272  -4.582  25.469  0.00  0.00    +0.238 A 
ATOM      9  O   UNL     1       7.673  -5.223  26.445  0.00  0.00    -0.283 OA
ATOM     10  C   UNL     1       4.715  -5.159  22.860  0.00  0.00    +0.092 A 
ATOM     11  C   UNL     1       7.906  -3.317  24.945  0.00  0.00    +0.214 A 
ENDROOT
BRANCH   1  13
ATOM     12  C   UNL     1       9.257  -1.694  22.258  0.00  0.00    +0.015 A 
ATOM     13  C   UNL     1       8.014  -1.739  22.915  0.00  0.00    +0.025 A 
ATOM     14  C   UNL     1       7.226  -0.563  22.840  0.00  0.00    +0.060 A 
ATOM     15  C   UNL     1       7.717   0.600  22.246  0.00  0.00    +0.159 A 
ATOM     16  C   UNL     1       9.000   0.642  21.726  0.00  0.00    +0.158 A 
ATOM     17  C   UNL     1       9.762  -0.511  21.692  0.00  0.00    +0.050 A 
BRANCH  15  18
ATOM     18  O   UNL     1       6.932   1.718  22.196  0.00  0.00    -0.503 OA
ATOM     19  H   UNL     1       7.354   2.345  22.818  0.00  0.00    +0.292 HD
ENDBRANCH  15  18
BRANCH  16  20
ATOM     20  O   UNL     1       9.480   1.839  21.275  0.00  0.00    -0.503 OA
ATOM     21  H   UNL     1       9.611   1.757  20.313  0.00  0.00    +0.292 HD
ENDBRANCH  16  20
ENDBRANCH   1  13
BRANCH   5  22
ATOM     22  O   UNL     1       5.649  -6.726  26.587  0.00  0.00    -0.506 OA
ATOM     23  H   UNL     1       4.824  -6.687  27.123  0.00  0.00    +0.292 HD
ENDBRANCH   5  22
BRANCH   7  24
ATOM     24  O   UNL     1       2.934  -6.714  22.708  0.00  0.00    -0.507 OA
ATOM     25  H   UNL     1       2.198  -6.904  23.317  0.00  0.00    +0.292 HD
ENDBRANCH   7  24
BRANCH  11  26
ATOM     26  O   UNL     1       8.846  -2.611  25.724  0.00  0.00    -0.453 OA
BRANCH  26  27
ATOM     27  C   UNL     1       8.299  -1.525  26.474  0.00  0.00    +0.340 C 
ATOM     28  O   UNL     1       6.894  -1.688  26.723  0.00  0.00    -0.331 OA
ATOM     29  C   UNL     1       6.439  -0.437  27.285  0.00  0.00    +0.179 C 
ATOM     30  C   UNL     1       7.508   0.612  26.926  0.00  0.00    +0.180 C 
ATOM     31  C   UNL     1       8.410  -0.109  25.906  0.00  0.00    +0.214 C 
BRANCH  30  32
ATOM     32  O   UNL     1       7.019   1.863  26.470  0.00  0.00    -0.386 OA
ATOM     33  H   UNL     1       7.720   2.525  26.644  0.00  0.00    +0.210 HD
ENDBRANCH  30  32
BRANCH  31  34
ATOM     34  O   UNL     1       9.747   0.402  25.913  0.00  0.00    -0.383 OA
ATOM     35  H   UNL     1       9.709   1.379  25.852  0.00  0.00    +0.210 HD
ENDBRANCH  31  34
BRANCH  29  36
ATOM     36  C   UNL     1       5.007  -0.141  26.848  0.00  0.00    +0.190 C 
BRANCH  36  37
ATOM     37  O   UNL     1       4.932   0.028  25.432  0.00  0.00    -0.392 OA
ATOM     38  H   UNL     1       5.799   0.379  25.153  0.00  0.00    +0.210 HD
ENDBRANCH  36  37
ENDBRANCH  29  36
ENDBRANCH  26  27
ENDBRANCH  11  26
TORSDOF 11
ENDMDL
MODEL 2
REMARK VINA RESULT:      -7.2      2.229      6.836
REMARK  Name = 
REMARK  11 active torsions:
REMARK  status: ('A' for Active; 'I' for Inactive)
REMARK    1  A    between atoms: C_3  and  O_35
REMARK    2  A    between atoms: C_4  and  O_34
REMARK    3  A    between atoms: C_6  and  C_7
REMARK    4  A    between atoms: C_8  and  O_20
REMARK    5  A    between atoms: C_12  and  O_19
REMARK    6  A    between atoms: C_14  and  O_18
REMARK    7  A    between atoms: O_20  and  C_21
REMARK    8  A    between atoms: C_23  and  O_33
REMARK    9  A    between atoms: C_25  and  O_32
REMARK   10  A    between atoms: C_27  and  C_30
REMARK   11  A    between atoms: C_30  and  O_31
REMARK                            x       y       z     vdW  Elec       q    Type
REMARK                         _______ _______ _______ _____ _____    ______ ____
ROOT
ATOM      1  C   UNL     1       6.957  -2.210  25.098  0.00  0.00    +0.181 A 
ATOM      2  O   UNL     1       6.940  -0.906  24.568  0.00  0.00    -0.451 OA
ATOM      3  C   UNL     1       7.838  -0.534  23.607  0.00  0.00    +0.147 A 
ATOM      4  C   UNL     1       8.913  -1.323  23.262  0.00  0.00    +0.109 A 
ATOM      5  C   UNL     1       9.844  -0.899  22.301  0.00  0.00    +0.135 A 
ATOM      6  C   UNL     1       9.696   0.332  21.678  0.00  0.00    +0.091 A 
ATOM      7  C   UNL     1       8.611   1.127  22.029  0.00  0.00    +0.124 A 
ATOM      8  C   UNL     1       9.075  -2.577  23.962  0.00  0.00    +0.238 A 
ATOM      9  O   UNL     1      10.167  -3.132  23.813  0.00  0.00    -0.283 OA
ATOM     10  C   UNL     1       7.681   0.706  22.984  0.00  0.00    +0.092 A 
ATOM     11  C   UNL     1       7.946  -3.103  24.813  0.00  0.00    +0.214 A 
ENDROOT
BRANCH   1  13
ATOM     12  C   UNL     1       5.784  -2.812  27.309  0.00  0.00    +0.015 A 
ATOM     13  C   UNL     1       5.731  -2.452  25.951  0.00  0.00    +0.025 A 
ATOM     14  C   UNL     1       4.436  -2.350  25.383  0.00  0.00    +0.060 A 
ATOM     15  C   UNL     1       3.298  -2.702  26.108  0.00  0.00    +0.159 A 
ATOM     16  C   UNL     1       3.404  -3.180  27.404  0.00  0.00    +0.158 A 
ATOM     17  C   UNL     1       4.639  -3.199  28.026  0.00  0.00    +0.050 A 
BRANCH  15  18
ATOM     18  O   UNL     1       2.065  -2.597  25.527  0.00  0.00    -0.503 OA
ATOM     19  H   UNL     1       1.897  -1.635  25.475  0.00  0.00    +0.292 HD
ENDBRANCH  15  18
BRANCH  16  20
ATOM     20  O   UNL     1       2.275  -3.633  28.025  0.00  0.00    -0.503 OA
ATOM     21  H   UNL     1       1.769  -4.149  27.371  0.00  0.00    +0.292 HD
ENDBRANCH  16  20
ENDBRANCH   1  13
BRANCH   5  22
ATOM     22  O   UNL     1      10.936  -1.641  21.927  0.00  0.00    -0.506 OA
ATOM     23  H   UNL     1      10.925  -2.470  22.456  0.00  0.00    +0.292 HD
ENDBRANCH   5  22
BRANCH   7  24
ATOM     24  O   UNL     1       8.432   2.350  21.451  0.00  0.00    -0.507 OA
ATOM     25  H   UNL     1       8.779   2.321  20.542  0.00  0.00    +0.292 HD
ENDBRANCH   7  24
BRANCH  11  26
ATOM     26  O   UNL     1       7.958  -4.434  25.277  0.00  0.00    -0.453 OA
BRANCH  26  27
ATOM     27  C   UNL     1       7.308  -5.369  24.414  0.00  0.00    +0.340 C 
ATOM     28  O   UNL     1       7.570  -5.103  23.027  0.00  0.00    -0.331 OA
ATOM     29  C   UNL     1       6.689  -5.972  22.280  0.00  0.00    +0.179 C 
ATOM     30  C   UNL     1       5.584  -6.413  23.258  0.00  0.00    +0.180 C 
ATOM     31  C   UNL     1       5.786  -5.501  24.484  0.00  0.00    +0.214 C 
BRANCH  30  32
ATOM     32  O   UNL     1       4.262  -6.395  22.746  0.00  0.00    -0.386 OA
ATOM     33  H   UNL     1       4.106  -7.267  22.327  0.00  0.00    +0.210 HD
ENDBRANCH  30  32
BRANCH  31  34
ATOM     34  O   UNL     1       5.325  -6.113  25.692  0.00  0.00    -0.383 OA
ATOM     35  H   UNL     1       6.083  -6.549  26.131  0.00  0.00    +0.210 HD
ENDBRANCH  31  34
BRANCH  29  36
ATOM     36  C   UNL     1       6.239  -5.297  20.987  0.00  0.00    +0.190 C 
BRANCH  36  37
ATOM     37  O   UNL     1       5.543  -4.081  21.265  0.00  0.00    -0.392 OA
ATOM     38  H   UNL     1       4.712  -4.336  21.709  0.00  0.00    +0.210 HD
ENDBRANCH  36  37
ENDBRANCH  29  36
ENDBRANCH  26  27
ENDBRANCH  11  26
TORSDOF 11
ENDMDL
MODEL 3
REMARK VINA RESULT:      -7.1      1.732      2.045
REMARK  Name = 
REMARK  11 active torsions:
REMARK  status: ('A' for Active; 'I' for Inactive)
REMARK    1  A    between atoms: C_3  and  O_35
REMARK    2  A    between atoms: C_4  and  O_34
REMARK    3  A    between atoms: C_6  and  C_7
REMARK    4  A    between atoms: C_8  and  O_20
REMARK    5  A    between atoms: C_12  and  O_19
REMARK    6  A    between atoms: C_14  and  O_18
REMARK    7  A    between atoms: O_20  and  C_21
REMARK    8  A    between atoms: C_23  and  O_33
REMARK    9  A    between atoms: C_25  and  O_32
REMARK   10  A    between atoms: C_27  and  C_30
REMARK   11  A    between atoms: C_30  and  O_31
REMARK                            x       y       z     vdW  Elec       q    Type
REMARK                         _______ _______ _______ _____ _____    ______ ____
ROOT
ATOM      1  C   UNL     1       8.517  -1.894  24.215  0.00  0.00    +0.181 A 
ATOM      2  O   UNL     1       8.173  -2.661  23.086  0.00  0.00    -0.451 OA
ATOM      3  C   UNL     1       7.337  -3.736  23.204  0.00  0.00    +0.147 A 
ATOM      4  C   UNL     1       6.960  -4.242  24.428  0.00  0.00    +0.109 A 
ATOM      5  C   UNL     1       6.132  -5.373  24.521  0.00  0.00    +0.135 A 
ATOM      6  C   UNL     1       5.679  -6.004  23.372  0.00  0.00    +0.091 A 
ATOM      7  C   UNL     1       6.062  -5.492  22.138  0.00  0.00    +0.124 A 
ATOM      8  C   UNL     1       7.487  -3.599  25.609  0.00  0.00    +0.238 A 
ATOM      9  O   UNL     1       7.337  -4.221  26.665  0.00  0.00    -0.283 OA
ATOM     10  C   UNL     1       6.884  -4.365  22.043  0.00  0.00    +0.092 A 
ATOM     11  C   UNL     1       8.178  -2.264  25.482  0.00  0.00    +0.214 A 
ENDROOT
BRANCH   1  13
ATOM     12  C   UNL     1      10.285  -0.051  24.542  0.00  0.00    +0.015 A 
ATOM     13  C   UNL     1       9.242  -0.633  23.799  0.00  0.00    +0.025 A 
ATOM     14  C   UNL     1       8.862   0.050  22.617  0.00  0.00    +0.060 A 
ATOM     15  C   UNL     1       9.419   1.285  22.284  0.00  0.00    +0.159 A 
ATOM     16  C   UNL     1      10.350   1.888  23.113  0.00  0.00    +0.158 A 
ATOM     17  C   UNL     1      10.818   1.209  24.223  0.00  0.00    +0.050 A 
BRANCH  15  18
ATOM     18  O   UNL     1       9.025   1.919  21.139  0.00  0.00    -0.503 OA
ATOM     19  H   UNL     1       9.231   2.864  21.295  0.00  0.00    +0.292 HD
ENDBRANCH  15  18
BRANCH  16  20
ATOM     20  O   UNL     1      10.767   3.154  22.812  0.00  0.00    -0.503 OA
ATOM     21  H   UNL     1      10.295   3.433  22.007  0.00  0.00    +0.292 HD
ENDBRANCH  16  20
ENDBRANCH   1  13
BRANCH   5  22
ATOM     22  O   UNL     1       5.734  -5.922  25.713  0.00  0.00    -0.506 OA
ATOM     23  H   UNL     1       5.807  -5.221  26.400  0.00  0.00    +0.292 HD
ENDBRANCH   5  22
BRANCH   7  24
ATOM     24  O   UNL     1       5.649  -6.088  20.981  0.00  0.00    -0.507 OA
ATOM     25  H   UNL     1       5.583  -7.048  21.130  0.00  0.00    +0.292 HD
ENDBRANCH   7  24
BRANCH  11  26
ATOM     26  O   UNL     1       8.452  -1.486  26.625  0.00  0.00    -0.453 OA
BRANCH  26  27
ATOM     27  C   UNL     1       7.346  -0.716  27.099  0.00  0.00    +0.340 C 
ATOM     28  O   UNL     1       6.387  -0.446  26.063  0.00  0.00    -0.331 OA
ATOM     29  C   UNL     1       5.456   0.508  26.619  0.00  0.00    +0.179 C 
ATOM     30  C   UNL     1       6.158   1.139  27.837  0.00  0.00    +0.180 C 
ATOM     31  C   UNL     1       7.616   0.657  27.717  0.00  0.00    +0.214 C 
BRANCH  30  32
ATOM     32  O   UNL     1       6.031   2.546  27.964  0.00  0.00    -0.386 OA
ATOM     33  H   UNL     1       5.936   2.739  28.919  0.00  0.00    +0.210 HD
ENDBRANCH  30  32
BRANCH  31  34
ATOM     34  O   UNL     1       8.266   0.587  28.990  0.00  0.00    -0.383 OA
ATOM     35  H   UNL     1       8.020   1.379  29.511  0.00  0.00    +0.210 HD
ENDBRANCH  31  34
BRANCH  29  36
ATOM     36  C   UNL     1       4.957   1.464  25.538  0.00  0.00    +0.190 C 
BRANCH  36  37
ATOM     37  O   UNL     1       5.289   0.977  24.237  0.00  0.00    -0.392 OA
ATOM     38  H   UNL     1       5.400   0.012  24.326  0.00  0.00    +0.210 HD
ENDBRANCH  36  37
ENDBRANCH  29  36
ENDBRANCH  26  27
ENDBRANCH  11  26
TORSDOF 11
ENDMDL
MODEL 4
REMARK VINA RESULT:      -7.1      2.347      4.110
REMARK  Name = 
REMARK  11 active torsions:
REMARK  status: ('A' for Active; 'I' for Inactive)
REMARK    1  A    between atoms: C_3  and  O_35
REMARK    2  A    between atoms: C_4  and  O_34
REMARK    3  A    between atoms: C_6  and  C_7
REMARK    4  A    between atoms: C_8  and  O_20
REMARK    5  A    between atoms: C_12  and  O_19
REMARK    6  A    between atoms: C_14  and  O_18
REMARK    7  A    between atoms: O_20  and  C_21
REMARK    8  A    between atoms: C_23  and  O_33
REMARK    9  A    between atoms: C_25  and  O_32
REMARK   10  A    between atoms: C_27  and  C_30
REMARK   11  A    between atoms: C_30  and  O_31
REMARK                            x       y       z     vdW  Elec       q    Type
REMARK                         _______ _______ _______ _____ _____    ______ ____
ROOT
ATOM      1  C   UNL     1       6.952  -0.782  23.961  0.00  0.00    +0.181 A 
ATOM      2  O   UNL     1       6.173  -1.665  23.190  0.00  0.00    -0.451 OA
ATOM      3  C   UNL     1       6.467  -3.000  23.152  0.00  0.00    +0.147 A 
ATOM      4  C   UNL     1       7.633  -3.510  23.680  0.00  0.00    +0.109 A 
ATOM      5  C   UNL     1       7.929  -4.880  23.591  0.00  0.00    +0.135 A 
ATOM      6  C   UNL     1       7.048  -5.747  22.963  0.00  0.00    +0.091 A 
ATOM      7  C   UNL     1       5.874  -5.230  22.429  0.00  0.00    +0.124 A 
ATOM      8  C   UNL     1       8.558  -2.579  24.282  0.00  0.00    +0.238 A 
ATOM      9  O   UNL     1       9.686  -3.025  24.515  0.00  0.00    -0.283 OA
ATOM     10  C   UNL     1       5.574  -3.867  22.519  0.00  0.00    +0.092 A 
ATOM     11  C   UNL     1       8.111  -1.166  24.565  0.00  0.00    +0.214 A 
ENDROOT
BRANCH   1  13
ATOM     12  C   UNL     1       5.536   1.015  25.142  0.00  0.00    +0.015 A 
ATOM     13  C   UNL     1       6.292   0.577  24.040  0.00  0.00    +0.025 A 
ATOM     14  C   UNL     1       6.390   1.480  22.952  0.00  0.00    +0.060 A 
ATOM     15  C   UNL     1       5.678   2.680  22.941  0.00  0.00    +0.159 A 
ATOM     16  C   UNL     1       4.838   3.014  23.991  0.00  0.00    +0.158 A 
ATOM     17  C   UNL     1       4.793   2.207  25.113  0.00  0.00    +0.050 A 
BRANCH  15  18
ATOM     18  O   UNL     1       5.790   3.526  21.873  0.00  0.00    -0.503 OA
ATOM     19  H   UNL     1       6.290   4.294  22.217  0.00  0.00    +0.292 HD
ENDBRANCH  15  18
BRANCH  16  20
ATOM     20  O   UNL     1       4.064   4.134  23.875  0.00  0.00    -0.503 OA
ATOM     21  H   UNL     1       4.358   4.765  24.557  0.00  0.00    +0.292 HD
ENDBRANCH  16  20
ENDBRANCH   1  13
BRANCH   5  22
ATOM     22  O   UNL     1       9.078  -5.438  24.092  0.00  0.00    -0.506 OA
ATOM     23  H   UNL     1       9.743  -4.717  24.179  0.00  0.00    +0.292 HD
ENDBRANCH   5  22
BRANCH   7  24
ATOM     24  O   UNL     1       4.983  -6.044  21.792  0.00  0.00    -0.507 OA
ATOM     25  H   UNL     1       5.053  -5.895  20.833  0.00  0.00    +0.292 HD
ENDBRANCH   7  24
BRANCH  11  26
ATOM     26  O   UNL     1       8.880  -0.323  25.394  0.00  0.00    -0.453 OA
BRANCH  26  27
ATOM     27  C   UNL     1       9.660   0.647  24.694  0.00  0.00    +0.340 C 
ATOM     28  O   UNL     1       9.195   1.988  24.921  0.00  0.00    -0.331 OA
ATOM     29  C   UNL     1       9.922   2.826  23.995  0.00  0.00    +0.179 C 
ATOM     30  C   UNL     1      10.478   1.888  22.908  0.00  0.00    +0.180 C 
ATOM     31  C   UNL     1       9.765   0.547  23.171  0.00  0.00    +0.214 C 
BRANCH  30  32
ATOM     32  O   UNL     1      10.353   2.347  21.572  0.00  0.00    -0.386 OA
ATOM     33  H   UNL     1       9.652   3.031  21.569  0.00  0.00    +0.210 HD
ENDBRANCH  30  32
BRANCH  31  34
ATOM     34  O   UNL     1      10.540  -0.571  22.728  0.00  0.00    -0.383 OA
ATOM     35  H   UNL     1      11.144  -0.839  23.451  0.00  0.00    +0.210 HD
ENDBRANCH  31  34
BRANCH  29  36
ATOM     36  C   UNL     1       9.050   3.988  23.525  0.00  0.00    +0.190 C 
BRANCH  36  37
ATOM     37  O   UNL     1       9.856   5.082  23.086  0.00  0.00    -0.392 OA
ATOM     38  H   UNL     1       9.645   5.831  23.674  0.00  0.00    +0.210 HD
ENDBRANCH  36  37
ENDBRANCH  29  36
ENDBRANCH  26  27
ENDBRANCH  11  26
TORSDOF 11
ENDMDL
MODEL 5
REMARK VINA RESULT:      -7.1      2.059      7.139
REMARK  Name = 
REMARK  11 active torsions:
REMARK  status: ('A' for Active; 'I' for Inactive)
REMARK    1  A    between atoms: C_3  and  O_35
REMARK    2  A    between atoms: C_4  and  O_34
REMARK    3  A    between atoms: C_6  and  C_7
REMARK    4  A    between atoms: C_8  and  O_20
REMARK    5  A    between atoms: C_12  and  O_19
REMARK    6  A    between atoms: C_14  and  O_18
REMARK    7  A    between atoms: O_20  and  C_21
REMARK    8  A    between atoms: C_23  and  O_33
REMARK    9  A    between atoms: C_25  and  O_32
REMARK   10  A    between atoms: C_27  and  C_30
REMARK   11  A    between atoms: C_30  and  O_31
REMARK                            x       y       z     vdW  Elec       q    Type
REMARK                         _______ _______ _______ _____ _____    ______ ____
ROOT
ATOM      1  C   UNL     1       8.515  -1.828  24.544  0.00  0.00    +0.181 A 
ATOM      2  O   UNL     1       8.562  -0.597  25.227  0.00  0.00    -0.451 OA
ATOM      3  C   UNL     1       8.552   0.583  24.535  0.00  0.00    +0.147 A 
ATOM      4  C   UNL     1       8.703   0.633  23.167  0.00  0.00    +0.109 A 
ATOM      5  C   UNL     1       8.731   1.861  22.486  0.00  0.00    +0.135 A 
ATOM      6  C   UNL     1       8.607   3.051  23.186  0.00  0.00    +0.091 A 
ATOM      7  C   UNL     1       8.457   2.998  24.567  0.00  0.00    +0.124 A 
ATOM      8  C   UNL     1       8.883  -0.618  22.467  0.00  0.00    +0.238 A 
ATOM      9  O   UNL     1       9.262  -0.523  21.296  0.00  0.00    -0.283 OA
ATOM     10  C   UNL     1       8.426   1.777  25.247  0.00  0.00    +0.092 A 
ATOM     11  C   UNL     1       8.621  -1.917  23.189  0.00  0.00    +0.214 A 
ENDROOT
BRANCH   1  13
ATOM     12  C   UNL     1       9.155  -4.066  25.643  0.00  0.00    +0.015 A 
ATOM     13  C   UNL     1       8.289  -2.964  25.516  0.00  0.00    +0.025 A 
ATOM     14  C   UNL     1       7.139  -2.977  26.343  0.00  0.00    +0.060 A 
ATOM     15  C   UNL     1       6.836  -4.077  27.146  0.00  0.00    +0.159 A 
ATOM     16  C   UNL     1       7.647  -5.200  27.142  0.00  0.00    +0.158 A 
ATOM     17  C   UNL     1       8.829  -5.187  26.425  0.00  0.00    +0.050 A 
BRANCH  15  18
ATOM     18  O   UNL     1       5.715  -4.058  27.927  0.00  0.00    -0.503 OA
ATOM     19  H   UNL     1       6.018  -4.370  28.804  0.00  0.00    +0.292 HD
ENDBRANCH  15  18
BRANCH  16  20
ATOM     20  O   UNL     1       7.239  -6.300  27.843  0.00  0.00    -0.503 OA
ATOM     21  H   UNL     1       7.857  -7.024  27.637  0.00  0.00    +0.292 HD
ENDBRANCH  16  20
ENDBRANCH   1  13
BRANCH   5  22
ATOM     22  O   UNL     1       8.887   1.968  21.127  0.00  0.00    -0.506 OA
ATOM     23  H   UNL     1       8.133   2.500  20.784  0.00  0.00    +0.292 HD
ENDBRANCH   5  22
BRANCH   7  24
ATOM     24  O   UNL     1       8.343   4.145  25.297  0.00  0.00    -0.507 OA
ATOM     25  H   UNL     1       7.926   4.829  24.743  0.00  0.00    +0.292 HD
ENDBRANCH   7  24
BRANCH  11  26
ATOM     26  O   UNL     1       8.514  -3.126  22.472  0.00  0.00    -0.453 OA
BRANCH  26  27
ATOM     27  C   UNL     1       7.174  -3.568  22.249  0.00  0.00    +0.340 C 
ATOM     28  O   UNL     1       6.236  -2.931  23.132  0.00  0.00    -0.331 OA
ATOM     29  C   UNL     1       4.981  -3.623  22.949  0.00  0.00    +0.179 C 
ATOM     30  C   UNL     1       5.323  -4.972  22.288  0.00  0.00    +0.180 C 
ATOM     31  C   UNL     1       6.858  -5.058  22.390  0.00  0.00    +0.214 C 
BRANCH  30  32
ATOM     32  O   UNL     1       4.652  -6.105  22.812  0.00  0.00    -0.386 OA
ATOM     33  H   UNL     1       3.721  -5.841  22.968  0.00  0.00    +0.210 HD
ENDBRANCH  30  32
BRANCH  31  34
ATOM     34  O   UNL     1       7.422  -5.859  21.347  0.00  0.00    -0.383 OA
ATOM     35  H   UNL     1       8.394  -5.730  21.345  0.00  0.00    +0.210 HD
ENDBRANCH  31  34
BRANCH  29  36
ATOM     36  C   UNL     1       4.200  -3.675  24.260  0.00  0.00    +0.190 C 
BRANCH  36  37
ATOM     37  O   UNL     1       2.970  -4.381  24.091  0.00  0.00    -0.392 OA
ATOM     38  H   UNL     1       2.259  -3.724  24.211  0.00  0.00    +0.210 HD
ENDBRANCH  36  37
ENDBRANCH  29  36
ENDBRANCH  26  27
ENDBRANCH  11  26
TORSDOF 11
ENDMDL
MODEL 6
REMARK VINA RESULT:      -7.0      2.064      4.409
REMARK  Name = 
REMARK  11 active torsions:
REMARK  status: ('A' for Active; 'I' for Inactive)
REMARK    1  A    between atoms: C_3  and  O_35
REMARK    2  A    between atoms: C_4  and  O_34
REMARK    3  A    between atoms: C_6  and  C_7
REMARK    4  A    between atoms: C_8  and  O_20
REMARK    5  A    between atoms: C_12  and  O_19
REMARK    6  A    between atoms: C_14  and  O_18
REMARK    7  A    between atoms: O_20  and  C_21
REMARK    8  A    between atoms: C_23  and  O_33
REMARK    9  A    between atoms: C_25  and  O_32
REMARK   10  A    between atoms: C_27  and  C_30
REMARK   11  A    between atoms: C_30  and  O_31
REMARK                            x       y       z     vdW  Elec       q    Type
REMARK                         _______ _______ _______ _____ _____    ______ ____
ROOT
ATOM      1  C   UNL     1       7.070  -1.467  24.829  0.00  0.00    +0.181 A 
ATOM      2  O   UNL     1       5.781  -1.963  24.553  0.00  0.00    -0.451 OA
ATOM      3  C   UNL     1       5.619  -3.147  23.889  0.00  0.00    +0.147 A 
ATOM      4  C   UNL     1       6.671  -3.800  23.285  0.00  0.00    +0.109 A 
ATOM      5  C   UNL     1       6.469  -4.994  22.575  0.00  0.00    +0.135 A 
ATOM      6  C   UNL     1       5.199  -5.539  22.468  0.00  0.00    +0.091 A 
ATOM      7  C   UNL     1       4.138  -4.877  23.076  0.00  0.00    +0.124 A 
ATOM      8  C   UNL     1       7.976  -3.186  23.367  0.00  0.00    +0.238 A 
ATOM      9  O   UNL     1       8.833  -3.657  22.614  0.00  0.00    -0.283 OA
ATOM     10  C   UNL     1       4.336  -3.690  23.786  0.00  0.00    +0.092 A 
ATOM     11  C   UNL     1       8.198  -2.038  24.321  0.00  0.00    +0.214 A 
ENDROOT
BRANCH   1  13
ATOM     12  C   UNL     1       6.385   0.937  25.445  0.00  0.00    +0.015 A 
ATOM     13  C   UNL     1       6.993  -0.288  25.773  0.00  0.00    +0.025 A 
ATOM     14  C   UNL     1       7.580  -0.367  27.061  0.00  0.00    +0.060 A 
ATOM     15  C   UNL     1       7.645   0.748  27.897  0.00  0.00    +0.159 A 
ATOM     16  C   UNL     1       7.151   1.974  27.481  0.00  0.00    +0.158 A 
ATOM     17  C   UNL     1       6.484   2.067  26.274  0.00  0.00    +0.050 A 
BRANCH  15  18
ATOM     18  O   UNL     1       8.223   0.638  29.130  0.00  0.00    -0.503 OA
ATOM     19  H   UNL     1       8.697   1.484  29.259  0.00  0.00    +0.292 HD
ENDBRANCH  15  18
BRANCH  16  20
ATOM     20  O   UNL     1       7.355   3.062  28.281  0.00  0.00    -0.503 OA
ATOM     21  H   UNL     1       7.819   3.733  27.748  0.00  0.00    +0.292 HD
ENDBRANCH  16  20
ENDBRANCH   1  13
BRANCH   5  22
ATOM     22  O   UNL     1       7.479  -5.680  21.949  0.00  0.00    -0.506 OA
ATOM     23  H   UNL     1       8.313  -5.486  22.433  0.00  0.00    +0.292 HD
ENDBRANCH   5  22
BRANCH   7  24
ATOM     24  O   UNL     1       2.869  -5.370  22.986  0.00  0.00    -0.507 OA
ATOM     25  H   UNL     1       2.654  -5.833  23.816  0.00  0.00    +0.292 HD
ENDBRANCH   7  24
BRANCH  11  26
ATOM     26  O   UNL     1       9.503  -1.604  24.629  0.00  0.00    -0.453 OA
BRANCH  26  27
ATOM     27  C   UNL     1       9.950  -0.481  23.869  0.00  0.00    +0.340 C 
ATOM     28  O   UNL     1       9.770   0.759  24.572  0.00  0.00    -0.331 OA
ATOM     29  C   UNL     1      10.053   1.806  23.616  0.00  0.00    +0.179 C 
ATOM     30  C   UNL     1       9.948   1.158  22.222  0.00  0.00    +0.180 C 
ATOM     31  C   UNL     1       9.321  -0.222  22.499  0.00  0.00    +0.214 C 
BRANCH  30  32
ATOM     32  O   UNL     1       9.255   1.911  21.240  0.00  0.00    -0.386 OA
ATOM     33  H   UNL     1       9.171   2.824  21.587  0.00  0.00    +0.210 HD
ENDBRANCH  30  32
BRANCH  31  34
ATOM     34  O   UNL     1       9.693  -1.190  21.513  0.00  0.00    -0.383 OA
ATOM     35  H   UNL     1      10.294  -1.844  21.927  0.00  0.00    +0.210 HD
ENDBRANCH  31  34
BRANCH  29  36
ATOM     36  C   UNL     1       9.173   3.025  23.879  0.00  0.00    +0.190 C 
BRANCH  36  37
ATOM     37  O   UNL     1       9.626   4.150  23.125  0.00  0.00    -0.392 OA
ATOM     38  H   UNL     1      10.599   4.154  23.197  0.00  0.00    +0.210 HD
ENDBRANCH  36  37
ENDBRANCH  29  36
ENDBRANCH  26  27
ENDBRANCH  11  26
TORSDOF 11
ENDMDL
MODEL 7
REMARK VINA RESULT:      -6.7      1.875      4.744
REMARK  Name = 
REMARK  11 active torsions:
REMARK  status: ('A' for Active; 'I' for Inactive)
REMARK    1  A    between atoms: C_3  and  O_35
REMARK    2  A    between atoms: C_4  and  O_34
REMARK    3  A    between atoms: C_6  and  C_7
REMARK    4  A    between atoms: C_8  and  O_20
REMARK    5  A    between atoms: C_12  and  O_19
REMARK    6  A    between atoms: C_14  and  O_18
REMARK    7  A    between atoms: O_20  and  C_21
REMARK    8  A    between atoms: C_23  and  O_33
REMARK    9  A    between atoms: C_25  and  O_32
REMARK   10  A    between atoms: C_27  and  C_30
REMARK   11  A    between atoms: C_30  and  O_31
REMARK                            x       y       z     vdW  Elec       q    Type
REMARK                         _______ _______ _______ _____ _____    ______ ____
ROOT
ATOM      1  C   UNL     1       5.408  -2.107  25.214  0.00  0.00    +0.181 A 
ATOM      2  O   UNL     1       4.852  -3.139  25.993  0.00  0.00    -0.451 OA
ATOM      3  C   UNL     1       4.627  -4.374  25.452  0.00  0.00    +0.147 A 
ATOM      4  C   UNL     1       4.733  -4.614  24.100  0.00  0.00    +0.109 A 
ATOM      5  C   UNL     1       4.457  -5.883  23.566  0.00  0.00    +0.135 A 
ATOM      6  C   UNL     1       4.068  -6.923  24.398  0.00  0.00    +0.091 A 
ATOM      7  C   UNL     1       3.959  -6.677  25.762  0.00  0.00    +0.124 A 
ATOM      8  C   UNL     1       5.089  -3.503  23.249  0.00  0.00    +0.238 A 
ATOM      9  O   UNL     1       4.931  -3.688  22.039  0.00  0.00    -0.283 OA
ATOM     10  C   UNL     1       4.237  -5.416  26.296  0.00  0.00    +0.092 A 
ATOM     11  C   UNL     1       5.598  -2.225  23.870  0.00  0.00    +0.214 A 
ENDROOT
BRANCH   1  13
ATOM     12  C   UNL     1       5.025   0.251  26.174  0.00  0.00    +0.015 A 
ATOM     13  C   UNL     1       5.785  -0.929  26.085  0.00  0.00    +0.025 A 
ATOM     14  C   UNL     1       6.979  -0.960  26.849  0.00  0.00    +0.060 A 
ATOM     15  C   UNL     1       7.419   0.162  27.550  0.00  0.00    +0.159 A 
ATOM     16  C   UNL     1       6.707   1.350  27.505  0.00  0.00    +0.158 A 
ATOM     17  C   UNL     1       5.489   1.391  26.853  0.00  0.00    +0.050 A 
BRANCH  15  18
ATOM     18  O   UNL     1       8.578   0.099  28.272  0.00  0.00    -0.503 OA
ATOM     19  H   UNL     1       9.130  -0.556  27.797  0.00  0.00    +0.292 HD
ENDBRANCH  15  18
BRANCH  16  20
ATOM     20  O   UNL     1       7.246   2.455  28.099  0.00  0.00    -0.503 OA
ATOM     21  H   UNL     1       8.214   2.393  28.008  0.00  0.00    +0.292 HD
ENDBRANCH  16  20
ENDBRANCH   1  13
BRANCH   5  22
ATOM     22  O   UNL     1       4.539  -6.174  22.228  0.00  0.00    -0.506 OA
ATOM     23  H   UNL     1       4.248  -5.374  21.733  0.00  0.00    +0.292 HD
ENDBRANCH   5  22
BRANCH   7  24
ATOM     24  O   UNL     1       3.569  -7.667  26.616  0.00  0.00    -0.507 OA
ATOM     25  H   UNL     1       2.596  -7.686  26.650  0.00  0.00    +0.292 HD
ENDBRANCH   7  24
BRANCH  11  26
ATOM     26  O   UNL     1       6.210  -1.236  23.074  0.00  0.00    -0.453 OA
BRANCH  26  27
ATOM     27  C   UNL     1       7.629  -1.152  23.218  0.00  0.00    +0.340 C 
ATOM     28  O   UNL     1       8.113   0.192  23.068  0.00  0.00    -0.331 OA
ATOM     29  C   UNL     1       9.554   0.095  23.017  0.00  0.00    +0.179 C 
ATOM     30  C   UNL     1       9.877  -1.372  22.673  0.00  0.00    +0.180 C 
ATOM     31  C   UNL     1       8.514  -1.970  22.275  0.00  0.00    +0.214 C 
BRANCH  30  32
ATOM     32  O   UNL     1      10.891  -1.571  21.703  0.00  0.00    -0.386 OA
ATOM     33  H   UNL     1      10.720  -2.440  21.284  0.00  0.00    +0.210 HD
ENDBRANCH  30  32
BRANCH  31  34
ATOM     34  O   UNL     1       8.452  -3.378  22.519  0.00  0.00    -0.383 OA
ATOM     35  H   UNL     1       8.191  -3.523  23.452  0.00  0.00    +0.210 HD
ENDBRANCH  31  34
BRANCH  29  36
ATOM     36  C   UNL     1      10.132   1.164  22.093  0.00  0.00    +0.190 C 
BRANCH  36  37
ATOM     37  O   UNL     1       9.154   1.603  21.150  0.00  0.00    -0.392 OA
ATOM     38  H   UNL     1       9.643   2.064  20.443  0.00  0.00    +0.210 HD
ENDBRANCH  36  37
ENDBRANCH  29  36
ENDBRANCH  26  27
ENDBRANCH  11  26
TORSDOF 11
ENDMDL
MODEL 8
REMARK VINA RESULT:      -6.7      1.878      6.606
REMARK  Name = 
REMARK  11 active torsions:
REMARK  status: ('A' for Active; 'I' for Inactive)
REMARK    1  A    between atoms: C_3  and  O_35
REMARK    2  A    between atoms: C_4  and  O_34
REMARK    3  A    between atoms: C_6  and  C_7
REMARK    4  A    between atoms: C_8  and  O_20
REMARK    5  A    between atoms: C_12  and  O_19
REMARK    6  A    between atoms: C_14  and  O_18
REMARK    7  A    between atoms: O_20  and  C_21
REMARK    8  A    between atoms: C_23  and  O_33
REMARK    9  A    between atoms: C_25  and  O_32
REMARK   10  A    between atoms: C_27  and  C_30
REMARK   11  A    between atoms: C_30  and  O_31
REMARK                            x       y       z     vdW  Elec       q    Type
REMARK                         _______ _______ _______ _____ _____    ______ ____
ROOT
ATOM      1  C   UNL     1       6.714  -1.520  23.706  0.00  0.00    +0.181 A 
ATOM      2  O   UNL     1       7.448  -0.845  22.713  0.00  0.00    -0.451 OA
ATOM      3  C   UNL     1       8.173   0.272  23.022  0.00  0.00    +0.147 A 
ATOM      4  C   UNL     1       8.063   0.904  24.242  0.00  0.00    +0.109 A 
ATOM      5  C   UNL     1       8.788   2.074  24.519  0.00  0.00    +0.135 A 
ATOM      6  C   UNL     1       9.633   2.617  23.562  0.00  0.00    +0.091 A 
ATOM      7  C   UNL     1       9.741   1.979  22.332  0.00  0.00    +0.124 A 
ATOM      8  C   UNL     1       7.138   0.349  25.202  0.00  0.00    +0.238 A 
ATOM      9  O   UNL     1       6.879   1.070  26.170  0.00  0.00    -0.283 OA
ATOM     10  C   UNL     1       9.022   0.812  22.055  0.00  0.00    +0.092 A 
ATOM     11  C   UNL     1       6.553  -1.022  24.964  0.00  0.00    +0.214 A 
ENDROOT
BRANCH   1  13
ATOM     12  C   UNL     1       4.897  -3.318  23.392  0.00  0.00    +0.015 A 
ATOM     13  C   UNL     1       6.205  -2.844  23.181  0.00  0.00    +0.025 A 
ATOM     14  C   UNL     1       7.068  -3.703  22.455  0.00  0.00    +0.060 A 
ATOM     15  C   UNL     1       6.667  -4.985  22.080  0.00  0.00    +0.159 A 
ATOM     16  C   UNL     1       5.413  -5.463  22.424  0.00  0.00    +0.158 A 
ATOM     17  C   UNL     1       4.508  -4.622  23.044  0.00  0.00    +0.050 A 
BRANCH  15  18
ATOM     18  O   UNL     1       7.527  -5.788  21.386  0.00  0.00    -0.503 OA
ATOM     19  H   UNL     1       8.419  -5.491  21.658  0.00  0.00    +0.292 HD
ENDBRANCH  15  18
BRANCH  16  20
ATOM     20  O   UNL     1       5.116  -6.768  22.149  0.00  0.00    -0.503 OA
ATOM     21  H   UNL     1       4.153  -6.827  22.018  0.00  0.00    +0.292 HD
ENDBRANCH  16  20
ENDBRANCH   1  13
BRANCH   5  22
ATOM     22  O   UNL     1       8.709   2.747  25.712  0.00  0.00    -0.506 OA
ATOM     23  H   UNL     1       7.755   2.875  25.916  0.00  0.00    +0.292 HD
ENDBRANCH   5  22
BRANCH   7  24
ATOM     24  O   UNL     1      10.550   2.484  21.357  0.00  0.00    -0.507 OA
ATOM     25  H   UNL     1      10.516   1.893  20.584  0.00  0.00    +0.292 HD
ENDBRANCH   7  24
BRANCH  11  26
ATOM     26  O   UNL     1       5.878  -1.703  25.997  0.00  0.00    -0.453 OA
BRANCH  26  27
ATOM     27  C   UNL     1       6.659  -2.700  26.660  0.00  0.00    +0.340 C 
ATOM     28  O   UNL     1       7.923  -2.920  26.014  0.00  0.00    -0.331 OA
ATOM     29  C   UNL     1       8.498  -4.085  26.647  0.00  0.00    +0.179 C 
ATOM     30  C   UNL     1       7.337  -4.811  27.353  0.00  0.00    +0.180 C 
ATOM     31  C   UNL     1       6.076  -4.105  26.818  0.00  0.00    +0.214 C 
BRANCH  30  32
ATOM     32  O   UNL     1       7.307  -6.221  27.204  0.00  0.00    -0.386 OA
ATOM     33  H   UNL     1       8.093  -6.574  27.670  0.00  0.00    +0.210 HD
ENDBRANCH  30  32
BRANCH  31  34
ATOM     34  O   UNL     1       4.989  -4.167  27.747  0.00  0.00    -0.383 OA
ATOM     35  H   UNL     1       4.230  -3.673  27.374  0.00  0.00    +0.210 HD
ENDBRANCH  31  34
BRANCH  29  36
ATOM     36  C   UNL     1       9.310  -4.897  25.641  0.00  0.00    +0.190 C 
BRANCH  36  37
ATOM     37  O   UNL     1       9.849  -4.052  24.624  0.00  0.00    -0.392 OA
ATOM     38  H   UNL     1       9.614  -4.465  23.772  0.00  0.00    +0.210 HD
ENDBRANCH  36  37
ENDBRANCH  29  36
ENDBRANCH  26  27
ENDBRANCH  11  26
TORSDOF 11
ENDMDL
MODEL 9
REMARK VINA RESULT:      -6.7      2.194      4.909
REMARK  Name = 
REMARK  11 active torsions:
REMARK  status: ('A' for Active; 'I' for Inactive)
REMARK    1  A    between atoms: C_3  and  O_35
REMARK    2  A    between atoms: C_4  and  O_34
REMARK    3  A    between atoms: C_6  and  C_7
REMARK    4  A    between atoms: C_8  and  O_20
REMARK    5  A    between atoms: C_12  and  O_19
REMARK    6  A    between atoms: C_14  and  O_18
REMARK    7  A    between atoms: O_20  and  C_21
REMARK    8  A    between atoms: C_23  and  O_33
REMARK    9  A    between atoms: C_25  and  O_32
REMARK   10  A    between atoms: C_27  and  C_30
REMARK   11  A    between atoms: C_30  and  O_31
REMARK                            x       y       z     vdW  Elec       q    Type
REMARK                         _______ _______ _______ _____ _____    ______ ____
ROOT
ATOM      1  C   UNL     1       6.548  -0.738  24.963  0.00  0.00    +0.181 A 
ATOM      2  O   UNL     1       6.511  -1.684  26.004  0.00  0.00    -0.451 OA
ATOM      3  C   UNL     1       6.974  -2.956  25.806  0.00  0.00    +0.147 A 
ATOM      4  C   UNL     1       7.301  -3.431  24.555  0.00  0.00    +0.109 A 
ATOM      5  C   UNL     1       7.736  -4.754  24.375  0.00  0.00    +0.135 A 
ATOM      6  C   UNL     1       7.843  -5.610  25.461  0.00  0.00    +0.091 A 
ATOM      7  C   UNL     1       7.510  -5.128  26.722  0.00  0.00    +0.124 A 
ATOM      8  C   UNL     1       7.131  -2.537  23.434  0.00  0.00    +0.238 A 
ATOM      9  O   UNL     1       7.190  -3.064  22.319  0.00  0.00    -0.283 OA
ATOM     10  C   UNL     1       7.080  -3.811  26.905  0.00  0.00    +0.092 A 
ATOM     11  C   UNL     1       6.886  -1.069  23.685  0.00  0.00    +0.214 A 
ENDROOT
BRANCH   1  13
ATOM     12  C   UNL     1       5.234   1.476  24.924  0.00  0.00    +0.015 A 
ATOM     13  C   UNL     1       6.216   0.641  25.487  0.00  0.00    +0.025 A 
ATOM     14  C   UNL     1       6.931   1.176  26.589  0.00  0.00    +0.060 A 
ATOM     15  C   UNL     1       6.741   2.494  27.004  0.00  0.00    +0.159 A 
ATOM     16  C   UNL     1       5.857   3.326  26.336  0.00  0.00    +0.158 A 
ATOM     17  C   UNL     1       5.070   2.813  25.321  0.00  0.00    +0.050 A 
BRANCH  15  18
ATOM     18  O   UNL     1       7.451   2.979  28.066  0.00  0.00    -0.503 OA
ATOM     19  H   UNL     1       7.306   2.326  28.780  0.00  0.00    +0.292 HD
ENDBRANCH  15  18
BRANCH  16  20
ATOM     20  O   UNL     1       5.803   4.642  26.697  0.00  0.00    -0.503 OA
ATOM     21  H   UNL     1       5.771   5.169  25.879  0.00  0.00    +0.292 HD
ENDBRANCH  16  20
ENDBRANCH   1  13
BRANCH   5  22
ATOM     22  O   UNL     1       8.065  -5.280  23.152  0.00  0.00    -0.506 OA
ATOM     23  H   UNL     1       7.225  -5.486  22.682  0.00  0.00    +0.292 HD
ENDBRANCH   5  22
BRANCH   7  24
ATOM     24  O   UNL     1       7.589  -5.938  27.817  0.00  0.00    -0.507 OA
ATOM     25  H   UNL     1       8.047  -5.458  28.530  0.00  0.00    +0.292 HD
ENDBRANCH   7  24
BRANCH  11  26
ATOM     26  O   UNL     1       6.994  -0.134  22.636  0.00  0.00    -0.453 OA
BRANCH  26  27
ATOM     27  C   UNL     1       8.317   0.355  22.410  0.00  0.00    +0.340 C 
ATOM     28  O   UNL     1       9.248  -0.117  23.398  0.00  0.00    -0.331 OA
ATOM     29  C   UNL     1      10.471   0.621  23.178  0.00  0.00    +0.179 C 
ATOM     30  C   UNL     1      10.087   1.858  22.345  0.00  0.00    +0.180 C 
ATOM     31  C   UNL     1       8.547   1.867  22.379  0.00  0.00    +0.214 C 
BRANCH  30  32
ATOM     32  O   UNL     1      10.674   3.083  22.752  0.00  0.00    -0.386 OA
ATOM     33  H   UNL     1      11.350   3.314  22.081  0.00  0.00    +0.210 HD
ENDBRANCH  30  32
BRANCH  31  34
ATOM     34  O   UNL     1       7.987   2.502  21.226  0.00  0.00    -0.383 OA
ATOM     35  H   UNL     1       8.282   2.018  20.427  0.00  0.00    +0.210 HD
ENDBRANCH  31  34
BRANCH  29  36
ATOM     36  C   UNL     1      11.190   0.874  24.501  0.00  0.00    +0.190 C 
BRANCH  36  37
ATOM     37  O   UNL     1      10.381   0.467  25.605  0.00  0.00    -0.392 OA
ATOM     38  H   UNL     1       9.526   0.925  25.502  0.00  0.00    +0.210 HD
ENDBRANCH  36  37
ENDBRANCH  29  36
ENDBRANCH  26  27
ENDBRANCH  11  26
TORSDOF 11
ENDMDL
