MODEL 1
REMARK VINA RESULT:      -7.6      0.000      0.000
REMARK  Name = 
REMARK  18 active torsions:
REMARK  status: ('A' for Active; 'I' for Inactive)
REMARK    1  A    between atoms: C_3  and  O_49
REMARK    2  A    between atoms: C_4  and  O_48
REMARK    3  A    between atoms: C_6  and  C_7
REMARK    4  A    between atoms: C_8  and  O_20
REMARK    5  A    between atoms: C_12  and  O_19
REMARK    6  A    between atoms: C_14  and  O_18
REMARK    7  A    between atoms: O_20  and  C_21
REMARK    8  A    between atoms: C_23  and  O_47
REMARK    9  A    between atoms: C_24  and  O_46
REMARK   10  A    between atoms: C_25  and  O_31
REMARK   11  A    between atoms: C_27  and  C_29
REMARK   12  A    between atoms: C_29  and  O_30
REMARK   13  A    between atoms: O_31  and  C_32
REMARK   14  A    between atoms: C_34  and  O_45
REMARK   15  A    between atoms: C_36  and  O_44
REMARK   16  A    between atoms: C_37  and  O_43
REMARK   17  A    between atoms: C_39  and  C_41
REMARK   18  A    between atoms: C_41  and  O_42
REMARK                            x       y       z     vdW  Elec       q    Type
REMARK                         _______ _______ _______ _____ _____    ______ ____
ROOT
ATOM      1  C   UNL     1       6.320   0.005  26.359  0.00  0.00    +0.340 C 
ATOM      2  O   UNL     1       5.766   1.056  27.177  0.00  0.00    -0.331 OA
ATOM      3  C   UNL     1       6.173   2.430  26.960  0.00  0.00    +0.179 C 
ATOM      4  C   UNL     1       7.471   2.727  26.155  0.00  0.00    +0.184 C 
ATOM      5  C   UNL     1       8.059   1.491  25.459  0.00  0.00    +0.180 C 
ATOM      6  C   UNL     1       7.835   0.260  26.346  0.00  0.00    +0.214 C 
ENDROOT
BRANCH   5   7
ATOM      7  O   UNL     1       9.463   1.728  25.259  0.00  0.00    -0.386 OA
ATOM      8  H   UNL     1       9.870   1.714  26.147  0.00  0.00    +0.210 HD
ENDBRANCH   5   7
BRANCH   6   9
ATOM      9  O   UNL     1       8.653  -0.830  25.941  0.00  0.00    -0.383 OA
ATOM     10  H   UNL     1       9.575  -0.651  26.198  0.00  0.00    +0.210 HD
ENDBRANCH   6   9
BRANCH   1  11
ATOM     11  O   UNL     1       5.731   0.001  25.034  0.00  0.00    -0.453 OA
BRANCH  11  22
ATOM     12  C   UNL     1       6.690  -1.312  23.225  0.00  0.00    +0.181 A 
ATOM     13  O   UNL     1       6.879  -2.531  22.578  0.00  0.00    -0.451 OA
ATOM     14  C   UNL     1       6.285  -3.672  23.006  0.00  0.00    +0.147 A 
ATOM     15  C   UNL     1       5.362  -3.681  24.029  0.00  0.00    +0.109 A 
ATOM     16  C   UNL     1       4.769  -4.910  24.365  0.00  0.00    +0.135 A 
ATOM     17  C   UNL     1       5.094  -6.093  23.680  0.00  0.00    +0.091 A 
ATOM     18  C   UNL     1       6.037  -6.051  22.662  0.00  0.00    +0.124 A 
ATOM     19  C   UNL     1       5.045  -2.381  24.673  0.00  0.00    +0.238 A 
ATOM     20  O   UNL     1       4.188  -2.347  25.552  0.00  0.00    -0.283 OA
ATOM     21  C   UNL     1       6.648  -4.846  22.332  0.00  0.00    +0.092 A 
ATOM     22  C   UNL     1       5.786  -1.135  24.225  0.00  0.00    +0.214 A 
BRANCH  12  24
ATOM     23  C   UNL     1       9.024  -0.707  22.540  0.00  0.00    +0.015 A 
ATOM     24  C   UNL     1       7.663  -0.320  22.661  0.00  0.00    +0.025 A 
ATOM     25  C   UNL     1       7.350   0.990  22.288  0.00  0.00    +0.060 A 
ATOM     26  C   UNL     1       8.341   1.867  21.860  0.00  0.00    +0.159 A 
ATOM     27  C   UNL     1       9.674   1.481  21.836  0.00  0.00    +0.158 A 
ATOM     28  C   UNL     1      10.026   0.185  22.156  0.00  0.00    +0.050 A 
BRANCH  26  29
ATOM     29  O   UNL     1       7.993   3.137  21.491  0.00  0.00    -0.503 OA
ATOM     30  H   UNL     1       7.357   3.010  20.757  0.00  0.00    +0.292 HD
ENDBRANCH  26  29
BRANCH  27  31
ATOM     31  O   UNL     1      10.609   2.417  21.500  0.00  0.00    -0.503 OA
ATOM     32  H   UNL     1      11.227   2.498  22.249  0.00  0.00    +0.292 HD
ENDBRANCH  27  31
ENDBRANCH  12  24
BRANCH  18  33
ATOM     33  O   UNL     1       6.383  -7.155  21.945  0.00  0.00    -0.507 OA
ATOM     34  H   UNL     1       6.239  -6.988  20.999  0.00  0.00    +0.292 HD
ENDBRANCH  18  33
BRANCH  16  35
ATOM     35  O   UNL     1       3.844  -5.046  25.366  0.00  0.00    -0.506 OA
ATOM     36  H   UNL     1       3.396  -4.180  25.496  0.00  0.00    +0.292 HD
ENDBRANCH  16  35
ENDBRANCH  11  22
ENDBRANCH   1  11
BRANCH   3  37
ATOM     37  C   UNL     1       6.381   3.047  28.373  0.00  0.00    +0.190 C 
BRANCH  37  38
ATOM     38  O   UNL     1       7.562   2.600  29.022  0.00  0.00    -0.392 OA
ATOM     39  H   UNL     1       7.940   3.343  29.525  0.00  0.00    +0.210 HD
ENDBRANCH  37  38
ENDBRANCH   3  37
BRANCH   4  40
ATOM     40  O   UNL     1       7.288   3.764  25.166  0.00  0.00    -0.340 OA
BRANCH  40  41
ATOM     41  C   UNL     1       7.634   5.095  25.541  0.00  0.00    +0.282 C 
ATOM     42  O   UNL     1       6.675   6.030  25.014  0.00  0.00    -0.341 OA
ATOM     43  C   UNL     1       6.601   6.035  23.576  0.00  0.00    +0.178 C 
ATOM     44  C   UNL     1       7.957   6.332  22.914  0.00  0.00    +0.177 C 
ATOM     45  C   UNL     1       9.083   5.505  23.550  0.00  0.00    +0.179 C 
ATOM     46  C   UNL     1       9.022   5.584  25.074  0.00  0.00    +0.201 C 
BRANCH  44  47
ATOM     47  O   UNL     1       7.874   6.065  21.509  0.00  0.00    -0.386 OA
ATOM     48  H   UNL     1       7.988   5.103  21.386  0.00  0.00    +0.210 HD
ENDBRANCH  44  47
BRANCH  45  49
ATOM     49  O   UNL     1      10.351   5.996  23.082  0.00  0.00    -0.386 OA
ATOM     50  H   UNL     1      10.666   6.629  23.759  0.00  0.00    +0.210 HD
ENDBRANCH  45  49
BRANCH  46  51
ATOM     51  O   UNL     1       9.248   6.950  25.485  0.00  0.00    -0.384 OA
ATOM     52  H   UNL     1      10.227   7.095  25.498  0.00  0.00    +0.210 HD
ENDBRANCH  46  51
BRANCH  43  53
ATOM     53  C   UNL     1       5.584   7.108  23.142  0.00  0.00    +0.190 C 
BRANCH  53  54
ATOM     54  O   UNL     1       5.015   6.820  21.868  0.00  0.00    -0.392 OA
ATOM     55  H   UNL     1       4.329   6.148  21.995  0.00  0.00    +0.210 HD
ENDBRANCH  53  54
ENDBRANCH  43  53
ENDBRANCH  40  41
ENDBRANCH   4  40
TORSDOF 18
ENDMDL
MODEL 2
REMARK VINA RESULT:      -7.4      1.701      4.182
REMARK  Name = 
REMARK  18 active torsions:
REMARK  status: ('A' for Active; 'I' for Inactive)
REMARK    1  A    between atoms: C_3  and  O_49
REMARK    2  A    between atoms: C_4  and  O_48
REMARK    3  A    between atoms: C_6  and  C_7
REMARK    4  A    between atoms: C_8  and  O_20
REMARK    5  A    between atoms: C_12  and  O_19
REMARK    6  A    between atoms: C_14  and  O_18
REMARK    7  A    between atoms: O_20  and  C_21
REMARK    8  A    between atoms: C_23  and  O_47
REMARK    9  A    between atoms: C_24  and  O_46
REMARK   10  A    between atoms: C_25  and  O_31
REMARK   11  A    between atoms: C_27  and  C_29
REMARK   12  A    between atoms: C_29  and  O_30
REMARK   13  A    between atoms: O_31  and  C_32
REMARK   14  A    between atoms: C_34  and  O_45
REMARK   15  A    between atoms: C_36  and  O_44
REMARK   16  A    between atoms: C_37  and  O_43
REMARK   17  A    between atoms: C_39  and  C_41
REMARK   18  A    between atoms: C_41  and  O_42
REMARK                            x       y       z     vdW  Elec       q    Type
REMARK                         _______ _______ _______ _____ _____    ______ ____
ROOT
ATOM      1  C   UNL     1       8.936  -1.488  22.745  0.00  0.00    +0.340 C 
ATOM      2  O   UNL     1       9.594  -1.057  23.954  0.00  0.00    -0.331 OA
ATOM      3  C   UNL     1       9.480   0.321  24.386  0.00  0.00    +0.179 C 
ATOM      4  C   UNL     1       9.014   1.406  23.372  0.00  0.00    +0.184 C 
ATOM      5  C   UNL     1       8.485   0.827  22.052  0.00  0.00    +0.180 C 
ATOM      6  C   UNL     1       9.292  -0.426  21.693  0.00  0.00    +0.214 C 
ENDROOT
BRANCH   5   7
ATOM      7  O   UNL     1       8.631   1.837  21.040  0.00  0.00    -0.386 OA
ATOM      8  H   UNL     1       7.902   2.471  21.181  0.00  0.00    +0.210 HD
ENDBRANCH   5   7
BRANCH   6   9
ATOM      9  O   UNL     1       9.100  -0.798  20.334  0.00  0.00    -0.383 OA
ATOM     10  H   UNL     1       9.204  -0.012  19.769  0.00  0.00    +0.210 HD
ENDBRANCH   6   9
BRANCH   1  11
ATOM     11  O   UNL     1       7.509  -1.638  22.945  0.00  0.00    -0.453 OA
BRANCH  11  22
ATOM     12  C   UNL     1       6.520  -2.458  25.011  0.00  0.00    +0.181 A 
ATOM     13  O   UNL     1       5.815  -3.429  25.717  0.00  0.00    -0.451 OA
ATOM     14  C   UNL     1       5.413  -4.589  25.140  0.00  0.00    +0.147 A 
ATOM     15  C   UNL     1       5.782  -4.937  23.859  0.00  0.00    +0.109 A 
ATOM     16  C   UNL     1       5.353  -6.183  23.371  0.00  0.00    +0.135 A 
ATOM     17  C   UNL     1       4.580  -7.053  24.159  0.00  0.00    +0.091 A 
ATOM     18  C   UNL     1       4.216  -6.665  25.441  0.00  0.00    +0.124 A 
ATOM     19  C   UNL     1       6.632  -3.978  23.109  0.00  0.00    +0.238 A 
ATOM     20  O   UNL     1       7.022  -4.284  21.985  0.00  0.00    -0.283 OA
ATOM     21  C   UNL     1       4.616  -5.426  25.930  0.00  0.00    +0.092 A 
ATOM     22  C   UNL     1       6.997  -2.654  23.753  0.00  0.00    +0.214 A 
BRANCH  12  24
ATOM     23  C   UNL     1       5.727  -0.138  25.534  0.00  0.00    +0.015 A 
ATOM     24  C   UNL     1       6.593  -1.218  25.852  0.00  0.00    +0.025 A 
ATOM     25  C   UNL     1       7.489  -1.012  26.905  0.00  0.00    +0.060 A 
ATOM     26  C   UNL     1       7.542   0.209  27.569  0.00  0.00    +0.159 A 
ATOM     27  C   UNL     1       6.741   1.272  27.174  0.00  0.00    +0.158 A 
ATOM     28  C   UNL     1       5.812   1.102  26.167  0.00  0.00    +0.050 A 
BRANCH  26  29
ATOM     29  O   UNL     1       8.422   0.367  28.603  0.00  0.00    -0.503 OA
ATOM     30  H   UNL     1       8.936   1.166  28.362  0.00  0.00    +0.292 HD
ENDBRANCH  26  29
BRANCH  27  31
ATOM     31  O   UNL     1       6.909   2.472  27.801  0.00  0.00    -0.503 OA
ATOM     32  H   UNL     1       6.024   2.841  27.974  0.00  0.00    +0.292 HD
ENDBRANCH  27  31
ENDBRANCH  12  24
BRANCH  18  33
ATOM     33  O   UNL     1       3.487  -7.468  26.264  0.00  0.00    -0.507 OA
ATOM     34  H   UNL     1       2.650  -7.031  26.488  0.00  0.00    +0.292 HD
ENDBRANCH  18  33
BRANCH  16  35
ATOM     35  O   UNL     1       5.649  -6.637  22.113  0.00  0.00    -0.506 OA
ATOM     36  H   UNL     1       6.334  -6.048  21.724  0.00  0.00    +0.292 HD
ENDBRANCH  16  35
ENDBRANCH  11  22
ENDBRANCH   1  11
BRANCH   3  37
ATOM     37  C   UNL     1      10.900   0.745  24.860  0.00  0.00    +0.190 C 
BRANCH  37  38
ATOM     38  O   UNL     1      11.467   1.799  24.095  0.00  0.00    -0.392 OA
ATOM     39  H   UNL     1      11.634   1.473  23.194  0.00  0.00    +0.210 HD
ENDBRANCH  37  38
ENDBRANCH   3  37
BRANCH   4  40
ATOM     40  O   UNL     1       8.009   2.287  23.921  0.00  0.00    -0.340 OA
BRANCH  40  41
ATOM     41  C   UNL     1       8.435   3.575  24.359  0.00  0.00    +0.282 C 
ATOM     42  O   UNL     1       7.449   4.159  25.229  0.00  0.00    -0.341 OA
ATOM     43  C   UNL     1       6.170   4.363  24.600  0.00  0.00    +0.178 C 
ATOM     44  C   UNL     1       6.262   5.241  23.341  0.00  0.00    +0.177 C 
ATOM     45  C   UNL     1       7.420   4.799  22.435  0.00  0.00    +0.179 C 
ATOM     46  C   UNL     1       8.701   4.608  23.245  0.00  0.00    +0.201 C 
BRANCH  44  47
ATOM     47  O   UNL     1       5.021   5.187  22.627  0.00  0.00    -0.386 OA
ATOM     48  H   UNL     1       5.209   4.824  21.739  0.00  0.00    +0.210 HD
ENDBRANCH  44  47
BRANCH  45  49
ATOM     49  O   UNL     1       7.625   5.791  21.414  0.00  0.00    -0.386 OA
ATOM     50  H   UNL     1       8.132   6.516  21.835  0.00  0.00    +0.210 HD
ENDBRANCH  45  49
BRANCH  46  51
ATOM     51  O   UNL     1       9.096   5.878  23.808  0.00  0.00    -0.384 OA
ATOM     52  H   UNL     1       9.327   5.719  24.758  0.00  0.00    +0.210 HD
ENDBRANCH  46  51
BRANCH  43  53
ATOM     53  C   UNL     1       5.227   5.037  25.616  0.00  0.00    +0.190 C 
BRANCH  53  54
ATOM     54  O   UNL     1       5.736   4.967  26.944  0.00  0.00    -0.392 OA
ATOM     55  H   UNL     1       6.407   5.659  27.041  0.00  0.00    +0.210 HD
ENDBRANCH  53  54
ENDBRANCH  43  53
ENDBRANCH  40  41
ENDBRANCH   4  40
TORSDOF 18
ENDMDL
MODEL 3
REMARK VINA RESULT:      -7.4      2.710      9.711
REMARK  Name = 
REMARK  18 active torsions:
REMARK  status: ('A' for Active; 'I' for Inactive)
REMARK    1  A    between atoms: C_3  and  O_49
REMARK    2  A    between atoms: C_4  and  O_48
REMARK    3  A    between atoms: C_6  and  C_7
REMARK    4  A    between atoms: C_8  and  O_20
REMARK    5  A    between atoms: C_12  and  O_19
REMARK    6  A    between atoms: C_14  and  O_18
REMARK    7  A    between atoms: O_20  and  C_21
REMARK    8  A    between atoms: C_23  and  O_47
REMARK    9  A    between atoms: C_24  and  O_46
REMARK   10  A    between atoms: C_25  and  O_31
REMARK   11  A    between atoms: C_27  and  C_29
REMARK   12  A    between atoms: C_29  and  O_30
REMARK   13  A    between atoms: O_31  and  C_32
REMARK   14  A    between atoms: C_34  and  O_45
REMARK   15  A    between atoms: C_36  and  O_44
REMARK   16  A    between atoms: C_37  and  O_43
REMARK   17  A    between atoms: C_39  and  C_41
REMARK   18  A    between atoms: C_41  and  O_42
REMARK                            x       y       z     vdW  Elec       q    Type
REMARK                         _______ _______ _______ _____ _____    ______ ____
ROOT
ATOM      1  C   UNL     1       8.038  -3.423  23.717  0.00  0.00    +0.340 C 
ATOM      2  O   UNL     1       6.885  -3.942  23.022  0.00  0.00    -0.331 OA
ATOM      3  C   UNL     1       5.955  -4.810  23.716  0.00  0.00    +0.179 C 
ATOM      4  C   UNL     1       6.393  -5.500  25.040  0.00  0.00    +0.184 C 
ATOM      5  C   UNL     1       7.723  -4.974  25.597  0.00  0.00    +0.180 C 
ATOM      6  C   UNL     1       8.658  -4.634  24.430  0.00  0.00    +0.214 C 
ENDROOT
BRANCH   5   7
ATOM      7  O   UNL     1       8.291  -6.005  26.423  0.00  0.00    -0.386 OA
ATOM      8  H   UNL     1       9.010  -6.408  25.899  0.00  0.00    +0.210 HD
ENDBRANCH   5   7
BRANCH   6   9
ATOM      9  O   UNL     1      10.003  -4.487  24.866  0.00  0.00    -0.383 OA
ATOM     10  H   UNL     1      10.470  -5.335  24.756  0.00  0.00    +0.210 HD
ENDBRANCH   6   9
BRANCH   1  11
ATOM     11  O   UNL     1       7.671  -2.353  24.623  0.00  0.00    -0.453 OA
BRANCH  11  22
ATOM     12  C   UNL     1       5.999  -0.592  24.779  0.00  0.00    +0.181 A 
ATOM     13  O   UNL     1       5.532   0.672  24.429  0.00  0.00    -0.451 OA
ATOM     14  C   UNL     1       6.189   1.462  23.543  0.00  0.00    +0.147 A 
ATOM     15  C   UNL     1       7.288   1.020  22.840  0.00  0.00    +0.109 A 
ATOM     16  C   UNL     1       7.867   1.901  21.911  0.00  0.00    +0.135 A 
ATOM     17  C   UNL     1       7.344   3.187  21.694  0.00  0.00    +0.091 A 
ATOM     18  C   UNL     1       6.243   3.605  22.428  0.00  0.00    +0.124 A 
ATOM     19  C   UNL     1       7.752  -0.366  23.100  0.00  0.00    +0.238 A 
ATOM     20  O   UNL     1       8.697  -0.808  22.450  0.00  0.00    -0.283 OA
ATOM     21  C   UNL     1       5.671   2.752  23.367  0.00  0.00    +0.092 A 
ATOM     22  C   UNL     1       7.045  -1.196  24.155  0.00  0.00    +0.214 A 
BRANCH  12  24
ATOM     23  C   UNL     1       4.273  -2.148  25.718  0.00  0.00    +0.015 A 
ATOM     24  C   UNL     1       5.195  -1.090  25.942  0.00  0.00    +0.025 A 
ATOM     25  C   UNL     1       5.237  -0.562  27.235  0.00  0.00    +0.060 A 
ATOM     26  C   UNL     1       4.385  -1.033  28.228  0.00  0.00    +0.159 A 
ATOM     27  C   UNL     1       3.436  -2.008  27.951  0.00  0.00    +0.158 A 
ATOM     28  C   UNL     1       3.385  -2.589  26.700  0.00  0.00    +0.050 A 
BRANCH  26  29
ATOM     29  O   UNL     1       4.466  -0.499  29.484  0.00  0.00    -0.503 OA
ATOM     30  H   UNL     1       4.609  -1.274  30.067  0.00  0.00    +0.292 HD
ENDBRANCH  26  29
BRANCH  27  31
ATOM     31  O   UNL     1       2.565  -2.358  28.941  0.00  0.00    -0.503 OA
ATOM     32  H   UNL     1       1.673  -2.392  28.551  0.00  0.00    +0.292 HD
ENDBRANCH  27  31
ENDBRANCH  12  24
BRANCH  18  33
ATOM     33  O   UNL     1       5.674   4.829  22.253  0.00  0.00    -0.507 OA
ATOM     34  H   UNL     1       4.708   4.749  22.304  0.00  0.00    +0.292 HD
ENDBRANCH  18  33
BRANCH  16  35
ATOM     35  O   UNL     1       8.965   1.579  21.157  0.00  0.00    -0.506 OA
ATOM     36  H   UNL     1       8.809   1.884  20.235  0.00  0.00    +0.292 HD
ENDBRANCH  16  35
ENDBRANCH  11  22
ENDBRANCH   1  11
BRANCH   3  37
ATOM     37  C   UNL     1       5.604  -5.952  22.720  0.00  0.00    +0.190 C 
BRANCH  37  38
ATOM     38  O   UNL     1       5.255  -7.174  23.354  0.00  0.00    -0.392 OA
ATOM     39  H   UNL     1       5.754  -7.895  22.933  0.00  0.00    +0.210 HD
ENDBRANCH  37  38
ENDBRANCH   3  37
BRANCH   4  40
ATOM     40  O   UNL     1       5.391  -5.401  26.078  0.00  0.00    -0.340 OA
BRANCH  40  41
ATOM     41  C   UNL     1       5.124  -6.573  26.845  0.00  0.00    +0.282 C 
ATOM     42  O   UNL     1       4.281  -7.474  26.105  0.00  0.00    -0.341 OA
ATOM     43  C   UNL     1       2.993  -6.920  25.774  0.00  0.00    +0.178 C 
ATOM     44  C   UNL     1       2.211  -6.458  27.015  0.00  0.00    +0.177 C 
ATOM     45  C   UNL     1       3.099  -5.637  27.962  0.00  0.00    +0.179 C 
ATOM     46  C   UNL     1       4.432  -6.342  28.204  0.00  0.00    +0.201 C 
BRANCH  44  47
ATOM     47  O   UNL     1       1.073  -5.689  26.606  0.00  0.00    -0.386 OA
ATOM     48  H   UNL     1       1.071  -5.664  25.629  0.00  0.00    +0.210 HD
ENDBRANCH  44  47
BRANCH  45  49
ATOM     49  O   UNL     1       2.408  -5.447  29.209  0.00  0.00    -0.386 OA
ATOM     50  H   UNL     1       3.092  -5.485  29.909  0.00  0.00    +0.210 HD
ENDBRANCH  45  49
BRANCH  46  51
ATOM     51  O   UNL     1       4.187  -7.598  28.873  0.00  0.00    -0.384 OA
ATOM     52  H   UNL     1       4.364  -7.457  29.837  0.00  0.00    +0.210 HD
ENDBRANCH  46  51
BRANCH  43  53
ATOM     53  C   UNL     1       2.173  -7.996  25.035  0.00  0.00    +0.190 C 
BRANCH  53  54
ATOM     54  O   UNL     1       2.628  -8.189  23.699  0.00  0.00    -0.392 OA
ATOM     55  H   UNL     1       3.374  -7.589  23.551  0.00  0.00    +0.210 HD
ENDBRANCH  53  54
ENDBRANCH  43  53
ENDBRANCH  40  41
ENDBRANCH   4  40
TORSDOF 18
ENDMDL
MODEL 4
REMARK VINA RESULT:      -7.3      2.373      9.545
REMARK  Name = 
REMARK  18 active torsions:
REMARK  status: ('A' for Active; 'I' for Inactive)
REMARK    1  A    between atoms: C_3  and  O_49
REMARK    2  A    between atoms: C_4  and  O_48
REMARK    3  A    between atoms: C_6  and  C_7
REMARK    4  A    between atoms: C_8  and  O_20
REMARK    5  A    between atoms: C_12  and  O_19
REMARK    6  A    between atoms: C_14  and  O_18
REMARK    7  A    between atoms: O_20  and  C_21
REMARK    8  A    between atoms: C_23  and  O_47
REMARK    9  A    between atoms: C_24  and  O_46
REMARK   10  A    between atoms: C_25  and  O_31
REMARK   11  A    between atoms: C_27  and  C_29
REMARK   12  A    between atoms: C_29  and  O_30
REMARK   13  A    between atoms: O_31  and  C_32
REMARK   14  A    between atoms: C_34  and  O_45
REMARK   15  A    between atoms: C_36  and  O_44
REMARK   16  A    between atoms: C_37  and  O_43
REMARK   17  A    between atoms: C_39  and  C_41
REMARK   18  A    between atoms: C_41  and  O_42
REMARK                            x       y       z     vdW  Elec       q    Type
REMARK                         _______ _______ _______ _____ _____    ______ ____
ROOT
ATOM      1  C   UNL     1       7.749  -2.146  22.691  0.00  0.00    +0.340 C 
ATOM      2  O   UNL     1       6.856  -3.067  22.032  0.00  0.00    -0.331 OA
ATOM      3  C   UNL     1       6.579  -4.357  22.632  0.00  0.00    +0.179 C 
ATOM      4  C   UNL     1       7.527  -4.909  23.735  0.00  0.00    +0.184 C 
ATOM      5  C   UNL     1       8.546  -3.879  24.242  0.00  0.00    +0.180 C 
ATOM      6  C   UNL     1       8.979  -2.983  23.075  0.00  0.00    +0.214 C 
ENDROOT
BRANCH   5   7
ATOM      7  O   UNL     1       9.669  -4.599  24.778  0.00  0.00    -0.386 OA
ATOM      8  H   UNL     1      10.283  -4.740  24.030  0.00  0.00    +0.210 HD
ENDBRANCH   5   7
BRANCH   6   9
ATOM      9  O   UNL     1      10.162  -2.258  23.387  0.00  0.00    -0.383 OA
ATOM     10  H   UNL     1      10.516  -2.572  24.238  0.00  0.00    +0.210 HD
ENDBRANCH   6   9
BRANCH   1  11
ATOM     11  O   UNL     1       7.112  -1.513  23.829  0.00  0.00    -0.453 OA
BRANCH  11  22
ATOM     12  C   UNL     1       6.690   0.510  25.113  0.00  0.00    +0.181 A 
ATOM     13  O   UNL     1       6.989   1.834  25.424  0.00  0.00    -0.451 OA
ATOM     14  C   UNL     1       7.952   2.528  24.768  0.00  0.00    +0.147 A 
ATOM     15  C   UNL     1       8.611   2.013  23.672  0.00  0.00    +0.109 A 
ATOM     16  C   UNL     1       9.558   2.831  23.035  0.00  0.00    +0.135 A 
ATOM     17  C   UNL     1       9.825   4.135  23.487  0.00  0.00    +0.091 A 
ATOM     18  C   UNL     1       9.153   4.618  24.601  0.00  0.00    +0.124 A 
ATOM     19  C   UNL     1       8.240   0.643  23.235  0.00  0.00    +0.238 A 
ATOM     20  O   UNL     1       8.771   0.176  22.231  0.00  0.00    -0.283 OA
ATOM     21  C   UNL     1       8.227   3.812  25.256  0.00  0.00    +0.092 A 
ATOM     22  C   UNL     1       7.217  -0.137  24.039  0.00  0.00    +0.214 A 
BRANCH  12  24
ATOM     23  C   UNL     1       5.863   0.507  27.479  0.00  0.00    +0.015 A 
ATOM     24  C   UNL     1       5.770  -0.030  26.167  0.00  0.00    +0.025 A 
ATOM     25  C   UNL     1       4.852  -1.067  25.979  0.00  0.00    +0.060 A 
ATOM     26  C   UNL     1       4.105  -1.561  27.043  0.00  0.00    +0.159 A 
ATOM     27  C   UNL     1       4.284  -1.071  28.329  0.00  0.00    +0.158 A 
ATOM     28  C   UNL     1       5.149  -0.019  28.556  0.00  0.00    +0.050 A 
BRANCH  26  29
ATOM     29  O   UNL     1       3.207  -2.567  26.816  0.00  0.00    -0.503 OA
ATOM     30  H   UNL     1       2.341  -2.112  26.767  0.00  0.00    +0.292 HD
ENDBRANCH  26  29
BRANCH  27  31
ATOM     31  O   UNL     1       3.592  -1.664  29.345  0.00  0.00    -0.503 OA
ATOM     32  H   UNL     1       2.645  -1.618  29.123  0.00  0.00    +0.292 HD
ENDBRANCH  27  31
ENDBRANCH  12  24
BRANCH  18  33
ATOM     33  O   UNL     1       9.348   5.877  25.080  0.00  0.00    -0.507 OA
ATOM     34  H   UNL     1       8.641   6.101  25.706  0.00  0.00    +0.292 HD
ENDBRANCH  18  33
BRANCH  16  35
ATOM     35  O   UNL     1      10.280   2.430  21.942  0.00  0.00    -0.506 OA
ATOM     36  H   UNL     1      10.808   1.638  22.193  0.00  0.00    +0.292 HD
ENDBRANCH  16  35
ENDBRANCH  11  22
ENDBRANCH   1  11
BRANCH   3  37
ATOM     37  C   UNL     1       6.609  -5.389  21.469  0.00  0.00    +0.190 C 
BRANCH  37  38
ATOM     38  O   UNL     1       6.418  -6.731  21.892  0.00  0.00    -0.392 OA
ATOM     39  H   UNL     1       5.708  -6.748  22.557  0.00  0.00    +0.210 HD
ENDBRANCH  37  38
ENDBRANCH   3  37
BRANCH   4  40
ATOM     40  O   UNL     1       6.810  -5.441  24.871  0.00  0.00    -0.340 OA
BRANCH  40  41
ATOM     41  C   UNL     1       5.527  -4.887  25.154  0.00  0.00    +0.282 C 
ATOM     42  O   UNL     1       5.478  -4.400  26.507  0.00  0.00    -0.341 OA
ATOM     43  C   UNL     1       5.690  -5.424  27.498  0.00  0.00    +0.178 C 
ATOM     44  C   UNL     1       4.683  -6.580  27.379  0.00  0.00    +0.177 C 
ATOM     45  C   UNL     1       4.531  -7.042  25.923  0.00  0.00    +0.179 C 
ATOM     46  C   UNL     1       4.331  -5.848  24.992  0.00  0.00    +0.201 C 
BRANCH  44  47
ATOM     47  O   UNL     1       5.104  -7.670  28.207  0.00  0.00    -0.386 OA
ATOM     48  H   UNL     1       5.879  -8.084  27.777  0.00  0.00    +0.210 HD
ENDBRANCH  44  47
BRANCH  45  49
ATOM     49  O   UNL     1       3.409  -7.936  25.826  0.00  0.00    -0.386 OA
ATOM     50  H   UNL     1       2.609  -7.371  25.818  0.00  0.00    +0.210 HD
ENDBRANCH  45  49
BRANCH  46  51
ATOM     51  O   UNL     1       3.093  -5.187  25.333  0.00  0.00    -0.384 OA
ATOM     52  H   UNL     1       3.326  -4.294  25.692  0.00  0.00    +0.210 HD
ENDBRANCH  46  51
BRANCH  43  53
ATOM     53  C   UNL     1       5.561  -4.786  28.895  0.00  0.00    +0.190 C 
BRANCH  53  54
ATOM     54  O   UNL     1       6.183  -5.578  29.903  0.00  0.00    -0.392 OA
ATOM     55  H   UNL     1       6.731  -4.991  30.444  0.00  0.00    +0.210 HD
ENDBRANCH  53  54
ENDBRANCH  43  53
ENDBRANCH  40  41
ENDBRANCH   4  40
TORSDOF 18
ENDMDL
MODEL 5
REMARK VINA RESULT:      -7.2      2.303      9.228
REMARK  Name = 
REMARK  18 active torsions:
REMARK  status: ('A' for Active; 'I' for Inactive)
REMARK    1  A    between atoms: C_3  and  O_49
REMARK    2  A    between atoms: C_4  and  O_48
REMARK    3  A    between atoms: C_6  and  C_7
REMARK    4  A    between atoms: C_8  and  O_20
REMARK    5  A    between atoms: C_12  and  O_19
REMARK    6  A    between atoms: C_14  and  O_18
REMARK    7  A    between atoms: O_20  and  C_21
REMARK    8  A    between atoms: C_23  and  O_47
REMARK    9  A    between atoms: C_24  and  O_46
REMARK   10  A    between atoms: C_25  and  O_31
REMARK   11  A    between atoms: C_27  and  C_29
REMARK   12  A    between atoms: C_29  and  O_30
REMARK   13  A    between atoms: O_31  and  C_32
REMARK   14  A    between atoms: C_34  and  O_45
REMARK   15  A    between atoms: C_36  and  O_44
REMARK   16  A    between atoms: C_37  and  O_43
REMARK   17  A    between atoms: C_39  and  C_41
REMARK   18  A    between atoms: C_41  and  O_42
REMARK                            x       y       z     vdW  Elec       q    Type
REMARK                         _______ _______ _______ _____ _____    ______ ____
ROOT
ATOM      1  C   UNL     1       8.110  -1.308  23.151  0.00  0.00    +0.340 C 
ATOM      2  O   UNL     1       6.718  -1.649  22.989  0.00  0.00    -0.331 OA
ATOM      3  C   UNL     1       6.152  -2.748  23.745  0.00  0.00    +0.179 C 
ATOM      4  C   UNL     1       7.098  -3.796  24.399  0.00  0.00    +0.184 C 
ATOM      5  C   UNL     1       8.579  -3.394  24.363  0.00  0.00    +0.180 C 
ATOM      6  C   UNL     1       8.866  -2.643  23.058  0.00  0.00    +0.214 C 
ENDROOT
BRANCH   5   7
ATOM      7  O   UNL     1       9.362  -4.597  24.443  0.00  0.00    -0.386 OA
ATOM      8  H   UNL     1       9.835  -4.671  23.591  0.00  0.00    +0.210 HD
ENDBRANCH   5   7
BRANCH   6   9
ATOM      9  O   UNL     1      10.261  -2.560  22.800  0.00  0.00    -0.383 OA
ATOM     10  H   UNL     1      10.401  -2.187  21.910  0.00  0.00    +0.210 HD
ENDBRANCH   6   9
BRANCH   1  11
ATOM     11  O   UNL     1       8.342  -0.608  24.398  0.00  0.00    -0.453 OA
BRANCH  11  22
ATOM     12  C   UNL     1       7.416   1.427  25.359  0.00  0.00    +0.181 A 
ATOM     13  O   UNL     1       7.473   2.801  25.577  0.00  0.00    -0.451 OA
ATOM     14  C   UNL     1       8.450   3.575  25.041  0.00  0.00    +0.147 A 
ATOM     15  C   UNL     1       9.374   3.077  24.148  0.00  0.00    +0.109 A 
ATOM     16  C   UNL     1      10.315   3.973  23.613  0.00  0.00    +0.135 A 
ATOM     17  C   UNL     1      10.316   5.333  23.966  0.00  0.00    +0.091 A 
ATOM     18  C   UNL     1       9.380   5.799  24.878  0.00  0.00    +0.124 A 
ATOM     19  C   UNL     1       9.277   1.637  23.798  0.00  0.00    +0.238 A 
ATOM     20  O   UNL     1      10.053   1.175  22.965  0.00  0.00    -0.283 OA
ATOM     21  C   UNL     1       8.454   4.920  25.432  0.00  0.00    +0.092 A 
ATOM     22  C   UNL     1       8.224   0.781  24.477  0.00  0.00    +0.214 A 
BRANCH  12  24
ATOM     23  C   UNL     1       6.532   1.046  27.673  0.00  0.00    +0.015 A 
ATOM     24  C   UNL     1       6.382   0.843  26.275  0.00  0.00    +0.025 A 
ATOM     25  C   UNL     1       5.297   0.062  25.869  0.00  0.00    +0.060 A 
ATOM     26  C   UNL     1       4.441  -0.512  26.804  0.00  0.00    +0.159 A 
ATOM     27  C   UNL     1       4.669  -0.364  28.165  0.00  0.00    +0.158 A 
ATOM     28  C   UNL     1       5.703   0.433  28.613  0.00  0.00    +0.050 A 
BRANCH  26  29
ATOM     29  O   UNL     1       3.383  -1.260  26.367  0.00  0.00    -0.503 OA
ATOM     30  H   UNL     1       2.673  -0.604  26.209  0.00  0.00    +0.292 HD
ENDBRANCH  26  29
BRANCH  27  31
ATOM     31  O   UNL     1       3.851  -1.032  29.030  0.00  0.00    -0.503 OA
ATOM     32  H   UNL     1       2.931  -0.850  28.767  0.00  0.00    +0.292 HD
ENDBRANCH  27  31
ENDBRANCH  12  24
BRANCH  18  33
ATOM     33  O   UNL     1       9.311   7.108  25.247  0.00  0.00    -0.507 OA
ATOM     34  H   UNL     1       9.486   7.187  26.198  0.00  0.00    +0.292 HD
ENDBRANCH  18  33
BRANCH  16  35
ATOM     35  O   UNL     1      11.286   3.596  22.723  0.00  0.00    -0.506 OA
ATOM     36  H   UNL     1      11.229   4.184  21.936  0.00  0.00    +0.292 HD
ENDBRANCH  16  35
ENDBRANCH  11  22
ENDBRANCH   1  11
BRANCH   3  37
ATOM     37  C   UNL     1       5.246  -3.532  22.754  0.00  0.00    +0.190 C 
BRANCH  37  38
ATOM     38  O   UNL     1       5.778  -3.619  21.440  0.00  0.00    -0.392 OA
ATOM     39  H   UNL     1       5.765  -4.551  21.161  0.00  0.00    +0.210 HD
ENDBRANCH  37  38
ENDBRANCH   3  37
BRANCH   4  40
ATOM     40  O   UNL     1       6.738  -4.095  25.767  0.00  0.00    -0.340 OA
BRANCH  40  41
ATOM     41  C   UNL     1       6.220  -5.395  26.038  0.00  0.00    +0.282 C 
ATOM     42  O   UNL     1       4.877  -5.514  25.538  0.00  0.00    -0.341 OA
ATOM     43  C   UNL     1       3.951  -4.589  26.140  0.00  0.00    +0.178 C 
ATOM     44  C   UNL     1       3.894  -4.722  27.671  0.00  0.00    +0.177 C 
ATOM     45  C   UNL     1       5.302  -4.792  28.279  0.00  0.00    +0.179 C 
ATOM     46  C   UNL     1       6.169  -5.799  27.527  0.00  0.00    +0.201 C 
BRANCH  44  47
ATOM     47  O   UNL     1       3.167  -3.617  28.221  0.00  0.00    -0.386 OA
ATOM     48  H   UNL     1       2.242  -3.906  28.347  0.00  0.00    +0.210 HD
ENDBRANCH  44  47
BRANCH  45  49
ATOM     49  O   UNL     1       5.199  -5.167  29.663  0.00  0.00    -0.386 OA
ATOM     50  H   UNL     1       5.910  -4.683  30.132  0.00  0.00    +0.210 HD
ENDBRANCH  45  49
BRANCH  46  51
ATOM     51  O   UNL     1       5.601  -7.118  27.679  0.00  0.00    -0.384 OA
ATOM     52  H   UNL     1       4.678  -7.003  28.018  0.00  0.00    +0.210 HD
ENDBRANCH  46  51
BRANCH  43  53
ATOM     53  C   UNL     1       2.548  -4.854  25.559  0.00  0.00    +0.190 C 
BRANCH  53  54
ATOM     54  O   UNL     1       1.709  -3.706  25.646  0.00  0.00    -0.392 OA
ATOM     55  H   UNL     1       1.295  -3.707  26.521  0.00  0.00    +0.210 HD
ENDBRANCH  53  54
ENDBRANCH  43  53
ENDBRANCH  40  41
ENDBRANCH   4  40
TORSDOF 18
ENDMDL
MODEL 6
REMARK VINA RESULT:      -7.1      2.811      8.938
REMARK  Name = 
REMARK  18 active torsions:
REMARK  status: ('A' for Active; 'I' for Inactive)
REMARK    1  A    between atoms: C_3  and  O_49
REMARK    2  A    between atoms: C_4  and  O_48
REMARK    3  A    between atoms: C_6  and  C_7
REMARK    4  A    between atoms: C_8  and  O_20
REMARK    5  A    between atoms: C_12  and  O_19
REMARK    6  A    between atoms: C_14  and  O_18
REMARK    7  A    between atoms: O_20  and  C_21
REMARK    8  A    between atoms: C_23  and  O_47
REMARK    9  A    between atoms: C_24  and  O_46
REMARK   10  A    between atoms: C_25  and  O_31
REMARK   11  A    between atoms: C_27  and  C_29
REMARK   12  A    between atoms: C_29  and  O_30
REMARK   13  A    between atoms: O_31  and  C_32
REMARK   14  A    between atoms: C_34  and  O_45
REMARK   15  A    between atoms: C_36  and  O_44
REMARK   16  A    between atoms: C_37  and  O_43
REMARK   17  A    between atoms: C_39  and  C_41
REMARK   18  A    between atoms: C_41  and  O_42
REMARK                            x       y       z     vdW  Elec       q    Type
REMARK                         _______ _______ _______ _____ _____    ______ ____
ROOT
ATOM      1  C   UNL     1       4.860  -0.784  27.497  0.00  0.00    +0.340 C 
ATOM      2  O   UNL     1       4.983  -1.797  28.517  0.00  0.00    -0.331 OA
ATOM      3  C   UNL     1       4.278  -3.054  28.374  0.00  0.00    +0.179 C 
ATOM      4  C   UNL     1       3.096  -3.160  27.366  0.00  0.00    +0.184 C 
ATOM      5  C   UNL     1       2.968  -1.942  26.440  0.00  0.00    +0.180 C 
ATOM      6  C   UNL     1       3.354  -0.677  27.215  0.00  0.00    +0.214 C 
ENDROOT
BRANCH   5   7
ATOM      7  O   UNL     1       1.603  -1.873  25.995  0.00  0.00    -0.386 OA
ATOM      8  H   UNL     1       1.065  -1.702  26.793  0.00  0.00    +0.210 HD
ENDBRANCH   5   7
BRANCH   6   9
ATOM      9  O   UNL     1       2.922   0.499  26.542  0.00  0.00    -0.383 OA
ATOM     10  H   UNL     1       3.641   1.156  26.553  0.00  0.00    +0.210 HD
ENDBRANCH   6   9
BRANCH   1  11
ATOM     11  O   UNL     1       5.638  -1.121  26.321  0.00  0.00    -0.453 OA
BRANCH  11  22
ATOM     12  C   UNL     1       7.968  -0.945  25.643  0.00  0.00    +0.181 A 
ATOM     13  O   UNL     1       9.019  -0.219  25.089  0.00  0.00    -0.451 OA
ATOM     14  C   UNL     1       8.873   1.070  24.692  0.00  0.00    +0.147 A 
ATOM     15  C   UNL     1       7.716   1.783  24.923  0.00  0.00    +0.109 A 
ATOM     16  C   UNL     1       7.684   3.126  24.514  0.00  0.00    +0.135 A 
ATOM     17  C   UNL     1       8.791   3.733  23.898  0.00  0.00    +0.091 A 
ATOM     18  C   UNL     1       9.936   2.983  23.669  0.00  0.00    +0.124 A 
ATOM     19  C   UNL     1       6.608   1.078  25.616  0.00  0.00    +0.238 A 
ATOM     20  O   UNL     1       5.584   1.702  25.884  0.00  0.00    -0.283 OA
ATOM     21  C   UNL     1       9.976   1.645  24.048  0.00  0.00    +0.092 A 
ATOM     22  C   UNL     1       6.774  -0.386  25.975  0.00  0.00    +0.214 A 
BRANCH  12  24
ATOM     23  C   UNL     1       9.335  -2.873  24.807  0.00  0.00    +0.015 A 
ATOM     24  C   UNL     1       8.384  -2.382  25.742  0.00  0.00    +0.025 A 
ATOM     25  C   UNL     1       7.871  -3.307  26.655  0.00  0.00    +0.060 A 
ATOM     26  C   UNL     1       8.254  -4.644  26.609  0.00  0.00    +0.159 A 
ATOM     27  C   UNL     1       9.119  -5.105  25.627  0.00  0.00    +0.158 A 
ATOM     28  C   UNL     1       9.684  -4.221  24.730  0.00  0.00    +0.050 A 
BRANCH  26  29
ATOM     29  O   UNL     1       7.739  -5.516  27.528  0.00  0.00    -0.503 OA
ATOM     30  H   UNL     1       7.624  -6.351  27.030  0.00  0.00    +0.292 HD
ENDBRANCH  26  29
BRANCH  27  31
ATOM     31  O   UNL     1       9.379  -6.444  25.576  0.00  0.00    -0.503 OA
ATOM     32  H   UNL     1       8.628  -6.907  25.990  0.00  0.00    +0.292 HD
ENDBRANCH  27  31
ENDBRANCH  12  24
BRANCH  18  33
ATOM     33  O   UNL     1      11.051   3.514  23.095  0.00  0.00    -0.507 OA
ATOM     34  H   UNL     1      10.864   4.416  22.791  0.00  0.00    +0.292 HD
ENDBRANCH  18  33
BRANCH  16  35
ATOM     35  O   UNL     1       6.590   3.934  24.683  0.00  0.00    -0.506 OA
ATOM     36  H   UNL     1       6.635   4.660  24.020  0.00  0.00    +0.292 HD
ENDBRANCH  16  35
ENDBRANCH  11  22
ENDBRANCH   1  11
BRANCH   3  37
ATOM     37  C   UNL     1       3.690  -3.381  29.776  0.00  0.00    +0.190 C 
BRANCH  37  38
ATOM     38  O   UNL     1       2.512  -4.174  29.731  0.00  0.00    -0.392 OA
ATOM     39  H   UNL     1       2.238  -4.374  30.642  0.00  0.00    +0.210 HD
ENDBRANCH  37  38
ENDBRANCH   3  37
BRANCH   4  40
ATOM     40  O   UNL     1       3.165  -4.351  26.550  0.00  0.00    -0.340 OA
BRANCH  40  41
ATOM     41  C   UNL     1       4.309  -5.187  26.707  0.00  0.00    +0.282 C 
ATOM     42  O   UNL     1       5.223  -4.994  25.612  0.00  0.00    -0.341 OA
ATOM     43  C   UNL     1       4.665  -5.329  24.327  0.00  0.00    +0.178 C 
ATOM     44  C   UNL     1       4.155  -6.779  24.262  0.00  0.00    +0.177 C 
ATOM     45  C   UNL     1       3.316  -7.131  25.498  0.00  0.00    +0.179 C 
ATOM     46  C   UNL     1       4.027  -6.702  26.779  0.00  0.00    +0.201 C 
BRANCH  44  47
ATOM     47  O   UNL     1       3.387  -6.963  23.067  0.00  0.00    -0.386 OA
ATOM     48  H   UNL     1       2.469  -7.163  23.336  0.00  0.00    +0.210 HD
ENDBRANCH  44  47
BRANCH  45  49
ATOM     49  O   UNL     1       3.078  -8.549  25.518  0.00  0.00    -0.386 OA
ATOM     50  H   UNL     1       2.119  -8.669  25.361  0.00  0.00    +0.210 HD
ENDBRANCH  45  49
BRANCH  46  51
ATOM     51  O   UNL     1       5.259  -7.446  26.906  0.00  0.00    -0.384 OA
ATOM     52  H   UNL     1       5.212  -8.203  26.271  0.00  0.00    +0.210 HD
ENDBRANCH  46  51
BRANCH  43  53
ATOM     53  C   UNL     1       5.754  -5.131  23.255  0.00  0.00    +0.190 C 
BRANCH  53  54
ATOM     54  O   UNL     1       5.199  -4.978  21.952  0.00  0.00    -0.392 OA
ATOM     55  H   UNL     1       5.908  -4.686  21.360  0.00  0.00    +0.210 HD
ENDBRANCH  53  54
ENDBRANCH  43  53
ENDBRANCH  40  41
ENDBRANCH   4  40
TORSDOF 18
ENDMDL
MODEL 7
REMARK VINA RESULT:      -7.0      1.783      4.444
REMARK  Name = 
REMARK  18 active torsions:
REMARK  status: ('A' for Active; 'I' for Inactive)
REMARK    1  A    between atoms: C_3  and  O_49
REMARK    2  A    between atoms: C_4  and  O_48
REMARK    3  A    between atoms: C_6  and  C_7
REMARK    4  A    between atoms: C_8  and  O_20
REMARK    5  A    between atoms: C_12  and  O_19
REMARK    6  A    between atoms: C_14  and  O_18
REMARK    7  A    between atoms: O_20  and  C_21
REMARK    8  A    between atoms: C_23  and  O_47
REMARK    9  A    between atoms: C_24  and  O_46
REMARK   10  A    between atoms: C_25  and  O_31
REMARK   11  A    between atoms: C_27  and  C_29
REMARK   12  A    between atoms: C_29  and  O_30
REMARK   13  A    between atoms: O_31  and  C_32
REMARK   14  A    between atoms: C_34  and  O_45
REMARK   15  A    between atoms: C_36  and  O_44
REMARK   16  A    between atoms: C_37  and  O_43
REMARK   17  A    between atoms: C_39  and  C_41
REMARK   18  A    between atoms: C_41  and  O_42
REMARK                            x       y       z     vdW  Elec       q    Type
REMARK                         _______ _______ _______ _____ _____    ______ ____
ROOT
ATOM      1  C   UNL     1       8.943  -1.881  23.172  0.00  0.00    +0.340 C 
ATOM      2  O   UNL     1       9.513  -1.206  24.312  0.00  0.00    -0.331 OA
ATOM      3  C   UNL     1       9.427   0.236  24.413  0.00  0.00    +0.179 C 
ATOM      4  C   UNL     1       9.102   1.076  23.144  0.00  0.00    +0.184 C 
ATOM      5  C   UNL     1       8.663   0.227  21.942  0.00  0.00    +0.180 C 
ATOM      6  C   UNL     1       9.438  -1.095  21.949  0.00  0.00    +0.214 C 
ENDROOT
BRANCH   5   7
ATOM      7  O   UNL     1       8.944   0.979  20.749  0.00  0.00    -0.386 OA
ATOM      8  H   UNL     1       8.166   0.867  20.168  0.00  0.00    +0.210 HD
ENDBRANCH   5   7
BRANCH   6   9
ATOM      9  O   UNL     1       9.347  -1.759  20.695  0.00  0.00    -0.383 OA
ATOM     10  H   UNL     1       8.462  -2.156  20.606  0.00  0.00    +0.210 HD
ENDBRANCH   6   9
BRANCH   1  11
ATOM     11  O   UNL     1       7.498  -1.945  23.263  0.00  0.00    -0.453 OA
BRANCH  11  22
ATOM     12  C   UNL     1       6.283  -2.415  25.318  0.00  0.00    +0.181 A 
ATOM     13  O   UNL     1       5.474  -3.249  26.086  0.00  0.00    -0.451 OA
ATOM     14  C   UNL     1       5.082  -4.472  25.650  0.00  0.00    +0.147 A 
ATOM     15  C   UNL     1       5.557  -5.021  24.478  0.00  0.00    +0.109 A 
ATOM     16  C   UNL     1       5.125  -6.314  24.140  0.00  0.00    +0.135 A 
ATOM     17  C   UNL     1       4.245  -7.034  24.967  0.00  0.00    +0.091 A 
ATOM     18  C   UNL     1       3.776  -6.446  26.134  0.00  0.00    +0.124 A 
ATOM     19  C   UNL     1       6.514  -4.210  23.684  0.00  0.00    +0.238 A 
ATOM     20  O   UNL     1       6.996  -4.692  22.663  0.00  0.00    -0.283 OA
ATOM     21  C   UNL     1       4.178  -5.158  26.472  0.00  0.00    +0.092 A 
ATOM     22  C   UNL     1       6.870  -2.813  24.158  0.00  0.00    +0.214 A 
BRANCH  12  24
ATOM     23  C   UNL     1       7.274  -0.847  27.005  0.00  0.00    +0.015 A 
ATOM     24  C   UNL     1       6.327  -1.065  25.969  0.00  0.00    +0.025 A 
ATOM     25  C   UNL     1       5.468  -0.002  25.675  0.00  0.00    +0.060 A 
ATOM     26  C   UNL     1       5.527   1.185  26.397  0.00  0.00    +0.159 A 
ATOM     27  C   UNL     1       6.407   1.331  27.460  0.00  0.00    +0.158 A 
ATOM     28  C   UNL     1       7.303   0.325  27.761  0.00  0.00    +0.050 A 
BRANCH  26  29
ATOM     29  O   UNL     1       4.678   2.206  26.070  0.00  0.00    -0.503 OA
ATOM     30  H   UNL     1       4.501   2.655  26.923  0.00  0.00    +0.292 HD
ENDBRANCH  26  29
BRANCH  27  31
ATOM     31  O   UNL     1       6.349   2.482  28.190  0.00  0.00    -0.503 OA
ATOM     32  H   UNL     1       6.897   3.147  27.737  0.00  0.00    +0.292 HD
ENDBRANCH  27  31
ENDBRANCH  12  24
BRANCH  18  33
ATOM     33  O   UNL     1       2.940  -7.095  26.990  0.00  0.00    -0.507 OA
ATOM     34  H   UNL     1       2.513  -6.452  27.578  0.00  0.00    +0.292 HD
ENDBRANCH  18  33
BRANCH  16  35
ATOM     35  O   UNL     1       5.522  -6.962  23.000  0.00  0.00    -0.506 OA
ATOM     36  H   UNL     1       5.279  -7.912  23.083  0.00  0.00    +0.292 HD
ENDBRANCH  16  35
ENDBRANCH  11  22
ENDBRANCH   1  11
BRANCH   3  37
ATOM     37  C   UNL     1      10.818   0.718  24.914  0.00  0.00    +0.190 C 
BRANCH  37  38
ATOM     38  O   UNL     1      11.339   1.818  24.182  0.00  0.00    -0.392 OA
ATOM     39  H   UNL     1      12.291   1.676  24.045  0.00  0.00    +0.210 HD
ENDBRANCH  37  38
ENDBRANCH   3  37
BRANCH   4  40
ATOM     40  O   UNL     1       8.095   2.084  23.385  0.00  0.00    -0.340 OA
BRANCH  40  41
ATOM     41  C   UNL     1       8.382   3.413  22.954  0.00  0.00    +0.282 C 
ATOM     42  O   UNL     1       8.700   4.247  24.082  0.00  0.00    -0.341 OA
ATOM     43  C   UNL     1       7.627   4.367  25.035  0.00  0.00    +0.178 C 
ATOM     44  C   UNL     1       6.333   4.907  24.403  0.00  0.00    +0.177 C 
ATOM     45  C   UNL     1       6.015   4.192  23.082  0.00  0.00    +0.179 C 
ATOM     46  C   UNL     1       7.250   4.128  22.187  0.00  0.00    +0.201 C 
BRANCH  44  47
ATOM     47  O   UNL     1       5.248   4.755  25.327  0.00  0.00    -0.386 OA
ATOM     48  H   UNL     1       4.473   5.214  24.949  0.00  0.00    +0.210 HD
ENDBRANCH  44  47
BRANCH  45  49
ATOM     49  O   UNL     1       4.955   4.894  22.410  0.00  0.00    -0.386 OA
ATOM     50  H   UNL     1       4.302   4.213  22.143  0.00  0.00    +0.210 HD
ENDBRANCH  45  49
BRANCH  46  51
ATOM     51  O   UNL     1       7.644   5.471  21.831  0.00  0.00    -0.384 OA
ATOM     52  H   UNL     1       8.479   5.674  22.323  0.00  0.00    +0.210 HD
ENDBRANCH  46  51
BRANCH  43  53
ATOM     53  C   UNL     1       8.075   5.321  26.158  0.00  0.00    +0.190 C 
BRANCH  53  54
ATOM     54  O   UNL     1       7.500   4.974  27.415  0.00  0.00    -0.392 OA
ATOM     55  H   UNL     1       8.220   4.891  28.057  0.00  0.00    +0.210 HD
ENDBRANCH  53  54
ENDBRANCH  43  53
ENDBRANCH  40  41
ENDBRANCH   4  40
TORSDOF 18
ENDMDL
MODEL 8
REMARK VINA RESULT:      -6.9      2.387      8.022
REMARK  Name = 
REMARK  18 active torsions:
REMARK  status: ('A' for Active; 'I' for Inactive)
REMARK    1  A    between atoms: C_3  and  O_49
REMARK    2  A    between atoms: C_4  and  O_48
REMARK    3  A    between atoms: C_6  and  C_7
REMARK    4  A    between atoms: C_8  and  O_20
REMARK    5  A    between atoms: C_12  and  O_19
REMARK    6  A    between atoms: C_14  and  O_18
REMARK    7  A    between atoms: O_20  and  C_21
REMARK    8  A    between atoms: C_23  and  O_47
REMARK    9  A    between atoms: C_24  and  O_46
REMARK   10  A    between atoms: C_25  and  O_31
REMARK   11  A    between atoms: C_27  and  C_29
REMARK   12  A    between atoms: C_29  and  O_30
REMARK   13  A    between atoms: O_31  and  C_32
REMARK   14  A    between atoms: C_34  and  O_45
REMARK   15  A    between atoms: C_36  and  O_44
REMARK   16  A    between atoms: C_37  and  O_43
REMARK   17  A    between atoms: C_39  and  C_41
REMARK   18  A    between atoms: C_41  and  O_42
REMARK                            x       y       z     vdW  Elec       q    Type
REMARK                         _______ _______ _______ _____ _____    ______ ____
ROOT
ATOM      1  C   UNL     1       7.870   0.655  23.151  0.00  0.00    +0.340 C 
ATOM      2  O   UNL     1       6.700  -0.182  23.046  0.00  0.00    -0.331 OA
ATOM      3  C   UNL     1       6.781  -1.583  23.409  0.00  0.00    +0.179 C 
ATOM      4  C   UNL     1       8.174  -2.269  23.512  0.00  0.00    +0.184 C 
ATOM      5  C   UNL     1       9.350  -1.285  23.446  0.00  0.00    +0.180 C 
ATOM      6  C   UNL     1       8.999  -0.145  22.483  0.00  0.00    +0.214 C 
ENDROOT
BRANCH   5   7
ATOM      7  O   UNL     1      10.502  -2.009  22.983  0.00  0.00    -0.386 OA
ATOM      8  H   UNL     1      10.465  -1.984  22.006  0.00  0.00    +0.210 HD
ENDBRANCH   5   7
BRANCH   6   9
ATOM      9  O   UNL     1      10.155   0.593  22.105  0.00  0.00    -0.383 OA
ATOM     10  H   UNL     1       9.885   1.482  21.814  0.00  0.00    +0.210 HD
ENDBRANCH   6   9
BRANCH   1  11
ATOM     11  O   UNL     1       8.153   0.998  24.530  0.00  0.00    -0.453 OA
BRANCH  11  22
ATOM     12  C   UNL     1       6.482   2.631  25.209  0.00  0.00    +0.181 A 
ATOM     13  O   UNL     1       5.336   2.969  25.926  0.00  0.00    -0.451 OA
ATOM     14  C   UNL     1       4.706   2.082  26.735  0.00  0.00    +0.147 A 
ATOM     15  C   UNL     1       5.222   0.832  26.998  0.00  0.00    +0.109 A 
ATOM     16  C   UNL     1       4.515   0.006  27.888  0.00  0.00    +0.135 A 
ATOM     17  C   UNL     1       3.325   0.436  28.499  0.00  0.00    +0.091 A 
ATOM     18  C   UNL     1       2.826   1.696  28.202  0.00  0.00    +0.124 A 
ATOM     19  C   UNL     1       6.505   0.472  26.342  0.00  0.00    +0.238 A 
ATOM     20  O   UNL     1       7.018  -0.614  26.598  0.00  0.00    -0.283 OA
ATOM     21  C   UNL     1       3.504   2.517  27.307  0.00  0.00    +0.092 A 
ATOM     22  C   UNL     1       7.144   1.456  25.380  0.00  0.00    +0.214 A 
BRANCH  12  24
ATOM     23  C   UNL     1       5.760   4.127  23.332  0.00  0.00    +0.015 A 
ATOM     24  C   UNL     1       6.780   3.736  24.241  0.00  0.00    +0.025 A 
ATOM     25  C   UNL     1       8.009   4.389  24.119  0.00  0.00    +0.060 A 
ATOM     26  C   UNL     1       8.217   5.342  23.127  0.00  0.00    +0.159 A 
ATOM     27  C   UNL     1       7.226   5.636  22.201  0.00  0.00    +0.158 A 
ATOM     28  C   UNL     1       5.982   5.047  22.307  0.00  0.00    +0.050 A 
BRANCH  26  29
ATOM     29  O   UNL     1       9.430   5.968  23.049  0.00  0.00    -0.503 OA
ATOM     30  H   UNL     1       9.906   5.675  23.853  0.00  0.00    +0.292 HD
ENDBRANCH  26  29
BRANCH  27  31
ATOM     31  O   UNL     1       7.524   6.507  21.194  0.00  0.00    -0.503 OA
ATOM     32  H   UNL     1       7.554   5.999  20.363  0.00  0.00    +0.292 HD
ENDBRANCH  27  31
ENDBRANCH  12  24
BRANCH  18  33
ATOM     33  O   UNL     1       1.690   2.182  28.775  0.00  0.00    -0.507 OA
ATOM     34  H   UNL     1       1.800   3.128  28.965  0.00  0.00    +0.292 HD
ENDBRANCH  18  33
BRANCH  16  35
ATOM     35  O   UNL     1       4.924  -1.258  28.223  0.00  0.00    -0.506 OA
ATOM     36  H   UNL     1       4.504  -1.504  29.078  0.00  0.00    +0.292 HD
ENDBRANCH  16  35
ENDBRANCH  11  22
ENDBRANCH   1  11
BRANCH   3  37
ATOM     37  C   UNL     1       5.989  -2.358  22.317  0.00  0.00    +0.190 C 
BRANCH  37  38
ATOM     38  O   UNL     1       6.751  -3.362  21.664  0.00  0.00    -0.392 OA
ATOM     39  H   UNL     1       6.981  -4.049  22.313  0.00  0.00    +0.210 HD
ENDBRANCH  37  38
ENDBRANCH   3  37
BRANCH   4  40
ATOM     40  O   UNL     1       8.313  -3.069  24.707  0.00  0.00    -0.340 OA
BRANCH  40  41
ATOM     41  C   UNL     1       8.709  -4.429  24.543  0.00  0.00    +0.282 C 
ATOM     42  O   UNL     1       7.711  -5.154  23.800  0.00  0.00    -0.341 OA
ATOM     43  C   UNL     1       6.425  -5.195  24.447  0.00  0.00    +0.178 C 
ATOM     44  C   UNL     1       6.491  -5.802  25.859  0.00  0.00    +0.177 C 
ATOM     45  C   UNL     1       7.657  -5.214  26.666  0.00  0.00    +0.179 C 
ATOM     46  C   UNL     1       8.945  -5.222  25.845  0.00  0.00    +0.201 C 
BRANCH  44  47
ATOM     47  O   UNL     1       5.250  -5.575  26.537  0.00  0.00    -0.386 OA
ATOM     48  H   UNL     1       5.453  -5.430  27.482  0.00  0.00    +0.210 HD
ENDBRANCH  44  47
BRANCH  45  49
ATOM     49  O   UNL     1       7.834  -5.983  27.868  0.00  0.00    -0.386 OA
ATOM     50  H   UNL     1       8.034  -5.339  28.578  0.00  0.00    +0.210 HD
ENDBRANCH  45  49
BRANCH  46  51
ATOM     51  O   UNL     1       9.310  -6.588  25.553  0.00  0.00    -0.384 OA
ATOM     52  H   UNL     1       8.591  -6.971  24.990  0.00  0.00    +0.210 HD
ENDBRANCH  46  51
BRANCH  43  53
ATOM     53  C   UNL     1       5.470  -6.039  23.581  0.00  0.00    +0.190 C 
BRANCH  53  54
ATOM     54  O   UNL     1       6.003  -6.287  22.284  0.00  0.00    -0.392 OA
ATOM     55  H   UNL     1       6.712  -5.646  22.128  0.00  0.00    +0.210 HD
ENDBRANCH  53  54
ENDBRANCH  43  53
ENDBRANCH  40  41
ENDBRANCH   4  40
TORSDOF 18
ENDMDL
MODEL 9
REMARK VINA RESULT:      -6.9      1.849      3.105
REMARK  Name = 
REMARK  18 active torsions:
REMARK  status: ('A' for Active; 'I' for Inactive)
REMARK    1  A    between atoms: C_3  and  O_49
REMARK    2  A    between atoms: C_4  and  O_48
REMARK    3  A    between atoms: C_6  and  C_7
REMARK    4  A    between atoms: C_8  and  O_20
REMARK    5  A    between atoms: C_12  and  O_19
REMARK    6  A    between atoms: C_14  and  O_18
REMARK    7  A    between atoms: O_20  and  C_21
REMARK    8  A    between atoms: C_23  and  O_47
REMARK    9  A    between atoms: C_24  and  O_46
REMARK   10  A    between atoms: C_25  and  O_31
REMARK   11  A    between atoms: C_27  and  C_29
REMARK   12  A    between atoms: C_29  and  O_30
REMARK   13  A    between atoms: O_31  and  C_32
REMARK   14  A    between atoms: C_34  and  O_45
REMARK   15  A    between atoms: C_36  and  O_44
REMARK   16  A    between atoms: C_37  and  O_43
REMARK   17  A    between atoms: C_39  and  C_41
REMARK   18  A    between atoms: C_41  and  O_42
REMARK                            x       y       z     vdW  Elec       q    Type
REMARK                         _______ _______ _______ _____ _____    ______ ____
ROOT
ATOM      1  C   UNL     1       5.807  -0.909  27.136  0.00  0.00    +0.340 C 
ATOM      2  O   UNL     1       5.375   0.266  27.851  0.00  0.00    -0.331 OA
ATOM      3  C   UNL     1       5.962   1.555  27.542  0.00  0.00    +0.179 C 
ATOM      4  C   UNL     1       7.307   1.617  26.762  0.00  0.00    +0.184 C 
ATOM      5  C   UNL     1       7.746   0.264  26.185  0.00  0.00    +0.180 C 
ATOM      6  C   UNL     1       7.342  -0.852  27.156  0.00  0.00    +0.214 C 
ENDROOT
BRANCH   5   7
ATOM      7  O   UNL     1       9.173   0.302  26.016  0.00  0.00    -0.386 OA
ATOM      8  H   UNL     1       9.495   1.027  26.586  0.00  0.00    +0.210 HD
ENDBRANCH   5   7
BRANCH   6   9
ATOM      9  O   UNL     1       8.021  -2.067  26.865  0.00  0.00    -0.383 OA
ATOM     10  H   UNL     1       8.437  -2.404  27.679  0.00  0.00    +0.210 HD
ENDBRANCH   6   9
BRANCH   1  11
ATOM     11  O   UNL     1       5.255  -0.946  25.796  0.00  0.00    -0.453 OA
BRANCH  11  22
ATOM     12  C   UNL     1       5.652  -2.859  24.347  0.00  0.00    +0.181 A 
ATOM     13  O   UNL     1       5.356  -4.159  23.944  0.00  0.00    -0.451 OA
ATOM     14  C   UNL     1       4.350  -4.875  24.506  0.00  0.00    +0.147 A 
ATOM     15  C   UNL     1       3.479  -4.324  25.421  0.00  0.00    +0.109 A 
ATOM     16  C   UNL     1       2.442  -5.137  25.908  0.00  0.00    +0.135 A 
ATOM     17  C   UNL     1       2.286  -6.465  25.475  0.00  0.00    +0.091 A 
ATOM     18  C   UNL     1       3.188  -6.992  24.562  0.00  0.00    +0.124 A 
ATOM     19  C   UNL     1       3.690  -2.902  25.794  0.00  0.00    +0.238 A 
ATOM     20  O   UNL     1       2.899  -2.367  26.566  0.00  0.00    -0.283 OA
ATOM     21  C   UNL     1       4.233  -6.206  24.087  0.00  0.00    +0.092 A 
ATOM     22  C   UNL     1       4.873  -2.153  25.208  0.00  0.00    +0.214 A 
BRANCH  12  24
ATOM     23  C   UNL     1       8.100  -3.246  23.965  0.00  0.00    +0.015 A 
ATOM     24  C   UNL     1       6.949  -2.450  23.714  0.00  0.00    +0.025 A 
ATOM     25  C   UNL     1       7.137  -1.308  22.931  0.00  0.00    +0.060 A 
ATOM     26  C   UNL     1       8.401  -0.964  22.463  0.00  0.00    +0.159 A 
ATOM     27  C   UNL     1       9.517  -1.717  22.800  0.00  0.00    +0.158 A 
ATOM     28  C   UNL     1       9.374  -2.876  23.536  0.00  0.00    +0.050 A 
BRANCH  26  29
ATOM     29  O   UNL     1       8.542   0.154  21.688  0.00  0.00    -0.503 OA
ATOM     30  H   UNL     1       8.605  -0.192  20.774  0.00  0.00    +0.292 HD
ENDBRANCH  26  29
BRANCH  27  31
ATOM     31  O   UNL     1      10.741  -1.272  22.390  0.00  0.00    -0.503 OA
ATOM     32  H   UNL     1      11.006  -1.807  21.620  0.00  0.00    +0.292 HD
ENDBRANCH  27  31
ENDBRANCH  12  24
BRANCH  18  33
ATOM     33  O   UNL     1       3.083  -8.264  24.086  0.00  0.00    -0.507 OA
ATOM     34  H   UNL     1       3.907  -8.746  24.261  0.00  0.00    +0.292 HD
ENDBRANCH  18  33
BRANCH  16  35
ATOM     35  O   UNL     1       1.519  -4.705  26.823  0.00  0.00    -0.506 OA
ATOM     36  H   UNL     1       1.409  -3.733  26.718  0.00  0.00    +0.292 HD
ENDBRANCH  16  35
ENDBRANCH  11  22
ENDBRANCH   1  11
BRANCH   3  37
ATOM     37  C   UNL     1       6.214   2.253  28.909  0.00  0.00    +0.190 C 
BRANCH  37  38
ATOM     38  O   UNL     1       7.501   2.844  29.019  0.00  0.00    -0.392 OA
ATOM     39  H   UNL     1       7.573   3.270  29.890  0.00  0.00    +0.210 HD
ENDBRANCH  37  38
ENDBRANCH   3  37
BRANCH   4  40
ATOM     40  O   UNL     1       7.284   2.586  25.689  0.00  0.00    -0.340 OA
BRANCH  40  41
ATOM     41  C   UNL     1       7.214   2.085  24.356  0.00  0.00    +0.282 C 
ATOM     42  O   UNL     1       8.528   2.027  23.773  0.00  0.00    -0.341 OA
ATOM     43  C   UNL     1       9.175   3.310  23.676  0.00  0.00    +0.178 C 
ATOM     44  C   UNL     1       8.351   4.330  22.873  0.00  0.00    +0.177 C 
ATOM     45  C   UNL     1       6.878   4.324  23.307  0.00  0.00    +0.179 C 
ATOM     46  C   UNL     1       6.339   2.898  23.380  0.00  0.00    +0.201 C 
BRANCH  44  47
ATOM     47  O   UNL     1       8.914   5.637  23.036  0.00  0.00    -0.386 OA
ATOM     48  H   UNL     1       8.342   6.129  23.658  0.00  0.00    +0.210 HD
ENDBRANCH  44  47
BRANCH  45  49
ATOM     49  O   UNL     1       6.107   5.096  22.370  0.00  0.00    -0.386 OA
ATOM     50  H   UNL     1       6.587   5.049  21.517  0.00  0.00    +0.210 HD
ENDBRANCH  45  49
BRANCH  46  51
ATOM     51  O   UNL     1       6.368   2.315  22.059  0.00  0.00    -0.384 OA
ATOM     52  H   UNL     1       5.892   1.448  22.109  0.00  0.00    +0.210 HD
ENDBRANCH  46  51
BRANCH  43  53
ATOM     53  C   UNL     1      10.542   3.118  22.992  0.00  0.00    +0.190 C 
BRANCH  53  54
ATOM     54  O   UNL     1      10.434   2.374  21.782  0.00  0.00    -0.392 OA
ATOM     55  H   UNL     1      11.330   2.217  21.449  0.00  0.00    +0.210 HD
ENDBRANCH  53  54
ENDBRANCH  43  53
ENDBRANCH  40  41
ENDBRANCH   4  40
TORSDOF 18
ENDMDL
