MODEL 1
REMARK VINA RESULT:      -7.8      0.000      0.000
REMARK  Name = 
REMARK  25 active torsions:
REMARK  status: ('A' for Active; 'I' for Inactive)
REMARK    1  A    between atoms: C_1  and  C_2
REMARK    2  A    between atoms: C_3  and  O_71
REMARK    3  A    between atoms: C_5  and  O_70
REMARK    4  A    between atoms: C_6  and  O_69
REMARK    5  A    between atoms: C_8  and  O_11
REMARK    6  A    between atoms: O_11  and  C_12
REMARK    7  A    between atoms: C_12  and  C_13
REMARK    8  A    between atoms: C_14  and  O_68
REMARK    9  A    between atoms: C_16  and  O_67
REMARK   10  A    between atoms: C_18  and  O_66
REMARK   11  A    between atoms: C_19  and  O_22
REMARK   12  A    between atoms: O_22  and  C_23
REMARK   13  A    between atoms: C_24  and  C_58
REMARK   14  A    between atoms: C_28  and  O_35
REMARK   15  A    between atoms: C_30  and  O_34
REMARK   16  A    between atoms: O_35  and  C_36
REMARK   17  A    between atoms: C_38  and  O_57
REMARK   18  A    between atoms: C_39  and  O_56
REMARK   19  A    between atoms: C_41  and  O_55
REMARK   20  A    between atoms: C_43  and  C_45
REMARK   21  A    between atoms: C_45  and  O_46
REMARK   22  A    between atoms: O_46  and  C_47
REMARK   23  A    between atoms: C_47  and  C_49
REMARK   24  A    between atoms: C_60  and  O_65
REMARK   25  A    between atoms: C_61  and  O_64
REMARK                            x       y       z     vdW  Elec       q    Type
REMARK                         _______ _______ _______ _____ _____    ______ ____
ROOT
ATOM      1  C   UNL     1       6.549   1.659  25.816  0.00  0.00    +0.214 A 
ATOM      2  C   UNL     1       5.290   1.623  26.668  0.00  0.00    +0.238 A 
ATOM      3  O   UNL     1       4.706   2.652  26.965  0.00  0.00    -0.283 OA
ATOM      4  C   UNL     1       4.812   0.238  27.055  0.00  0.00    +0.109 A 
ATOM      5  C   UNL     1       5.197  -0.800  26.222  0.00  0.00    +0.147 A 
ATOM      6  C   UNL     1       4.884  -2.153  26.464  0.00  0.00    +0.093 A 
ATOM      7  C   UNL     1       4.162  -2.508  27.597  0.00  0.00    +0.131 A 
ATOM      8  C   UNL     1       3.718  -1.468  28.430  0.00  0.00    +0.092 A 
ATOM      9  O   UNL     1       5.902  -0.557  25.086  0.00  0.00    -0.451 OA
ATOM     10  C   UNL     1       4.018  -0.104  28.154  0.00  0.00    +0.135 A 
ATOM     11  C   UNL     1       6.770   0.520  25.111  0.00  0.00    +0.181 A 
ENDROOT
BRANCH  11  12
ATOM     12  C   UNL     1       7.968   0.120  24.356  0.00  0.00    +0.025 A 
ATOM     13  C   UNL     1       8.811  -0.823  24.978  0.00  0.00    +0.015 A 
ATOM     14  C   UNL     1       9.855  -1.442  24.290  0.00  0.00    +0.050 A 
ATOM     15  C   UNL     1       9.960  -1.228  22.927  0.00  0.00    +0.158 A 
ATOM     16  C   UNL     1       9.076  -0.368  22.276  0.00  0.00    +0.159 A 
ATOM     17  C   UNL     1       8.096   0.330  22.979  0.00  0.00    +0.060 A 
BRANCH  16  18
ATOM     18  O   UNL     1       9.104  -0.290  20.910  0.00  0.00    -0.503 OA
ATOM     19  H   UNL     1       8.545   0.483  20.694  0.00  0.00    +0.292 HD
ENDBRANCH  16  18
BRANCH  15  20
ATOM     20  O   UNL     1      10.851  -1.936  22.169  0.00  0.00    -0.503 OA
ATOM     21  H   UNL     1      11.062  -2.750  22.660  0.00  0.00    +0.292 HD
ENDBRANCH  15  20
ENDBRANCH  11  12
BRANCH  10  22
ATOM     22  O   UNL     1       3.542   0.861  28.985  0.00  0.00    -0.506 OA
ATOM     23  H   UNL     1       3.827   0.658  29.889  0.00  0.00    +0.292 HD
ENDBRANCH  10  22
BRANCH   7  24
ATOM     24  O   UNL     1       3.867  -3.803  27.984  0.00  0.00    -0.461 OA
BRANCH  24  25
ATOM     25  C   UNL     1       4.697  -4.376  29.025  0.00  0.00    +0.339 C 
ATOM     26  O   UNL     1       6.032  -4.582  28.564  0.00  0.00    -0.330 OA
ATOM     27  C   UNL     1       6.109  -5.598  27.542  0.00  0.00    +0.191 C 
ATOM     28  C   UNL     1       5.715  -6.982  28.094  0.00  0.00    +0.178 C 
ATOM     29  C   UNL     1       4.306  -6.927  28.717  0.00  0.00    +0.180 C 
ATOM     30  C   UNL     1       4.163  -5.701  29.639  0.00  0.00    +0.214 C 
BRANCH  30  31
ATOM     31  O   UNL     1       2.844  -5.575  30.179  0.00  0.00    -0.383 OA
ATOM     32  H   UNL     1       2.626  -4.626  30.189  0.00  0.00    +0.210 HD
ENDBRANCH  30  31
BRANCH  29  33
ATOM     33  O   UNL     1       3.271  -6.968  27.729  0.00  0.00    -0.386 OA
ATOM     34  H   UNL     1       3.170  -7.869  27.380  0.00  0.00    +0.210 HD
ENDBRANCH  29  33
BRANCH  28  35
ATOM     35  O   UNL     1       6.670  -7.399  29.078  0.00  0.00    -0.386 OA
ATOM     36  H   UNL     1       6.209  -7.960  29.728  0.00  0.00    +0.210 HD
ENDBRANCH  28  35
BRANCH  27  37
ATOM     37  C   UNL     1       7.542  -5.593  26.997  0.00  0.00    +0.266 C 
BRANCH  37  38
ATOM     38  O   UNL     1       7.715  -4.522  26.043  0.00  0.00    -0.458 OA
BRANCH  38  39
ATOM     39  C   UNL     1       8.395  -4.863  24.923  0.00  0.00    +0.339 C 
ATOM     40  O   UNL     1       9.555  -5.247  24.882  0.00  0.00    -0.245 OA
BRANCH  39  41
ATOM     41  C   UNL     1       7.555  -4.688  23.718  0.00  0.00    +0.059 A 
ATOM     42  C   UNL     1       6.854  -3.485  23.585  0.00  0.00    +0.015 A 
ATOM     43  C   UNL     1       6.084  -3.241  22.447  0.00  0.00    +0.001 A 
ATOM     44  C   UNL     1       6.020  -4.199  21.436  0.00  0.00    +0.000 A 
ATOM     45  C   UNL     1       6.716  -5.403  21.566  0.00  0.00    +0.001 A 
ATOM     46  C   UNL     1       7.484  -5.652  22.707  0.00  0.00    +0.015 A 
ENDBRANCH  39  41
ENDBRANCH  38  39
ENDBRANCH  37  38
ENDBRANCH  27  37
ENDBRANCH  24  25
ENDBRANCH   7  24
BRANCH   1  47
ATOM     47  O   UNL     1       7.383   2.766  25.699  0.00  0.00    -0.453 OA
BRANCH  47  50
ATOM     48  C   UNL     1       6.187   4.618  22.628  0.00  0.00    +0.179 C 
ATOM     49  O   UNL     1       6.304   3.642  23.687  0.00  0.00    -0.331 OA
ATOM     50  C   UNL     1       7.234   3.862  24.749  0.00  0.00    +0.340 C 
ATOM     51  C   UNL     1       8.623   4.402  24.295  0.00  0.00    +0.214 C 
ATOM     52  C   UNL     1       8.384   5.620  23.389  0.00  0.00    +0.180 C 
ATOM     53  C   UNL     1       7.563   5.181  22.174  0.00  0.00    +0.177 C 
BRANCH  53  54
ATOM     54  O   UNL     1       7.455   6.306  21.285  0.00  0.00    -0.386 OA
ATOM     55  H   UNL     1       6.603   6.740  21.480  0.00  0.00    +0.210 HD
ENDBRANCH  53  54
BRANCH  52  56
ATOM     56  O   UNL     1       9.604   6.240  22.961  0.00  0.00    -0.386 OA
ATOM     57  H   UNL     1       9.476   7.199  23.113  0.00  0.00    +0.210 HD
ENDBRANCH  52  56
BRANCH  51  58
ATOM     58  O   UNL     1       9.405   3.417  23.600  0.00  0.00    -0.383 OA
ATOM     59  H   UNL     1       8.979   3.229  22.736  0.00  0.00    +0.210 HD
ENDBRANCH  51  58
BRANCH  48  60
ATOM     60  C   UNL     1       5.158   5.783  22.841  0.00  0.00    +0.197 C 
BRANCH  60  61
ATOM     61  O   UNL     1       3.900   5.708  22.158  0.00  0.00    -0.346 OA
BRANCH  61  65
ATOM     62  C   UNL     1       1.253   5.823  25.542  0.00  0.00    +0.041 C 
ATOM     63  C   UNL     1       2.277   4.732  25.251  0.00  0.00    +0.149 C 
ATOM     64  O   UNL     1       3.240   5.176  24.299  0.00  0.00    -0.343 OA
ATOM     65  C   UNL     1       2.788   5.324  22.963  0.00  0.00    +0.282 C 
ATOM     66  C   UNL     1       2.168   3.998  22.423  0.00  0.00    +0.201 C 
ATOM     67  C   UNL     1       1.079   3.506  23.393  0.00  0.00    +0.179 C 
ATOM     68  C   UNL     1       1.629   3.411  24.822  0.00  0.00    +0.174 C 
BRANCH  68  69
ATOM     69  O   UNL     1       2.599   2.348  24.871  0.00  0.00    -0.387 OA
ATOM     70  H   UNL     1       2.508   1.851  24.025  0.00  0.00    +0.210 HD
ENDBRANCH  68  69
BRANCH  67  71
ATOM     71  O   UNL     1       0.605   2.214  22.980  0.00  0.00    -0.386 OA
ATOM     72  H   UNL     1      -0.226   2.071  23.481  0.00  0.00    +0.210 HD
ENDBRANCH  67  71
BRANCH  66  73
ATOM     73  O   UNL     1       3.163   2.958  22.301  0.00  0.00    -0.384 OA
ATOM     74  H   UNL     1       2.989   2.525  21.443  0.00  0.00    +0.210 HD
ENDBRANCH  66  73
ENDBRANCH  61  65
ENDBRANCH  60  61
ENDBRANCH  48  60
ENDBRANCH  47  50
ENDBRANCH   1  47
TORSDOF 24
ENDMDL
MODEL 2
REMARK VINA RESULT:      -7.6      2.304      9.198
REMARK  Name = 
REMARK  25 active torsions:
REMARK  status: ('A' for Active; 'I' for Inactive)
REMARK    1  A    between atoms: C_1  and  C_2
REMARK    2  A    between atoms: C_3  and  O_71
REMARK    3  A    between atoms: C_5  and  O_70
REMARK    4  A    between atoms: C_6  and  O_69
REMARK    5  A    between atoms: C_8  and  O_11
REMARK    6  A    between atoms: O_11  and  C_12
REMARK    7  A    between atoms: C_12  and  C_13
REMARK    8  A    between atoms: C_14  and  O_68
REMARK    9  A    between atoms: C_16  and  O_67
REMARK   10  A    between atoms: C_18  and  O_66
REMARK   11  A    between atoms: C_19  and  O_22
REMARK   12  A    between atoms: O_22  and  C_23
REMARK   13  A    between atoms: C_24  and  C_58
REMARK   14  A    between atoms: C_28  and  O_35
REMARK   15  A    between atoms: C_30  and  O_34
REMARK   16  A    between atoms: O_35  and  C_36
REMARK   17  A    between atoms: C_38  and  O_57
REMARK   18  A    between atoms: C_39  and  O_56
REMARK   19  A    between atoms: C_41  and  O_55
REMARK   20  A    between atoms: C_43  and  C_45
REMARK   21  A    between atoms: C_45  and  O_46
REMARK   22  A    between atoms: O_46  and  C_47
REMARK   23  A    between atoms: C_47  and  C_49
REMARK   24  A    between atoms: C_60  and  O_65
REMARK   25  A    between atoms: C_61  and  O_64
REMARK                            x       y       z     vdW  Elec       q    Type
REMARK                         _______ _______ _______ _____ _____    ______ ____
ROOT
ATOM      1  C   UNL     1       3.886  -2.384  27.672  0.00  0.00    +0.214 A 
ATOM      2  C   UNL     1       2.979  -1.180  27.878  0.00  0.00    +0.238 A 
ATOM      3  O   UNL     1       1.963  -1.269  28.548  0.00  0.00    -0.283 OA
ATOM      4  C   UNL     1       3.463   0.108  27.243  0.00  0.00    +0.109 A 
ATOM      5  C   UNL     1       4.827   0.211  27.025  0.00  0.00    +0.147 A 
ATOM      6  C   UNL     1       5.436   1.317  26.398  0.00  0.00    +0.093 A 
ATOM      7  C   UNL     1       4.659   2.376  25.947  0.00  0.00    +0.131 A 
ATOM      8  C   UNL     1       3.279   2.316  26.200  0.00  0.00    +0.092 A 
ATOM      9  O   UNL     1       5.675  -0.769  27.434  0.00  0.00    -0.451 OA
ATOM     10  C   UNL     1       2.684   1.205  26.863  0.00  0.00    +0.135 A 
ATOM     11  C   UNL     1       5.181  -2.062  27.424  0.00  0.00    +0.181 A 
ENDROOT
BRANCH  11  12
ATOM     12  C   UNL     1       6.280  -2.935  26.980  0.00  0.00    +0.025 A 
ATOM     13  C   UNL     1       7.433  -2.287  26.492  0.00  0.00    +0.015 A 
ATOM     14  C   UNL     1       8.616  -2.982  26.241  0.00  0.00    +0.050 A 
ATOM     15  C   UNL     1       8.691  -4.308  26.629  0.00  0.00    +0.158 A 
ATOM     16  C   UNL     1       7.588  -4.942  27.200  0.00  0.00    +0.159 A 
ATOM     17  C   UNL     1       6.373  -4.279  27.357  0.00  0.00    +0.060 A 
BRANCH  16  18
ATOM     18  O   UNL     1       7.733  -6.203  27.710  0.00  0.00    -0.503 OA
ATOM     19  H   UNL     1       7.633  -6.797  26.940  0.00  0.00    +0.292 HD
ENDBRANCH  16  18
BRANCH  15  20
ATOM     20  O   UNL     1       9.873  -4.994  26.569  0.00  0.00    -0.503 OA
ATOM     21  H   UNL     1      10.054  -5.331  27.464  0.00  0.00    +0.292 HD
ENDBRANCH  15  20
ENDBRANCH  11  12
BRANCH  10  22
ATOM     22  O   UNL     1       1.345   1.214  27.099  0.00  0.00    -0.506 OA
ATOM     23  H   UNL     1       0.906   1.680  26.373  0.00  0.00    +0.292 HD
ENDBRANCH  10  22
BRANCH   7  24
ATOM     24  O   UNL     1       5.130   3.472  25.245  0.00  0.00    -0.461 OA
BRANCH  24  25
ATOM     25  C   UNL     1       5.570   3.234  23.885  0.00  0.00    +0.339 C 
ATOM     26  O   UNL     1       6.986   3.375  23.770  0.00  0.00    -0.330 OA
ATOM     27  C   UNL     1       7.420   4.735  23.979  0.00  0.00    +0.191 C 
ATOM     28  C   UNL     1       6.886   5.672  22.877  0.00  0.00    +0.178 C 
ATOM     29  C   UNL     1       5.349   5.586  22.802  0.00  0.00    +0.180 C 
ATOM     30  C   UNL     1       4.883   4.117  22.805  0.00  0.00    +0.214 C 
BRANCH  30  31
ATOM     31  O   UNL     1       3.457   3.997  22.810  0.00  0.00    -0.383 OA
ATOM     32  H   UNL     1       3.151   4.228  23.705  0.00  0.00    +0.210 HD
ENDBRANCH  30  31
BRANCH  29  33
ATOM     33  O   UNL     1       4.708   6.346  23.832  0.00  0.00    -0.386 OA
ATOM     34  H   UNL     1       4.274   5.755  24.469  0.00  0.00    +0.210 HD
ENDBRANCH  29  33
BRANCH  28  35
ATOM     35  O   UNL     1       7.461   5.310  21.615  0.00  0.00    -0.386 OA
ATOM     36  H   UNL     1       6.737   5.055  21.015  0.00  0.00    +0.210 HD
ENDBRANCH  28  35
BRANCH  27  37
ATOM     37  C   UNL     1       8.952   4.727  24.021  0.00  0.00    +0.266 C 
BRANCH  37  38
ATOM     38  O   UNL     1       9.440   3.408  24.353  0.00  0.00    -0.458 OA
BRANCH  38  39
ATOM     39  C   UNL     1      10.458   2.968  23.576  0.00  0.00    +0.339 C 
ATOM     40  O   UNL     1      11.463   3.602  23.290  0.00  0.00    -0.245 OA
BRANCH  39  41
ATOM     41  C   UNL     1      10.193   1.600  23.079  0.00  0.00    +0.059 A 
ATOM     42  C   UNL     1      10.473   0.532  23.938  0.00  0.00    +0.015 A 
ATOM     43  C   UNL     1      10.198  -0.778  23.544  0.00  0.00    +0.001 A 
ATOM     44  C   UNL     1       9.636  -1.022  22.292  0.00  0.00    +0.000 A 
ATOM     45  C   UNL     1       9.359   0.041  21.429  0.00  0.00    +0.001 A 
ATOM     46  C   UNL     1       9.637   1.354  21.818  0.00  0.00    +0.015 A 
ENDBRANCH  39  41
ENDBRANCH  38  39
ENDBRANCH  37  38
ENDBRANCH  27  37
ENDBRANCH  24  25
ENDBRANCH   7  24
BRANCH   1  47
ATOM     47  O   UNL     1       3.469  -3.706  27.787  0.00  0.00    -0.453 OA
BRANCH  47  50
ATOM     48  C   UNL     1       1.459  -4.903  24.817  0.00  0.00    +0.179 C 
ATOM     49  O   UNL     1       2.026  -4.059  25.845  0.00  0.00    -0.331 OA
ATOM     50  C   UNL     1       3.051  -4.577  26.695  0.00  0.00    +0.340 C 
ATOM     51  C   UNL     1       2.804  -6.030  27.201  0.00  0.00    +0.214 C 
ATOM     52  C   UNL     1       2.479  -6.906  25.981  0.00  0.00    +0.180 C 
ATOM     53  C   UNL     1       1.222  -6.362  25.300  0.00  0.00    +0.177 C 
BRANCH  53  54
ATOM     54  O   UNL     1       0.869  -7.264  24.237  0.00  0.00    -0.386 OA
ATOM     55  H   UNL     1      -0.025  -7.012  23.937  0.00  0.00    +0.210 HD
ENDBRANCH  53  54
BRANCH  52  56
ATOM     56  O   UNL     1       2.294  -8.286  26.325  0.00  0.00    -0.386 OA
ATOM     57  H   UNL     1       3.196  -8.665  26.371  0.00  0.00    +0.210 HD
ENDBRANCH  52  56
BRANCH  51  58
ATOM     58  O   UNL     1       1.741  -6.112  28.164  0.00  0.00    -0.383 OA
ATOM     59  H   UNL     1       2.135  -6.230  29.057  0.00  0.00    +0.210 HD
ENDBRANCH  51  58
BRANCH  48  60
ATOM     60  C   UNL     1       2.164  -4.893  23.416  0.00  0.00    +0.197 C 
BRANCH  60  61
ATOM     61  O   UNL     1       3.379  -5.637  23.263  0.00  0.00    -0.346 OA
BRANCH  61  65
ATOM     62  C   UNL     1       5.861  -2.128  23.218  0.00  0.00    +0.041 C 
ATOM     63  C   UNL     1       5.889  -3.251  22.187  0.00  0.00    +0.149 C 
ATOM     64  O   UNL     1       4.708  -4.045  22.263  0.00  0.00    -0.343 OA
ATOM     65  C   UNL     1       4.581  -4.883  23.401  0.00  0.00    +0.282 C 
ATOM     66  C   UNL     1       5.803  -5.842  23.539  0.00  0.00    +0.201 C 
ATOM     67  C   UNL     1       7.106  -5.024  23.517  0.00  0.00    +0.179 C 
ATOM     68  C   UNL     1       7.153  -4.112  22.283  0.00  0.00    +0.174 C 
BRANCH  68  69
ATOM     69  O   UNL     1       7.279  -4.936  21.109  0.00  0.00    -0.387 OA
ATOM     70  H   UNL     1       6.556  -5.603  21.159  0.00  0.00    +0.210 HD
ENDBRANCH  68  69
BRANCH  67  71
ATOM     71  O   UNL     1       8.239  -5.907  23.498  0.00  0.00    -0.386 OA
ATOM     72  H   UNL     1       8.402  -6.099  22.550  0.00  0.00    +0.210 HD
ENDBRANCH  67  71
BRANCH  66  73
ATOM     73  O   UNL     1       5.855  -6.795  22.454  0.00  0.00    -0.384 OA
ATOM     74  H   UNL     1       5.531  -6.317  21.666  0.00  0.00    +0.210 HD
ENDBRANCH  66  73
ENDBRANCH  61  65
ENDBRANCH  60  61
ENDBRANCH  48  60
ENDBRANCH  47  50
ENDBRANCH   1  47
TORSDOF 24
ENDMDL
MODEL 3
REMARK VINA RESULT:      -6.9      1.562      5.163
REMARK  Name = 
REMARK  25 active torsions:
REMARK  status: ('A' for Active; 'I' for Inactive)
REMARK    1  A    between atoms: C_1  and  C_2
REMARK    2  A    between atoms: C_3  and  O_71
REMARK    3  A    between atoms: C_5  and  O_70
REMARK    4  A    between atoms: C_6  and  O_69
REMARK    5  A    between atoms: C_8  and  O_11
REMARK    6  A    between atoms: O_11  and  C_12
REMARK    7  A    between atoms: C_12  and  C_13
REMARK    8  A    between atoms: C_14  and  O_68
REMARK    9  A    between atoms: C_16  and  O_67
REMARK   10  A    between atoms: C_18  and  O_66
REMARK   11  A    between atoms: C_19  and  O_22
REMARK   12  A    between atoms: O_22  and  C_23
REMARK   13  A    between atoms: C_24  and  C_58
REMARK   14  A    between atoms: C_28  and  O_35
REMARK   15  A    between atoms: C_30  and  O_34
REMARK   16  A    between atoms: O_35  and  C_36
REMARK   17  A    between atoms: C_38  and  O_57
REMARK   18  A    between atoms: C_39  and  O_56
REMARK   19  A    between atoms: C_41  and  O_55
REMARK   20  A    between atoms: C_43  and  C_45
REMARK   21  A    between atoms: C_45  and  O_46
REMARK   22  A    between atoms: O_46  and  C_47
REMARK   23  A    between atoms: C_47  and  C_49
REMARK   24  A    between atoms: C_60  and  O_65
REMARK   25  A    between atoms: C_61  and  O_64
REMARK                            x       y       z     vdW  Elec       q    Type
REMARK                         _______ _______ _______ _____ _____    ______ ____
ROOT
ATOM      1  C   UNL     1       4.984   3.123  25.959  0.00  0.00    +0.214 A 
ATOM      2  C   UNL     1       5.755   2.267  26.952  0.00  0.00    +0.238 A 
ATOM      3  O   UNL     1       6.642   2.747  27.636  0.00  0.00    -0.283 OA
ATOM      4  C   UNL     1       5.300   0.823  27.048  0.00  0.00    +0.109 A 
ATOM      5  C   UNL     1       3.991   0.566  26.677  0.00  0.00    +0.147 A 
ATOM      6  C   UNL     1       3.424  -0.725  26.657  0.00  0.00    +0.093 A 
ATOM      7  C   UNL     1       4.192  -1.827  27.010  0.00  0.00    +0.131 A 
ATOM      8  C   UNL     1       5.508  -1.585  27.437  0.00  0.00    +0.092 A 
ATOM      9  O   UNL     1       3.155   1.577  26.320  0.00  0.00    -0.451 OA
ATOM     10  C   UNL     1       6.054  -0.271  27.480  0.00  0.00    +0.135 A 
ATOM     11  C   UNL     1       3.732   2.669  25.695  0.00  0.00    +0.181 A 
ENDROOT
BRANCH  11  12
ATOM     12  C   UNL     1       2.791   3.111  24.654  0.00  0.00    +0.025 A 
ATOM     13  C   UNL     1       1.645   3.801  25.101  0.00  0.00    +0.015 A 
ATOM     14  C   UNL     1       0.789   4.455  24.214  0.00  0.00    +0.050 A 
ATOM     15  C   UNL     1       1.167   4.549  22.887  0.00  0.00    +0.158 A 
ATOM     16  C   UNL     1       2.346   3.951  22.442  0.00  0.00    +0.159 A 
ATOM     17  C   UNL     1       3.151   3.210  23.306  0.00  0.00    +0.060 A 
BRANCH  16  18
ATOM     18  O   UNL     1       2.772   4.184  21.164  0.00  0.00    -0.503 OA
ATOM     19  H   UNL     1       3.726   3.965  21.176  0.00  0.00    +0.292 HD
ENDBRANCH  16  18
BRANCH  15  20
ATOM     20  O   UNL     1       0.461   5.321  22.006  0.00  0.00    -0.503 OA
ATOM     21  H   UNL     1       1.110   5.784  21.447  0.00  0.00    +0.292 HD
ENDBRANCH  15  20
ENDBRANCH  11  12
BRANCH  10  22
ATOM     22  O   UNL     1       7.328  -0.097  27.923  0.00  0.00    -0.506 OA
ATOM     23  H   UNL     1       7.296   0.215  28.840  0.00  0.00    +0.292 HD
ENDBRANCH  10  22
BRANCH   7  24
ATOM     24  O   UNL     1       3.774  -3.145  26.949  0.00  0.00    -0.461 OA
BRANCH  24  25
ATOM     25  C   UNL     1       3.797  -3.892  28.191  0.00  0.00    +0.339 C 
ATOM     26  O   UNL     1       5.087  -4.454  28.431  0.00  0.00    -0.330 OA
ATOM     27  C   UNL     1       5.426  -5.478  27.472  0.00  0.00    +0.191 C 
ATOM     28  C   UNL     1       4.489  -6.696  27.594  0.00  0.00    +0.178 C 
ATOM     29  C   UNL     1       3.020  -6.256  27.440  0.00  0.00    +0.180 C 
ATOM     30  C   UNL     1       2.726  -5.014  28.305  0.00  0.00    +0.214 C 
BRANCH  30  31
ATOM     31  O   UNL     1       1.391  -4.532  28.132  0.00  0.00    -0.383 OA
ATOM     32  H   UNL     1       0.885  -5.236  27.687  0.00  0.00    +0.210 HD
ENDBRANCH  30  31
BRANCH  29  33
ATOM     33  O   UNL     1       2.654  -6.045  26.072  0.00  0.00    -0.386 OA
ATOM     34  H   UNL     1       3.425  -6.161  25.492  0.00  0.00    +0.210 HD
ENDBRANCH  29  33
BRANCH  28  35
ATOM     35  O   UNL     1       4.681  -7.327  28.866  0.00  0.00    -0.386 OA
ATOM     36  H   UNL     1       4.319  -6.739  29.553  0.00  0.00    +0.210 HD
ENDBRANCH  28  35
BRANCH  27  37
ATOM     37  C   UNL     1       6.890  -5.865  27.711  0.00  0.00    +0.266 C 
BRANCH  37  38
ATOM     38  O   UNL     1       7.627  -5.844  26.469  0.00  0.00    -0.458 OA
BRANCH  38  39
ATOM     39  C   UNL     1       7.719  -4.626  25.884  0.00  0.00    +0.339 C 
ATOM     40  O   UNL     1       8.198  -3.624  26.394  0.00  0.00    -0.245 OA
BRANCH  39  41
ATOM     41  C   UNL     1       7.133  -4.644  24.526  0.00  0.00    +0.059 A 
ATOM     42  C   UNL     1       5.928  -3.959  24.330  0.00  0.00    +0.015 A 
ATOM     43  C   UNL     1       5.352  -3.899  23.061  0.00  0.00    +0.001 A 
ATOM     44  C   UNL     1       5.984  -4.518  21.983  0.00  0.00    +0.000 A 
ATOM     45  C   UNL     1       7.184  -5.206  22.174  0.00  0.00    +0.001 A 
ATOM     46  C   UNL     1       7.762  -5.273  23.445  0.00  0.00    +0.015 A 
ENDBRANCH  39  41
ENDBRANCH  38  39
ENDBRANCH  37  38
ENDBRANCH  27  37
ENDBRANCH  24  25
ENDBRANCH   7  24
BRANCH   1  47
ATOM     47  O   UNL     1       5.466   4.305  25.407  0.00  0.00    -0.453 OA
BRANCH  47  50
ATOM     48  C   UNL     1       9.137   4.741  24.618  0.00  0.00    +0.179 C 
ATOM     49  O   UNL     1       7.903   4.469  25.321  0.00  0.00    -0.331 OA
ATOM     50  C   UNL     1       6.670   4.452  24.599  0.00  0.00    +0.340 C 
ATOM     51  C   UNL     1       6.511   5.601  23.559  0.00  0.00    +0.214 C 
ATOM     52  C   UNL     1       7.769   5.619  22.678  0.00  0.00    +0.180 C 
ATOM     53  C   UNL     1       8.991   5.873  23.563  0.00  0.00    +0.177 C 
BRANCH  53  54
ATOM     54  O   UNL     1      10.138   6.005  22.706  0.00  0.00    -0.386 OA
ATOM     55  H   UNL     1      10.046   6.858  22.240  0.00  0.00    +0.210 HD
ENDBRANCH  53  54
BRANCH  52  56
ATOM     56  O   UNL     1       7.702   6.604  21.637  0.00  0.00    -0.386 OA
ATOM     57  H   UNL     1       8.621   6.704  21.315  0.00  0.00    +0.210 HD
ENDBRANCH  52  56
BRANCH  51  58
ATOM     58  O   UNL     1       6.318   6.886  24.171  0.00  0.00    -0.383 OA
ATOM     59  H   UNL     1       5.617   7.367  23.678  0.00  0.00    +0.210 HD
ENDBRANCH  51  58
BRANCH  48  60
ATOM     60  C   UNL     1       9.896   3.512  24.008  0.00  0.00    +0.197 C 
BRANCH  60  61
ATOM     61  O   UNL     1       9.769   2.243  24.663  0.00  0.00    -0.346 OA
BRANCH  61  65
ATOM     62  C   UNL     1       6.440  -0.299  23.702  0.00  0.00    +0.041 C 
ATOM     63  C   UNL     1       7.750  -0.750  24.339  0.00  0.00    +0.149 C 
ATOM     64  O   UNL     1       8.466   0.357  24.876  0.00  0.00    -0.343 OA
ATOM     65  C   UNL     1       9.049   1.249  23.940  0.00  0.00    +0.282 C 
ATOM     66  C   UNL     1      10.006   0.498  22.962  0.00  0.00    +0.201 C 
ATOM     67  C   UNL     1       9.259  -0.679  22.312  0.00  0.00    +0.179 C 
ATOM     68  C   UNL     1       8.620  -1.573  23.383  0.00  0.00    +0.174 C 
BRANCH  68  69
ATOM     69  O   UNL     1       9.669  -2.233  24.116  0.00  0.00    -0.387 OA
ATOM     70  H   UNL     1       9.795  -1.717  24.946  0.00  0.00    +0.210 HD
ENDBRANCH  68  69
BRANCH  67  71
ATOM     71  O   UNL     1      10.170  -1.461  21.523  0.00  0.00    -0.386 OA
ATOM     72  H   UNL     1      10.975  -1.557  22.074  0.00  0.00    +0.210 HD
ENDBRANCH  67  71
BRANCH  66  73
ATOM     73  O   UNL     1      11.161  -0.030  23.651  0.00  0.00    -0.384 OA
ATOM     74  H   UNL     1      11.937   0.350  23.195  0.00  0.00    +0.210 HD
ENDBRANCH  66  73
ENDBRANCH  61  65
ENDBRANCH  60  61
ENDBRANCH  48  60
ENDBRANCH  47  50
ENDBRANCH   1  47
TORSDOF 24
ENDMDL
MODEL 4
REMARK VINA RESULT:      -6.9      2.191      4.390
REMARK  Name = 
REMARK  25 active torsions:
REMARK  status: ('A' for Active; 'I' for Inactive)
REMARK    1  A    between atoms: C_1  and  C_2
REMARK    2  A    between atoms: C_3  and  O_71
REMARK    3  A    between atoms: C_5  and  O_70
REMARK    4  A    between atoms: C_6  and  O_69
REMARK    5  A    between atoms: C_8  and  O_11
REMARK    6  A    between atoms: O_11  and  C_12
REMARK    7  A    between atoms: C_12  and  C_13
REMARK    8  A    between atoms: C_14  and  O_68
REMARK    9  A    between atoms: C_16  and  O_67
REMARK   10  A    between atoms: C_18  and  O_66
REMARK   11  A    between atoms: C_19  and  O_22
REMARK   12  A    between atoms: O_22  and  C_23
REMARK   13  A    between atoms: C_24  and  C_58
REMARK   14  A    between atoms: C_28  and  O_35
REMARK   15  A    between atoms: C_30  and  O_34
REMARK   16  A    between atoms: O_35  and  C_36
REMARK   17  A    between atoms: C_38  and  O_57
REMARK   18  A    between atoms: C_39  and  O_56
REMARK   19  A    between atoms: C_41  and  O_55
REMARK   20  A    between atoms: C_43  and  C_45
REMARK   21  A    between atoms: C_45  and  O_46
REMARK   22  A    between atoms: O_46  and  C_47
REMARK   23  A    between atoms: C_47  and  C_49
REMARK   24  A    between atoms: C_60  and  O_65
REMARK   25  A    between atoms: C_61  and  O_64
REMARK                            x       y       z     vdW  Elec       q    Type
REMARK                         _______ _______ _______ _____ _____    ______ ____
ROOT
ATOM      1  C   UNL     1       7.395   0.789  25.495  0.00  0.00    +0.214 A 
ATOM      2  C   UNL     1       7.872  -0.142  24.391  0.00  0.00    +0.238 A 
ATOM      3  O   UNL     1       8.965   0.011  23.872  0.00  0.00    -0.283 OA
ATOM      4  C   UNL     1       6.921  -1.271  24.044  0.00  0.00    +0.109 A 
ATOM      5  C   UNL     1       6.039  -1.658  25.039  0.00  0.00    +0.147 A 
ATOM      6  C   UNL     1       5.055  -2.653  24.867  0.00  0.00    +0.093 A 
ATOM      7  C   UNL     1       4.923  -3.295  23.642  0.00  0.00    +0.131 A 
ATOM      8  C   UNL     1       5.838  -2.954  22.633  0.00  0.00    +0.092 A 
ATOM      9  O   UNL     1       6.090  -1.095  26.275  0.00  0.00    -0.451 OA
ATOM     10  C   UNL     1       6.846  -1.968  22.835  0.00  0.00    +0.135 A 
ATOM     11  C   UNL     1       6.493   0.228  26.339  0.00  0.00    +0.181 A 
ENDROOT
BRANCH  11  12
ATOM     12  C   UNL     1       5.674   0.874  27.377  0.00  0.00    +0.025 A 
ATOM     13  C   UNL     1       6.326   1.166  28.593  0.00  0.00    +0.015 A 
ATOM     14  C   UNL     1       5.731   1.962  29.573  0.00  0.00    +0.050 A 
ATOM     15  C   UNL     1       4.539   2.595  29.267  0.00  0.00    +0.158 A 
ATOM     16  C   UNL     1       3.925   2.391  28.032  0.00  0.00    +0.159 A 
ATOM     17  C   UNL     1       4.465   1.517  27.092  0.00  0.00    +0.060 A 
BRANCH  16  18
ATOM     18  O   UNL     1       2.832   3.142  27.698  0.00  0.00    -0.503 OA
ATOM     19  H   UNL     1       2.304   2.565  27.110  0.00  0.00    +0.292 HD
ENDBRANCH  16  18
BRANCH  15  20
ATOM     20  O   UNL     1       3.995   3.520  30.116  0.00  0.00    -0.503 OA
ATOM     21  H   UNL     1       4.688   4.179  30.303  0.00  0.00    +0.292 HD
ENDBRANCH  15  20
ENDBRANCH  11  12
BRANCH  10  22
ATOM     22  O   UNL     1       7.717  -1.695  21.828  0.00  0.00    -0.506 OA
ATOM     23  H   UNL     1       7.655  -2.400  21.166  0.00  0.00    +0.292 HD
ENDBRANCH  10  22
BRANCH   7  24
ATOM     24  O   UNL     1       3.946  -4.224  23.327  0.00  0.00    -0.461 OA
BRANCH  24  25
ATOM     25  C   UNL     1       2.872  -4.389  24.285  0.00  0.00    +0.339 C 
ATOM     26  O   UNL     1       3.366  -4.866  25.537  0.00  0.00    -0.330 OA
ATOM     27  C   UNL     1       3.880  -6.211  25.446  0.00  0.00    +0.191 C 
ATOM     28  C   UNL     1       2.762  -7.218  25.107  0.00  0.00    +0.178 C 
ATOM     29  C   UNL     1       2.052  -6.807  23.803  0.00  0.00    +0.180 C 
ATOM     30  C   UNL     1       1.706  -5.305  23.818  0.00  0.00    +0.214 C 
BRANCH  30  31
ATOM     31  O   UNL     1       1.110  -4.870  22.592  0.00  0.00    -0.383 OA
ATOM     32  H   UNL     1       1.809  -4.875  21.914  0.00  0.00    +0.210 HD
ENDBRANCH  30  31
BRANCH  29  33
ATOM     33  O   UNL     1       2.801  -7.164  22.636  0.00  0.00    -0.386 OA
ATOM     34  H   UNL     1       3.145  -6.369  22.197  0.00  0.00    +0.210 HD
ENDBRANCH  29  33
BRANCH  28  35
ATOM     35  O   UNL     1       1.819  -7.273  26.184  0.00  0.00    -0.386 OA
ATOM     36  H   UNL     1       1.141  -6.592  26.027  0.00  0.00    +0.210 HD
ENDBRANCH  28  35
BRANCH  27  37
ATOM     37  C   UNL     1       4.548  -6.538  26.786  0.00  0.00    +0.266 C 
BRANCH  37  38
ATOM     38  O   UNL     1       5.296  -5.400  27.268  0.00  0.00    -0.458 OA
BRANCH  38  39
ATOM     39  C   UNL     1       6.603  -5.645  27.522  0.00  0.00    +0.339 C 
ATOM     40  O   UNL     1       7.040  -6.249  28.491  0.00  0.00    -0.245 OA
BRANCH  39  41
ATOM     41  C   UNL     1       7.467  -5.059  26.475  0.00  0.00    +0.059 A 
ATOM     42  C   UNL     1       8.287  -3.984  26.837  0.00  0.00    +0.015 A 
ATOM     43  C   UNL     1       9.160  -3.420  25.905  0.00  0.00    +0.001 A 
ATOM     44  C   UNL     1       9.220  -3.936  24.611  0.00  0.00    +0.000 A 
ATOM     45  C   UNL     1       8.400  -5.006  24.245  0.00  0.00    +0.001 A 
ATOM     46  C   UNL     1       7.521  -5.570  25.174  0.00  0.00    +0.015 A 
ENDBRANCH  39  41
ENDBRANCH  38  39
ENDBRANCH  37  38
ENDBRANCH  27  37
ENDBRANCH  24  25
ENDBRANCH   7  24
BRANCH   1  47
ATOM     47  O   UNL     1       7.871   2.083  25.686  0.00  0.00    -0.453 OA
BRANCH  47  50
ATOM     48  C   UNL     1       6.422   4.083  22.825  0.00  0.00    +0.179 C 
ATOM     49  O   UNL     1       6.630   3.052  23.816  0.00  0.00    -0.331 OA
ATOM     50  C   UNL     1       7.638   3.227  24.813  0.00  0.00    +0.340 C 
ATOM     51  C   UNL     1       8.982   3.809  24.283  0.00  0.00    +0.214 C 
ATOM     52  C   UNL     1       8.661   5.071  23.468  0.00  0.00    +0.180 C 
ATOM     53  C   UNL     1       7.753   4.688  22.298  0.00  0.00    +0.177 C 
BRANCH  53  54
ATOM     54  O   UNL     1       7.565   5.858  21.483  0.00  0.00    -0.386 OA
ATOM     55  H   UNL     1       8.063   5.711  20.657  0.00  0.00    +0.210 HD
ENDBRANCH  53  54
BRANCH  52  56
ATOM     56  O   UNL     1       9.839   5.730  22.981  0.00  0.00    -0.386 OA
ATOM     57  H   UNL     1       9.884   6.577  23.471  0.00  0.00    +0.210 HD
ENDBRANCH  52  56
BRANCH  51  58
ATOM     58  O   UNL     1       9.717   2.875  23.477  0.00  0.00    -0.383 OA
ATOM     59  H   UNL     1      10.029   3.335  22.667  0.00  0.00    +0.210 HD
ENDBRANCH  51  58
BRANCH  48  60
ATOM     60  C   UNL     1       5.401   5.220  23.181  0.00  0.00    +0.197 C 
BRANCH  60  61
ATOM     61  O   UNL     1       4.603   5.068  24.362  0.00  0.00    -0.346 OA
BRANCH  61  65
ATOM     62  C   UNL     1       0.443   5.994  24.922  0.00  0.00    +0.041 C 
ATOM     63  C   UNL     1       1.144   4.724  25.394  0.00  0.00    +0.149 C 
ATOM     64  O   UNL     1       2.558   4.895  25.406  0.00  0.00    -0.343 OA
ATOM     65  C   UNL     1       3.198   4.963  24.142  0.00  0.00    +0.282 C 
ATOM     66  C   UNL     1       2.882   3.704  23.277  0.00  0.00    +0.201 C 
ATOM     67  C   UNL     1       1.359   3.509  23.188  0.00  0.00    +0.179 C 
ATOM     68  C   UNL     1       0.732   3.487  24.589  0.00  0.00    +0.174 C 
BRANCH  68  69
ATOM     69  O   UNL     1       1.164   2.292  25.265  0.00  0.00    -0.387 OA
ATOM     70  H   UNL     1       1.791   1.839  24.655  0.00  0.00    +0.210 HD
ENDBRANCH  68  69
BRANCH  67  71
ATOM     71  O   UNL     1       1.062   2.274  22.516  0.00  0.00    -0.386 OA
ATOM     72  H   UNL     1       1.920   1.803  22.448  0.00  0.00    +0.210 HD
ENDBRANCH  67  71
BRANCH  66  73
ATOM     73  O   UNL     1       3.454   2.508  23.851  0.00  0.00    -0.384 OA
ATOM     74  H   UNL     1       4.276   2.341  23.349  0.00  0.00    +0.210 HD
ENDBRANCH  66  73
ENDBRANCH  61  65
ENDBRANCH  60  61
ENDBRANCH  48  60
ENDBRANCH  47  50
ENDBRANCH   1  47
TORSDOF 24
ENDMDL
MODEL 5
REMARK VINA RESULT:      -6.7      1.898      4.303
REMARK  Name = 
REMARK  25 active torsions:
REMARK  status: ('A' for Active; 'I' for Inactive)
REMARK    1  A    between atoms: C_1  and  C_2
REMARK    2  A    between atoms: C_3  and  O_71
REMARK    3  A    between atoms: C_5  and  O_70
REMARK    4  A    between atoms: C_6  and  O_69
REMARK    5  A    between atoms: C_8  and  O_11
REMARK    6  A    between atoms: O_11  and  C_12
REMARK    7  A    between atoms: C_12  and  C_13
REMARK    8  A    between atoms: C_14  and  O_68
REMARK    9  A    between atoms: C_16  and  O_67
REMARK   10  A    between atoms: C_18  and  O_66
REMARK   11  A    between atoms: C_19  and  O_22
REMARK   12  A    between atoms: O_22  and  C_23
REMARK   13  A    between atoms: C_24  and  C_58
REMARK   14  A    between atoms: C_28  and  O_35
REMARK   15  A    between atoms: C_30  and  O_34
REMARK   16  A    between atoms: O_35  and  C_36
REMARK   17  A    between atoms: C_38  and  O_57
REMARK   18  A    between atoms: C_39  and  O_56
REMARK   19  A    between atoms: C_41  and  O_55
REMARK   20  A    between atoms: C_43  and  C_45
REMARK   21  A    between atoms: C_45  and  O_46
REMARK   22  A    between atoms: O_46  and  C_47
REMARK   23  A    between atoms: C_47  and  C_49
REMARK   24  A    between atoms: C_60  and  O_65
REMARK   25  A    between atoms: C_61  and  O_64
REMARK                            x       y       z     vdW  Elec       q    Type
REMARK                         _______ _______ _______ _____ _____    ______ ____
ROOT
ATOM      1  C   UNL     1       8.350  -0.830  24.391  0.00  0.00    +0.214 A 
ATOM      2  C   UNL     1       8.843  -2.267  24.338  0.00  0.00    +0.238 A 
ATOM      3  O   UNL     1       9.775  -2.583  23.617  0.00  0.00    -0.283 OA
ATOM      4  C   UNL     1       8.132  -3.228  25.270  0.00  0.00    +0.109 A 
ATOM      5  C   UNL     1       7.532  -2.670  26.387  0.00  0.00    +0.147 A 
ATOM      6  C   UNL     1       6.786  -3.412  27.326  0.00  0.00    +0.093 A 
ATOM      7  C   UNL     1       6.609  -4.779  27.150  0.00  0.00    +0.131 A 
ATOM      8  C   UNL     1       7.249  -5.375  26.051  0.00  0.00    +0.092 A 
ATOM      9  O   UNL     1       7.650  -1.343  26.652  0.00  0.00    -0.451 OA
ATOM     10  C   UNL     1       8.024  -4.615  25.129  0.00  0.00    +0.135 A 
ATOM     11  C   UNL     1       7.747  -0.497  25.561  0.00  0.00    +0.181 A 
ENDROOT
BRANCH  11  12
ATOM     12  C   UNL     1       6.979   0.715  25.891  0.00  0.00    +0.025 A 
ATOM     13  C   UNL     1       5.577   0.576  25.924  0.00  0.00    +0.015 A 
ATOM     14  C   UNL     1       4.750   1.581  26.426  0.00  0.00    +0.050 A 
ATOM     15  C   UNL     1       5.342   2.669  27.043  0.00  0.00    +0.158 A 
ATOM     16  C   UNL     1       6.731   2.780  27.103  0.00  0.00    +0.159 A 
ATOM     17  C   UNL     1       7.559   1.827  26.511  0.00  0.00    +0.060 A 
BRANCH  16  18
ATOM     18  O   UNL     1       7.289   3.783  27.845  0.00  0.00    -0.503 OA
ATOM     19  H   UNL     1       6.575   4.444  27.948  0.00  0.00    +0.292 HD
ENDBRANCH  16  18
BRANCH  15  20
ATOM     20  O   UNL     1       4.589   3.599  27.705  0.00  0.00    -0.503 OA
ATOM     21  H   UNL     1       5.160   3.998  28.385  0.00  0.00    +0.292 HD
ENDBRANCH  15  20
ENDBRANCH  11  12
BRANCH  10  22
ATOM     22  O   UNL     1       8.638  -5.252  24.097  0.00  0.00    -0.506 OA
ATOM     23  H   UNL     1       9.432  -5.693  24.434  0.00  0.00    +0.292 HD
ENDBRANCH  10  22
BRANCH   7  24
ATOM     24  O   UNL     1       5.833  -5.595  27.954  0.00  0.00    -0.461 OA
BRANCH  24  25
ATOM     25  C   UNL     1       4.712  -6.258  27.318  0.00  0.00    +0.339 C 
ATOM     26  O   UNL     1       4.063  -5.393  26.386  0.00  0.00    -0.330 OA
ATOM     27  C   UNL     1       3.411  -4.280  27.033  0.00  0.00    +0.191 C 
ATOM     28  C   UNL     1       2.252  -4.754  27.933  0.00  0.00    +0.178 C 
ATOM     29  C   UNL     1       2.763  -5.775  28.968  0.00  0.00    +0.180 C 
ATOM     30  C   UNL     1       3.650  -6.840  28.294  0.00  0.00    +0.214 C 
BRANCH  30  31
ATOM     31  O   UNL     1       4.203  -7.764  29.235  0.00  0.00    -0.383 OA
ATOM     32  H   UNL     1       3.512  -8.421  29.435  0.00  0.00    +0.210 HD
ENDBRANCH  30  31
BRANCH  29  33
ATOM     33  O   UNL     1       3.432  -5.150  30.068  0.00  0.00    -0.386 OA
ATOM     34  H   UNL     1       2.939  -5.296  30.893  0.00  0.00    +0.210 HD
ENDBRANCH  29  33
BRANCH  28  35
ATOM     35  O   UNL     1       1.225  -5.344  27.127  0.00  0.00    -0.386 OA
ATOM     36  H   UNL     1       1.209  -4.880  26.270  0.00  0.00    +0.210 HD
ENDBRANCH  28  35
BRANCH  27  37
ATOM     37  C   UNL     1       2.921  -3.332  25.933  0.00  0.00    +0.266 C 
BRANCH  37  38
ATOM     38  O   UNL     1       3.334  -3.811  24.634  0.00  0.00    -0.458 OA
BRANCH  38  39
ATOM     39  C   UNL     1       4.442  -3.215  24.134  0.00  0.00    +0.339 C 
ATOM     40  O   UNL     1       4.845  -2.099  24.427  0.00  0.00    -0.245 OA
BRANCH  39  41
ATOM     41  C   UNL     1       5.113  -4.086  23.145  0.00  0.00    +0.059 A 
ATOM     42  C   UNL     1       5.970  -3.477  22.220  0.00  0.00    +0.015 A 
ATOM     43  C   UNL     1       6.668  -4.251  21.293  0.00  0.00    +0.001 A 
ATOM     44  C   UNL     1       6.518  -5.637  21.295  0.00  0.00    +0.000 A 
ATOM     45  C   UNL     1       5.662  -6.248  22.213  0.00  0.00    +0.001 A 
ATOM     46  C   UNL     1       4.956  -5.476  23.139  0.00  0.00    +0.015 A 
ENDBRANCH  39  41
ENDBRANCH  38  39
ENDBRANCH  37  38
ENDBRANCH  27  37
ENDBRANCH  24  25
ENDBRANCH   7  24
BRANCH   1  47
ATOM     47  O   UNL     1       8.543   0.101  23.376  0.00  0.00    -0.453 OA
BRANCH  47  50
ATOM     48  C   UNL     1       6.213   2.841  22.209  0.00  0.00    +0.179 C 
ATOM     49  O   UNL     1       6.795   1.540  22.452  0.00  0.00    -0.331 OA
ATOM     50  C   UNL     1       7.943   1.428  23.295  0.00  0.00    +0.340 C 
ATOM     51  C   UNL     1       9.029   2.521  23.064  0.00  0.00    +0.214 C 
ATOM     52  C   UNL     1       8.335   3.891  23.103  0.00  0.00    +0.180 C 
ATOM     53  C   UNL     1       7.283   3.947  21.994  0.00  0.00    +0.177 C 
BRANCH  53  54
ATOM     54  O   UNL     1       6.734   5.276  21.973  0.00  0.00    -0.386 OA
ATOM     55  H   UNL     1       6.107   5.335  22.718  0.00  0.00    +0.210 HD
ENDBRANCH  53  54
BRANCH  52  56
ATOM     56  O   UNL     1       9.257   4.982  22.964  0.00  0.00    -0.386 OA
ATOM     57  H   UNL     1       9.802   4.762  22.180  0.00  0.00    +0.210 HD
ENDBRANCH  52  56
BRANCH  51  58
ATOM     58  O   UNL     1       9.729   2.358  21.820  0.00  0.00    -0.383 OA
ATOM     59  H   UNL     1       9.433   3.058  21.198  0.00  0.00    +0.210 HD
ENDBRANCH  51  58
BRANCH  48  60
ATOM     60  C   UNL     1       5.110   3.327  23.213  0.00  0.00    +0.197 C 
BRANCH  60  61
ATOM     61  O   UNL     1       4.438   4.563  22.935  0.00  0.00    -0.346 OA
BRANCH  61  65
ATOM     62  C   UNL     1       0.962   2.518  21.449  0.00  0.00    +0.041 C 
ATOM     63  C   UNL     1       1.990   3.258  20.600  0.00  0.00    +0.149 C 
ATOM     64  O   UNL     1       3.193   3.478  21.330  0.00  0.00    -0.343 OA
ATOM     65  C   UNL     1       3.135   4.438  22.372  0.00  0.00    +0.282 C 
ATOM     66  C   UNL     1       2.645   5.821  21.843  0.00  0.00    +0.201 C 
ATOM     67  C   UNL     1       1.315   5.644  21.090  0.00  0.00    +0.179 C 
ATOM     68  C   UNL     1       1.443   4.562  20.010  0.00  0.00    +0.174 C 
BRANCH  68  69
ATOM     69  O   UNL     1       2.325   5.045  18.980  0.00  0.00    -0.387 OA
ATOM     70  H   UNL     1       3.076   5.486  19.441  0.00  0.00    +0.210 HD
ENDBRANCH  68  69
BRANCH  67  71
ATOM     71  O   UNL     1       0.930   6.885  20.476  0.00  0.00    -0.386 OA
ATOM     72  H   UNL     1       1.619   7.065  19.802  0.00  0.00    +0.210 HD
ENDBRANCH  67  71
BRANCH  66  73
ATOM     73  O   UNL     1       3.600   6.409  20.931  0.00  0.00    -0.384 OA
ATOM     74  H   UNL     1       3.111   6.563  20.099  0.00  0.00    +0.210 HD
ENDBRANCH  66  73
ENDBRANCH  61  65
ENDBRANCH  60  61
ENDBRANCH  48  60
ENDBRANCH  47  50
ENDBRANCH   1  47
TORSDOF 24
ENDMDL
MODEL 6
REMARK VINA RESULT:      -6.6      1.449      1.969
REMARK  Name = 
REMARK  25 active torsions:
REMARK  status: ('A' for Active; 'I' for Inactive)
REMARK    1  A    between atoms: C_1  and  C_2
REMARK    2  A    between atoms: C_3  and  O_71
REMARK    3  A    between atoms: C_5  and  O_70
REMARK    4  A    between atoms: C_6  and  O_69
REMARK    5  A    between atoms: C_8  and  O_11
REMARK    6  A    between atoms: O_11  and  C_12
REMARK    7  A    between atoms: C_12  and  C_13
REMARK    8  A    between atoms: C_14  and  O_68
REMARK    9  A    between atoms: C_16  and  O_67
REMARK   10  A    between atoms: C_18  and  O_66
REMARK   11  A    between atoms: C_19  and  O_22
REMARK   12  A    between atoms: O_22  and  C_23
REMARK   13  A    between atoms: C_24  and  C_58
REMARK   14  A    between atoms: C_28  and  O_35
REMARK   15  A    between atoms: C_30  and  O_34
REMARK   16  A    between atoms: O_35  and  C_36
REMARK   17  A    between atoms: C_38  and  O_57
REMARK   18  A    between atoms: C_39  and  O_56
REMARK   19  A    between atoms: C_41  and  O_55
REMARK   20  A    between atoms: C_43  and  C_45
REMARK   21  A    between atoms: C_45  and  O_46
REMARK   22  A    between atoms: O_46  and  C_47
REMARK   23  A    between atoms: C_47  and  C_49
REMARK   24  A    between atoms: C_60  and  O_65
REMARK   25  A    between atoms: C_61  and  O_64
REMARK                            x       y       z     vdW  Elec       q    Type
REMARK                         _______ _______ _______ _____ _____    ______ ____
ROOT
ATOM      1  C   UNL     1       6.249   1.754  25.935  0.00  0.00    +0.214 A 
ATOM      2  C   UNL     1       5.005   1.929  26.792  0.00  0.00    +0.238 A 
ATOM      3  O   UNL     1       4.589   3.041  27.072  0.00  0.00    -0.283 OA
ATOM      4  C   UNL     1       4.322   0.640  27.207  0.00  0.00    +0.109 A 
ATOM      5  C   UNL     1       4.538  -0.459  26.393  0.00  0.00    +0.147 A 
ATOM      6  C   UNL     1       4.022  -1.743  26.662  0.00  0.00    +0.093 A 
ATOM      7  C   UNL     1       3.261  -1.962  27.804  0.00  0.00    +0.131 A 
ATOM      8  C   UNL     1       2.989  -0.851  28.619  0.00  0.00    +0.092 A 
ATOM      9  O   UNL     1       5.263  -0.349  25.249  0.00  0.00    -0.451 OA
ATOM     10  C   UNL     1       3.493   0.445  28.315  0.00  0.00    +0.135 A 
ATOM     11  C   UNL     1       6.287   0.583  25.250  0.00  0.00    +0.181 A 
ENDROOT
BRANCH  11  12
ATOM     12  C   UNL     1       7.405  -0.011  24.499  0.00  0.00    +0.025 A 
ATOM     13  C   UNL     1       8.625  -0.142  25.193  0.00  0.00    +0.015 A 
ATOM     14  C   UNL     1       9.691  -0.875  24.674  0.00  0.00    +0.050 A 
ATOM     15  C   UNL     1       9.481  -1.610  23.521  0.00  0.00    +0.158 A 
ATOM     16  C   UNL     1       8.249  -1.567  22.868  0.00  0.00    +0.159 A 
ATOM     17  C   UNL     1       7.215  -0.754  23.329  0.00  0.00    +0.060 A 
BRANCH  16  18
ATOM     18  O   UNL     1       8.018  -2.414  21.820  0.00  0.00    -0.503 OA
ATOM     19  H   UNL     1       7.172  -2.855  22.038  0.00  0.00    +0.292 HD
ENDBRANCH  16  18
BRANCH  15  20
ATOM     20  O   UNL     1      10.428  -2.482  23.058  0.00  0.00    -0.503 OA
ATOM     21  H   UNL     1      10.159  -2.747  22.160  0.00  0.00    +0.292 HD
ENDBRANCH  15  20
ENDBRANCH  11  12
BRANCH  10  22
ATOM     22  O   UNL     1       3.177   1.486  29.130  0.00  0.00    -0.506 OA
ATOM     23  H   UNL     1       2.290   1.802  28.900  0.00  0.00    +0.292 HD
ENDBRANCH  10  22
BRANCH   7  24
ATOM     24  O   UNL     1       2.773  -3.190  28.216  0.00  0.00    -0.461 OA
BRANCH  24  25
ATOM     25  C   UNL     1       3.740  -4.259  28.361  0.00  0.00    +0.339 C 
ATOM     26  O   UNL     1       4.302  -4.620  27.100  0.00  0.00    -0.330 OA
ATOM     27  C   UNL     1       3.331  -5.226  26.221  0.00  0.00    +0.191 C 
ATOM     28  C   UNL     1       2.833  -6.575  26.778  0.00  0.00    +0.178 C 
ATOM     29  C   UNL     1       2.257  -6.386  28.195  0.00  0.00    +0.180 C 
ATOM     30  C   UNL     1       3.207  -5.540  29.064  0.00  0.00    +0.214 C 
BRANCH  30  31
ATOM     31  O   UNL     1       2.672  -5.281  30.365  0.00  0.00    -0.383 OA
ATOM     32  H   UNL     1       2.034  -4.550  30.275  0.00  0.00    +0.210 HD
ENDBRANCH  30  31
BRANCH  29  33
ATOM     33  O   UNL     1       0.932  -5.843  28.178  0.00  0.00    -0.386 OA
ATOM     34  H   UNL     1       0.288  -6.529  27.936  0.00  0.00    +0.210 HD
ENDBRANCH  29  33
BRANCH  28  35
ATOM     35  O   UNL     1       3.915  -7.514  26.809  0.00  0.00    -0.386 OA
ATOM     36  H   UNL     1       4.693  -7.066  27.188  0.00  0.00    +0.210 HD
ENDBRANCH  28  35
BRANCH  27  37
ATOM     37  C   UNL     1       3.995  -5.391  24.849  0.00  0.00    +0.266 C 
BRANCH  37  38
ATOM     38  O   UNL     1       4.690  -4.181  24.476  0.00  0.00    -0.458 OA
BRANCH  38  39
ATOM     39  C   UNL     1       5.802  -4.372  23.728  0.00  0.00    +0.339 C 
ATOM     40  O   UNL     1       5.827  -4.550  22.519  0.00  0.00    -0.245 OA
BRANCH  39  41
ATOM     41  C   UNL     1       7.017  -4.367  24.573  0.00  0.00    +0.059 A 
ATOM     42  C   UNL     1       6.996  -3.587  25.735  0.00  0.00    +0.015 A 
ATOM     43  C   UNL     1       8.093  -3.580  26.596  0.00  0.00    +0.001 A 
ATOM     44  C   UNL     1       9.211  -4.359  26.302  0.00  0.00    +0.000 A 
ATOM     45  C   UNL     1       9.237  -5.137  25.142  0.00  0.00    +0.001 A 
ATOM     46  C   UNL     1       8.142  -5.142  24.273  0.00  0.00    +0.015 A 
ENDBRANCH  39  41
ENDBRANCH  38  39
ENDBRANCH  37  38
ENDBRANCH  27  37
ENDBRANCH  24  25
ENDBRANCH   7  24
BRANCH   1  47
ATOM     47  O   UNL     1       7.243   2.718  25.793  0.00  0.00    -0.453 OA
BRANCH  47  50
ATOM     48  C   UNL     1       6.203   4.825  22.832  0.00  0.00    +0.179 C 
ATOM     49  O   UNL     1       6.217   3.811  23.862  0.00  0.00    -0.331 OA
ATOM     50  C   UNL     1       7.222   3.851  24.876  0.00  0.00    +0.340 C 
ATOM     51  C   UNL     1       8.654   4.180  24.359  0.00  0.00    +0.214 C 
ATOM     52  C   UNL     1       8.565   5.446  23.494  0.00  0.00    +0.180 C 
ATOM     53  C   UNL     1       7.626   5.178  22.316  0.00  0.00    +0.177 C 
BRANCH  53  54
ATOM     54  O   UNL     1       7.652   6.331  21.458  0.00  0.00    -0.386 OA
ATOM     55  H   UNL     1       7.269   6.057  20.604  0.00  0.00    +0.210 HD
ENDBRANCH  53  54
BRANCH  52  56
ATOM     56  O   UNL     1       9.846   5.879  23.013  0.00  0.00    -0.386 OA
ATOM     57  H   UNL     1      10.367   5.060  22.888  0.00  0.00    +0.210 HD
ENDBRANCH  52  56
BRANCH  51  58
ATOM     58  O   UNL     1       9.235   3.105  23.603  0.00  0.00    -0.383 OA
ATOM     59  H   UNL     1      10.210   3.221  23.589  0.00  0.00    +0.210 HD
ENDBRANCH  51  58
BRANCH  48  60
ATOM     60  C   UNL     1       5.383   6.129  23.125  0.00  0.00    +0.197 C 
BRANCH  60  61
ATOM     61  O   UNL     1       4.312   6.471  22.236  0.00  0.00    -0.346 OA
BRANCH  61  65
ATOM     62  C   UNL     1       1.050   5.694  24.924  0.00  0.00    +0.041 C 
ATOM     63  C   UNL     1       1.980   4.644  24.328  0.00  0.00    +0.149 C 
ATOM     64  O   UNL     1       3.164   5.245  23.812  0.00  0.00    -0.343 OA
ATOM     65  C   UNL     1       3.020   6.013  22.628  0.00  0.00    +0.282 C 
ATOM     66  C   UNL     1       2.378   5.173  21.481  0.00  0.00    +0.201 C 
ATOM     67  C   UNL     1       1.063   4.545  21.974  0.00  0.00    +0.179 C 
ATOM     68  C   UNL     1       1.289   3.768  23.278  0.00  0.00    +0.174 C 
BRANCH  68  69
ATOM     69  O   UNL     1       2.099   2.613  22.989  0.00  0.00    -0.387 OA
ATOM     70  H   UNL     1       1.662   2.148  22.238  0.00  0.00    +0.210 HD
ENDBRANCH  68  69
BRANCH  67  71
ATOM     71  O   UNL     1       0.540   3.655  20.975  0.00  0.00    -0.386 OA
ATOM     72  H   UNL     1      -0.078   4.198  20.442  0.00  0.00    +0.210 HD
ENDBRANCH  67  71
BRANCH  66  73
ATOM     73  O   UNL     1       3.251   4.103  21.053  0.00  0.00    -0.384 OA
ATOM     74  H   UNL     1       3.463   3.597  21.861  0.00  0.00    +0.210 HD
ENDBRANCH  66  73
ENDBRANCH  61  65
ENDBRANCH  60  61
ENDBRANCH  48  60
ENDBRANCH  47  50
ENDBRANCH   1  47
TORSDOF 24
ENDMDL
MODEL 7
REMARK VINA RESULT:      -6.3      1.723      4.248
REMARK  Name = 
REMARK  25 active torsions:
REMARK  status: ('A' for Active; 'I' for Inactive)
REMARK    1  A    between atoms: C_1  and  C_2
REMARK    2  A    between atoms: C_3  and  O_71
REMARK    3  A    between atoms: C_5  and  O_70
REMARK    4  A    between atoms: C_6  and  O_69
REMARK    5  A    between atoms: C_8  and  O_11
REMARK    6  A    between atoms: O_11  and  C_12
REMARK    7  A    between atoms: C_12  and  C_13
REMARK    8  A    between atoms: C_14  and  O_68
REMARK    9  A    between atoms: C_16  and  O_67
REMARK   10  A    between atoms: C_18  and  O_66
REMARK   11  A    between atoms: C_19  and  O_22
REMARK   12  A    between atoms: O_22  and  C_23
REMARK   13  A    between atoms: C_24  and  C_58
REMARK   14  A    between atoms: C_28  and  O_35
REMARK   15  A    between atoms: C_30  and  O_34
REMARK   16  A    between atoms: O_35  and  C_36
REMARK   17  A    between atoms: C_38  and  O_57
REMARK   18  A    between atoms: C_39  and  O_56
REMARK   19  A    between atoms: C_41  and  O_55
REMARK   20  A    between atoms: C_43  and  C_45
REMARK   21  A    between atoms: C_45  and  O_46
REMARK   22  A    between atoms: O_46  and  C_47
REMARK   23  A    between atoms: C_47  and  C_49
REMARK   24  A    between atoms: C_60  and  O_65
REMARK   25  A    between atoms: C_61  and  O_64
REMARK                            x       y       z     vdW  Elec       q    Type
REMARK                         _______ _______ _______ _____ _____    ______ ____
ROOT
ATOM      1  C   UNL     1       5.508   1.256  26.126  0.00  0.00    +0.214 A 
ATOM      2  C   UNL     1       4.288   0.988  26.994  0.00  0.00    +0.238 A 
ATOM      3  O   UNL     1       3.430   1.841  27.149  0.00  0.00    -0.283 OA
ATOM      4  C   UNL     1       4.211  -0.406  27.586  0.00  0.00    +0.109 A 
ATOM      5  C   UNL     1       4.896  -1.400  26.906  0.00  0.00    +0.147 A 
ATOM      6  C   UNL     1       4.972  -2.737  27.347  0.00  0.00    +0.093 A 
ATOM      7  C   UNL     1       4.350  -3.116  28.530  0.00  0.00    +0.131 A 
ATOM      8  C   UNL     1       3.609  -2.136  29.211  0.00  0.00    +0.092 A 
ATOM      9  O   UNL     1       5.532  -1.133  25.736  0.00  0.00    -0.451 OA
ATOM     10  C   UNL     1       3.518  -0.797  28.735  0.00  0.00    +0.135 A 
ATOM     11  C   UNL     1       6.060   0.138  25.590  0.00  0.00    +0.181 A 
ENDROOT
BRANCH  11  12
ATOM     12  C   UNL     1       7.341  -0.010  24.883  0.00  0.00    +0.025 A 
ATOM     13  C   UNL     1       8.258  -0.927  25.437  0.00  0.00    +0.015 A 
ATOM     14  C   UNL     1       9.411  -1.317  24.754  0.00  0.00    +0.050 A 
ATOM     15  C   UNL     1       9.568  -0.903  23.443  0.00  0.00    +0.158 A 
ATOM     16  C   UNL     1       8.623  -0.069  22.846  0.00  0.00    +0.159 A 
ATOM     17  C   UNL     1       7.523   0.405  23.559  0.00  0.00    +0.060 A 
BRANCH  16  18
ATOM     18  O   UNL     1       8.722   0.202  21.509  0.00  0.00    -0.503 OA
ATOM     19  H   UNL     1       9.604  -0.133  21.252  0.00  0.00    +0.292 HD
ENDBRANCH  16  18
BRANCH  15  20
ATOM     20  O   UNL     1      10.584  -1.390  22.668  0.00  0.00    -0.503 OA
ATOM     21  H   UNL     1      10.184  -1.993  22.017  0.00  0.00    +0.292 HD
ENDBRANCH  15  20
ENDBRANCH  11  12
BRANCH  10  22
ATOM     22  O   UNL     1       2.768   0.102  29.425  0.00  0.00    -0.506 OA
ATOM     23  H   UNL     1       3.127   0.182  30.322  0.00  0.00    +0.292 HD
ENDBRANCH  10  22
BRANCH   7  24
ATOM     24  O   UNL     1       4.423  -4.372  29.106  0.00  0.00    -0.461 OA
BRANCH  24  25
ATOM     25  C   UNL     1       4.781  -5.469  28.229  0.00  0.00    +0.339 C 
ATOM     26  O   UNL     1       4.142  -5.343  26.959  0.00  0.00    -0.330 OA
ATOM     27  C   UNL     1       2.710  -5.499  27.048  0.00  0.00    +0.191 C 
ATOM     28  C   UNL     1       2.326  -6.926  27.489  0.00  0.00    +0.178 C 
ATOM     29  C   UNL     1       3.006  -7.270  28.829  0.00  0.00    +0.180 C 
ATOM     30  C   UNL     1       4.498  -6.888  28.800  0.00  0.00    +0.214 C 
BRANCH  30  31
ATOM     31  O   UNL     1       5.147  -7.126  30.052  0.00  0.00    -0.383 OA
ATOM     32  H   UNL     1       4.637  -7.815  30.515  0.00  0.00    +0.210 HD
ENDBRANCH  30  31
BRANCH  29  33
ATOM     33  O   UNL     1       2.333  -6.685  29.949  0.00  0.00    -0.386 OA
ATOM     34  H   UNL     1       1.442  -7.061  30.044  0.00  0.00    +0.210 HD
ENDBRANCH  29  33
BRANCH  28  35
ATOM     35  O   UNL     1       2.721  -7.865  26.482  0.00  0.00    -0.386 OA
ATOM     36  H   UNL     1       3.360  -7.426  25.892  0.00  0.00    +0.210 HD
ENDBRANCH  28  35
BRANCH  27  37
ATOM     37  C   UNL     1       2.125  -5.156  25.673  0.00  0.00    +0.266 C 
BRANCH  37  38
ATOM     38  O   UNL     1       3.031  -4.304  24.938  0.00  0.00    -0.458 OA
BRANCH  38  39
ATOM     39  C   UNL     1       3.386  -4.771  23.718  0.00  0.00    +0.339 C 
ATOM     40  O   UNL     1       2.641  -5.321  22.920  0.00  0.00    -0.245 OA
BRANCH  39  41
ATOM     41  C   UNL     1       4.828  -4.557  23.467  0.00  0.00    +0.059 A 
ATOM     42  C   UNL     1       5.208  -3.365  22.839  0.00  0.00    +0.015 A 
ATOM     43  C   UNL     1       6.557  -3.085  22.619  0.00  0.00    +0.001 A 
ATOM     44  C   UNL     1       7.530  -3.993  23.033  0.00  0.00    +0.000 A 
ATOM     45  C   UNL     1       7.156  -5.186  23.657  0.00  0.00    +0.001 A 
ATOM     46  C   UNL     1       5.805  -5.472  23.874  0.00  0.00    +0.015 A 
ENDBRANCH  39  41
ENDBRANCH  38  39
ENDBRANCH  37  38
ENDBRANCH  27  37
ENDBRANCH  24  25
ENDBRANCH   7  24
BRANCH   1  47
ATOM     47  O   UNL     1       5.997   2.526  25.836  0.00  0.00    -0.453 OA
BRANCH  47  50
ATOM     48  C   UNL     1       5.121   5.580  23.788  0.00  0.00    +0.179 C 
ATOM     49  O   UNL     1       5.556   4.729  24.873  0.00  0.00    -0.331 OA
ATOM     50  C   UNL     1       5.686   3.323  24.656  0.00  0.00    +0.340 C 
ATOM     51  C   UNL     1       4.526   2.681  23.837  0.00  0.00    +0.214 C 
ATOM     52  C   UNL     1       4.335   3.512  22.559  0.00  0.00    +0.180 C 
ATOM     53  C   UNL     1       3.976   4.947  22.949  0.00  0.00    +0.177 C 
BRANCH  53  54
ATOM     54  O   UNL     1       3.685   5.674  21.743  0.00  0.00    -0.386 OA
ATOM     55  H   UNL     1       2.742   5.522  21.542  0.00  0.00    +0.210 HD
ENDBRANCH  53  54
BRANCH  52  56
ATOM     56  O   UNL     1       3.327   2.971  21.693  0.00  0.00    -0.386 OA
ATOM     57  H   UNL     1       2.857   3.747  21.325  0.00  0.00    +0.210 HD
ENDBRANCH  52  56
BRANCH  51  58
ATOM     58  O   UNL     1       3.293   2.615  24.572  0.00  0.00    -0.383 OA
ATOM     59  H   UNL     1       2.551   2.804  23.957  0.00  0.00    +0.210 HD
ENDBRANCH  51  58
BRANCH  48  60
ATOM     60  C   UNL     1       6.235   6.165  22.850  0.00  0.00    +0.197 C 
BRANCH  60  61
ATOM     61  O   UNL     1       7.295   5.295  22.434  0.00  0.00    -0.346 OA
BRANCH  61  65
ATOM     62  C   UNL     1      10.417   6.626  25.070  0.00  0.00    +0.041 C 
ATOM     63  C   UNL     1      10.621   5.989  23.700  0.00  0.00    +0.149 C 
ATOM     64  O   UNL     1       9.420   6.027  22.935  0.00  0.00    -0.343 OA
ATOM     65  C   UNL     1       8.376   5.162  23.353  0.00  0.00    +0.282 C 
ATOM     66  C   UNL     1       8.855   3.678  23.407  0.00  0.00    +0.201 C 
ATOM     67  C   UNL     1      10.124   3.577  24.271  0.00  0.00    +0.179 C 
ATOM     68  C   UNL     1      11.190   4.569  23.787  0.00  0.00    +0.174 C 
BRANCH  68  69
ATOM     69  O   UNL     1      11.656   4.145  22.492  0.00  0.00    -0.387 OA
ATOM     70  H   UNL     1      11.628   3.160  22.496  0.00  0.00    +0.210 HD
ENDBRANCH  68  69
BRANCH  67  71
ATOM     71  O   UNL     1      10.654   2.243  24.209  0.00  0.00    -0.386 OA
ATOM     72  H   UNL     1       9.873   1.659  24.104  0.00  0.00    +0.210 HD
ENDBRANCH  67  71
BRANCH  66  73
ATOM     73  O   UNL     1       9.169   3.173  22.090  0.00  0.00    -0.384 OA
ATOM     74  H   UNL     1       8.625   2.369  21.979  0.00  0.00    +0.210 HD
ENDBRANCH  66  73
ENDBRANCH  61  65
ENDBRANCH  60  61
ENDBRANCH  48  60
ENDBRANCH  47  50
ENDBRANCH   1  47
TORSDOF 24
ENDMDL
MODEL 8
REMARK VINA RESULT:      -6.3      2.500      9.285
REMARK  Name = 
REMARK  25 active torsions:
REMARK  status: ('A' for Active; 'I' for Inactive)
REMARK    1  A    between atoms: C_1  and  C_2
REMARK    2  A    between atoms: C_3  and  O_71
REMARK    3  A    between atoms: C_5  and  O_70
REMARK    4  A    between atoms: C_6  and  O_69
REMARK    5  A    between atoms: C_8  and  O_11
REMARK    6  A    between atoms: O_11  and  C_12
REMARK    7  A    between atoms: C_12  and  C_13
REMARK    8  A    between atoms: C_14  and  O_68
REMARK    9  A    between atoms: C_16  and  O_67
REMARK   10  A    between atoms: C_18  and  O_66
REMARK   11  A    between atoms: C_19  and  O_22
REMARK   12  A    between atoms: O_22  and  C_23
REMARK   13  A    between atoms: C_24  and  C_58
REMARK   14  A    between atoms: C_28  and  O_35
REMARK   15  A    between atoms: C_30  and  O_34
REMARK   16  A    between atoms: O_35  and  C_36
REMARK   17  A    between atoms: C_38  and  O_57
REMARK   18  A    between atoms: C_39  and  O_56
REMARK   19  A    between atoms: C_41  and  O_55
REMARK   20  A    between atoms: C_43  and  C_45
REMARK   21  A    between atoms: C_45  and  O_46
REMARK   22  A    between atoms: O_46  and  C_47
REMARK   23  A    between atoms: C_47  and  C_49
REMARK   24  A    between atoms: C_60  and  O_65
REMARK   25  A    between atoms: C_61  and  O_64
REMARK                            x       y       z     vdW  Elec       q    Type
REMARK                         _______ _______ _______ _____ _____    ______ ____
ROOT
ATOM      1  C   UNL     1       7.147  -2.064  26.021  0.00  0.00    +0.214 A 
ATOM      2  C   UNL     1       7.365  -0.719  26.694  0.00  0.00    +0.238 A 
ATOM      3  O   UNL     1       7.950  -0.640  27.761  0.00  0.00    -0.283 OA
ATOM      4  C   UNL     1       6.855   0.481  25.919  0.00  0.00    +0.109 A 
ATOM      5  C   UNL     1       6.747   0.324  24.547  0.00  0.00    +0.147 A 
ATOM      6  C   UNL     1       6.241   1.319  23.685  0.00  0.00    +0.093 A 
ATOM      7  C   UNL     1       5.806   2.532  24.203  0.00  0.00    +0.131 A 
ATOM      8  C   UNL     1       5.951   2.732  25.586  0.00  0.00    +0.092 A 
ATOM      9  O   UNL     1       7.151  -0.823  23.941  0.00  0.00    -0.451 OA
ATOM     10  C   UNL     1       6.492   1.727  26.437  0.00  0.00    +0.135 A 
ATOM     11  C   UNL     1       7.018  -1.992  24.671  0.00  0.00    +0.181 A 
ENDROOT
BRANCH  11  12
ATOM     12  C   UNL     1       6.599  -3.039  23.727  0.00  0.00    +0.025 A 
ATOM     13  C   UNL     1       5.754  -2.630  22.675  0.00  0.00    +0.015 A 
ATOM     14  C   UNL     1       5.460  -3.469  21.600  0.00  0.00    +0.050 A 
ATOM     15  C   UNL     1       6.139  -4.670  21.501  0.00  0.00    +0.158 A 
ATOM     16  C   UNL     1       7.049  -5.052  22.486  0.00  0.00    +0.159 A 
ATOM     17  C   UNL     1       7.269  -4.262  23.612  0.00  0.00    +0.060 A 
BRANCH  16  18
ATOM     18  O   UNL     1       7.816  -6.167  22.290  0.00  0.00    -0.503 OA
ATOM     19  H   UNL     1       7.458  -6.829  22.915  0.00  0.00    +0.292 HD
ENDBRANCH  16  18
BRANCH  15  20
ATOM     20  O   UNL     1       6.023  -5.455  20.387  0.00  0.00    -0.503 OA
ATOM     21  H   UNL     1       6.344  -6.342  20.627  0.00  0.00    +0.292 HD
ENDBRANCH  15  20
ENDBRANCH  11  12
BRANCH  10  22
ATOM     22  O   UNL     1       6.629   1.987  27.765  0.00  0.00    -0.506 OA
ATOM     23  H   UNL     1       6.394   1.189  28.262  0.00  0.00    +0.292 HD
ENDBRANCH  10  22
BRANCH   7  24
ATOM     24  O   UNL     1       5.216   3.549  23.472  0.00  0.00    -0.461 OA
BRANCH  24  25
ATOM     25  C   UNL     1       6.058   4.233  22.512  0.00  0.00    +0.339 C 
ATOM     26  O   UNL     1       7.440   4.073  22.833  0.00  0.00    -0.330 OA
ATOM     27  C   UNL     1       7.799   4.741  24.061  0.00  0.00    +0.191 C 
ATOM     28  C   UNL     1       7.647   6.271  23.933  0.00  0.00    +0.178 C 
ATOM     29  C   UNL     1       6.211   6.630  23.505  0.00  0.00    +0.180 C 
ATOM     30  C   UNL     1       5.753   5.747  22.328  0.00  0.00    +0.214 C 
BRANCH  30  31
ATOM     31  O   UNL     1       4.397   6.001  21.949  0.00  0.00    -0.383 OA
ATOM     32  H   UNL     1       3.884   5.200  22.158  0.00  0.00    +0.210 HD
ENDBRANCH  30  31
BRANCH  29  33
ATOM     33  O   UNL     1       5.286   6.576  24.596  0.00  0.00    -0.386 OA
ATOM     34  H   UNL     1       5.679   6.967  25.394  0.00  0.00    +0.210 HD
ENDBRANCH  29  33
BRANCH  28  35
ATOM     35  O   UNL     1       8.585   6.771  22.972  0.00  0.00    -0.386 OA
ATOM     36  H   UNL     1       9.458   6.388  23.175  0.00  0.00    +0.210 HD
ENDBRANCH  28  35
BRANCH  27  37
ATOM     37  C   UNL     1       9.240   4.343  24.396  0.00  0.00    +0.266 C 
BRANCH  37  38
ATOM     38  O   UNL     1       9.382   2.905  24.383  0.00  0.00    -0.458 OA
BRANCH  38  39
ATOM     39  C   UNL     1      10.478   2.448  23.733  0.00  0.00    +0.339 C 
ATOM     40  O   UNL     1      11.572   2.994  23.709  0.00  0.00    -0.245 OA
BRANCH  39  41
ATOM     41  C   UNL     1      10.184   1.190  23.014  0.00  0.00    +0.059 A 
ATOM     42  C   UNL     1      10.574  -0.010  23.620  0.00  0.00    +0.015 A 
ATOM     43  C   UNL     1      10.280  -1.232  23.013  0.00  0.00    +0.001 A 
ATOM     44  C   UNL     1       9.590  -1.256  21.802  0.00  0.00    +0.000 A 
ATOM     45  C   UNL     1       9.203  -0.061  21.192  0.00  0.00    +0.001 A 
ATOM     46  C   UNL     1       9.500   1.165  21.794  0.00  0.00    +0.015 A 
ENDBRANCH  39  41
ENDBRANCH  38  39
ENDBRANCH  37  38
ENDBRANCH  27  37
ENDBRANCH  24  25
ENDBRANCH   7  24
BRANCH   1  47
ATOM     47  O   UNL     1       7.142  -3.283  26.692  0.00  0.00    -0.453 OA
BRANCH  47  50
ATOM     48  C   UNL     1       3.936  -4.223  28.460  0.00  0.00    +0.179 C 
ATOM     49  O   UNL     1       5.059  -3.464  27.960  0.00  0.00    -0.331 OA
ATOM     50  C   UNL     1       5.966  -4.073  27.039  0.00  0.00    +0.340 C 
ATOM     51  C   UNL     1       6.359  -5.539  27.387  0.00  0.00    +0.214 C 
ATOM     52  C   UNL     1       5.065  -6.330  27.629  0.00  0.00    +0.180 C 
ATOM     53  C   UNL     1       4.306  -5.695  28.796  0.00  0.00    +0.177 C 
BRANCH  53  54
ATOM     54  O   UNL     1       3.163  -6.520  29.082  0.00  0.00    -0.386 OA
ATOM     55  H   UNL     1       2.814  -6.827  28.224  0.00  0.00    +0.210 HD
ENDBRANCH  53  54
BRANCH  52  56
ATOM     56  O   UNL     1       5.307  -7.719  27.898  0.00  0.00    -0.386 OA
ATOM     57  H   UNL     1       4.918  -8.201  27.139  0.00  0.00    +0.210 HD
ENDBRANCH  52  56
BRANCH  51  58
ATOM     58  O   UNL     1       7.216  -5.630  28.537  0.00  0.00    -0.383 OA
ATOM     59  H   UNL     1       7.244  -4.753  28.978  0.00  0.00    +0.210 HD
ENDBRANCH  51  58
BRANCH  48  60
ATOM     60  C   UNL     1       2.607  -4.164  27.628  0.00  0.00    +0.197 C 
BRANCH  60  61
ATOM     61  O   UNL     1       2.683  -4.388  26.214  0.00  0.00    -0.346 OA
BRANCH  61  65
ATOM     62  C   UNL     1       0.443  -8.054  26.321  0.00  0.00    +0.041 C 
ATOM     63  C   UNL     1       1.751  -7.832  25.570  0.00  0.00    +0.149 C 
ATOM     64  O   UNL     1       2.422  -6.669  26.045  0.00  0.00    -0.343 OA
ATOM     65  C   UNL     1       1.839  -5.420  25.711  0.00  0.00    +0.282 C 
ATOM     66  C   UNL     1       1.667  -5.268  24.168  0.00  0.00    +0.201 C 
ATOM     67  C   UNL     1       0.897  -6.479  23.613  0.00  0.00    +0.179 C 
ATOM     68  C   UNL     1       1.561  -7.791  24.050  0.00  0.00    +0.174 C 
BRANCH  68  69
ATOM     69  O   UNL     1       2.836  -7.901  23.390  0.00  0.00    -0.387 OA
ATOM     70  H   UNL     1       2.702  -8.511  22.627  0.00  0.00    +0.210 HD
ENDBRANCH  68  69
BRANCH  67  71
ATOM     71  O   UNL     1       0.860  -6.420  22.178  0.00  0.00    -0.386 OA
ATOM     72  H   UNL     1      -0.089  -6.332  21.946  0.00  0.00    +0.210 HD
ENDBRANCH  67  71
BRANCH  66  73
ATOM     73  O   UNL     1       2.945  -5.205  23.495  0.00  0.00    -0.384 OA
ATOM     74  H   UNL     1       3.454  -4.513  23.960  0.00  0.00    +0.210 HD
ENDBRANCH  66  73
ENDBRANCH  61  65
ENDBRANCH  60  61
ENDBRANCH  48  60
ENDBRANCH  47  50
ENDBRANCH   1  47
TORSDOF 24
ENDMDL
MODEL 9
REMARK VINA RESULT:      -6.2      2.340      9.685
REMARK  Name = 
REMARK  25 active torsions:
REMARK  status: ('A' for Active; 'I' for Inactive)
REMARK    1  A    between atoms: C_1  and  C_2
REMARK    2  A    between atoms: C_3  and  O_71
REMARK    3  A    between atoms: C_5  and  O_70
REMARK    4  A    between atoms: C_6  and  O_69
REMARK    5  A    between atoms: C_8  and  O_11
REMARK    6  A    between atoms: O_11  and  C_12
REMARK    7  A    between atoms: C_12  and  C_13
REMARK    8  A    between atoms: C_14  and  O_68
REMARK    9  A    between atoms: C_16  and  O_67
REMARK   10  A    between atoms: C_18  and  O_66
REMARK   11  A    between atoms: C_19  and  O_22
REMARK   12  A    between atoms: O_22  and  C_23
REMARK   13  A    between atoms: C_24  and  C_58
REMARK   14  A    between atoms: C_28  and  O_35
REMARK   15  A    between atoms: C_30  and  O_34
REMARK   16  A    between atoms: O_35  and  C_36
REMARK   17  A    between atoms: C_38  and  O_57
REMARK   18  A    between atoms: C_39  and  O_56
REMARK   19  A    between atoms: C_41  and  O_55
REMARK   20  A    between atoms: C_43  and  C_45
REMARK   21  A    between atoms: C_45  and  O_46
REMARK   22  A    between atoms: O_46  and  C_47
REMARK   23  A    between atoms: C_47  and  C_49
REMARK   24  A    between atoms: C_60  and  O_65
REMARK   25  A    between atoms: C_61  and  O_64
REMARK                            x       y       z     vdW  Elec       q    Type
REMARK                         _______ _______ _______ _____ _____    ______ ____
ROOT
ATOM      1  C   UNL     1       8.131  -2.693  25.587  0.00  0.00    +0.214 A 
ATOM      2  C   UNL     1       8.398  -1.452  26.424  0.00  0.00    +0.238 A 
ATOM      3  O   UNL     1       8.813  -1.545  27.568  0.00  0.00    -0.283 OA
ATOM      4  C   UNL     1       8.164  -0.133  25.715  0.00  0.00    +0.109 A 
ATOM      5  C   UNL     1       8.256  -0.154  24.333  0.00  0.00    +0.147 A 
ATOM      6  C   UNL     1       8.015   0.970  23.517  0.00  0.00    +0.093 A 
ATOM      7  C   UNL     1       7.651   2.182  24.092  0.00  0.00    +0.131 A 
ATOM      8  C   UNL     1       7.599   2.240  25.494  0.00  0.00    +0.092 A 
ATOM      9  O   UNL     1       8.611  -1.288  23.674  0.00  0.00    -0.451 OA
ATOM     10  C   UNL     1       7.875   1.102  26.304  0.00  0.00    +0.135 A 
ATOM     11  C   UNL     1       8.226  -2.487  24.249  0.00  0.00    +0.181 A 
ENDROOT
BRANCH  11  12
ATOM     12  C   UNL     1       7.840  -3.384  23.148  0.00  0.00    +0.025 A 
ATOM     13  C   UNL     1       8.045  -4.762  23.364  0.00  0.00    +0.015 A 
ATOM     14  C   UNL     1       7.531  -5.726  22.497  0.00  0.00    +0.050 A 
ATOM     15  C   UNL     1       6.675  -5.314  21.491  0.00  0.00    +0.158 A 
ATOM     16  C   UNL     1       6.386  -3.960  21.319  0.00  0.00    +0.159 A 
ATOM     17  C   UNL     1       6.979  -2.986  22.119  0.00  0.00    +0.060 A 
BRANCH  16  18
ATOM     18  O   UNL     1       5.424  -3.593  20.419  0.00  0.00    -0.503 OA
ATOM     19  H   UNL     1       4.611  -3.485  20.952  0.00  0.00    +0.292 HD
ENDBRANCH  16  18
BRANCH  15  20
ATOM     20  O   UNL     1       6.005  -6.222  20.719  0.00  0.00    -0.503 OA
ATOM     21  H   UNL     1       6.676  -6.750  20.250  0.00  0.00    +0.292 HD
ENDBRANCH  15  20
ENDBRANCH  11  12
BRANCH  10  22
ATOM     22  O   UNL     1       7.830   1.225  27.657  0.00  0.00    -0.506 OA
ATOM     23  H   UNL     1       8.056   0.370  28.053  0.00  0.00    +0.292 HD
ENDBRANCH  10  22
BRANCH   7  24
ATOM     24  O   UNL     1       7.310   3.327  23.394  0.00  0.00    -0.461 OA
BRANCH  24  25
ATOM     25  C   UNL     1       6.735   4.411  24.165  0.00  0.00    +0.339 C 
ATOM     26  O   UNL     1       5.310   4.411  24.071  0.00  0.00    -0.330 OA
ATOM     27  C   UNL     1       4.849   4.727  22.741  0.00  0.00    +0.191 C 
ATOM     28  C   UNL     1       5.223   6.169  22.344  0.00  0.00    +0.178 C 
ATOM     29  C   UNL     1       6.745   6.378  22.467  0.00  0.00    +0.180 C 
ATOM     30  C   UNL     1       7.266   5.829  23.809  0.00  0.00    +0.214 C 
BRANCH  30  31
ATOM     31  O   UNL     1       8.687   5.939  23.929  0.00  0.00    -0.383 OA
ATOM     32  H   UNL     1       8.950   6.771  23.496  0.00  0.00    +0.210 HD
ENDBRANCH  30  31
BRANCH  29  33
ATOM     33  O   UNL     1       7.463   5.829  21.357  0.00  0.00    -0.386 OA
ATOM     34  H   UNL     1       8.398   6.090  21.395  0.00  0.00    +0.210 HD
ENDBRANCH  29  33
BRANCH  28  35
ATOM     35  O   UNL     1       4.530   7.097  23.186  0.00  0.00    -0.386 OA
ATOM     36  H   UNL     1       3.996   7.681  22.618  0.00  0.00    +0.210 HD
ENDBRANCH  28  35
BRANCH  27  37
ATOM     37  C   UNL     1       3.331   4.510  22.718  0.00  0.00    +0.266 C 
BRANCH  37  38
ATOM     38  O   UNL     1       2.801   4.517  24.062  0.00  0.00    -0.458 OA
BRANCH  38  39
ATOM     39  C   UNL     1       2.261   3.343  24.466  0.00  0.00    +0.339 C 
ATOM     40  O   UNL     1       1.493   2.650  23.816  0.00  0.00    -0.245 OA
BRANCH  39  41
ATOM     41  C   UNL     1       2.703   2.999  25.836  0.00  0.00    +0.059 A 
ATOM     42  C   UNL     1       3.796   2.135  25.967  0.00  0.00    +0.015 A 
ATOM     43  C   UNL     1       4.288   1.812  27.232  0.00  0.00    +0.001 A 
ATOM     44  C   UNL     1       3.694   2.360  28.368  0.00  0.00    +0.000 A 
ATOM     45  C   UNL     1       2.601   3.220  28.241  0.00  0.00    +0.001 A 
ATOM     46  C   UNL     1       2.101   3.541  26.976  0.00  0.00    +0.015 A 
ENDBRANCH  39  41
ENDBRANCH  38  39
ENDBRANCH  37  38
ENDBRANCH  27  37
ENDBRANCH  24  25
ENDBRANCH   7  24
BRANCH   1  47
ATOM     47  O   UNL     1       7.874  -3.953  26.118  0.00  0.00    -0.453 OA
BRANCH  47  50
ATOM     48  C   UNL     1       4.750  -3.972  28.247  0.00  0.00    +0.179 C 
ATOM     49  O   UNL     1       5.949  -3.537  27.566  0.00  0.00    -0.331 OA
ATOM     50  C   UNL     1       6.602  -4.422  26.654  0.00  0.00    +0.340 C 
ATOM     51  C   UNL     1       6.709  -5.897  27.143  0.00  0.00    +0.214 C 
ATOM     52  C   UNL     1       5.310  -6.351  27.586  0.00  0.00    +0.180 C 
ATOM     53  C   UNL     1       4.833  -5.449  28.726  0.00  0.00    +0.177 C 
BRANCH  53  54
ATOM     54  O   UNL     1       3.579  -5.965  29.204  0.00  0.00    -0.386 OA
ATOM     55  H   UNL     1       3.124  -6.358  28.435  0.00  0.00    +0.210 HD
ENDBRANCH  53  54
BRANCH  52  56
ATOM     56  O   UNL     1       5.279  -7.724  28.000  0.00  0.00    -0.386 OA
ATOM     57  H   UNL     1       6.018  -7.822  28.635  0.00  0.00    +0.210 HD
ENDBRANCH  52  56
BRANCH  51  58
ATOM     58  O   UNL     1       7.645  -6.061  28.220  0.00  0.00    -0.383 OA
ATOM     59  H   UNL     1       7.787  -7.022  28.370  0.00  0.00    +0.210 HD
ENDBRANCH  51  58
BRANCH  48  60
ATOM     60  C   UNL     1       3.383  -3.702  27.526  0.00  0.00    +0.197 C 
BRANCH  60  61
ATOM     61  O   UNL     1       3.382  -3.578  26.099  0.00  0.00    -0.346 OA
BRANCH  61  65
ATOM     62  C   UNL     1       0.468  -6.692  25.569  0.00  0.00    +0.041 C 
ATOM     63  C   UNL     1       1.979  -6.890  25.641  0.00  0.00    +0.149 C 
ATOM     64  O   UNL     1       2.617  -5.747  26.203  0.00  0.00    -0.343 OA
ATOM     65  C   UNL     1       2.653  -4.581  25.396  0.00  0.00    +0.282 C 
ATOM     66  C   UNL     1       3.323  -4.865  24.017  0.00  0.00    +0.201 C 
ATOM     67  C   UNL     1       2.629  -6.062  23.343  0.00  0.00    +0.179 C 
ATOM     68  C   UNL     1       2.591  -7.270  24.289  0.00  0.00    +0.174 C 
BRANCH  68  69
ATOM     69  O   UNL     1       3.936  -7.749  24.474  0.00  0.00    -0.387 OA
ATOM     70  H   UNL     1       4.090  -7.775  25.447  0.00  0.00    +0.210 HD
ENDBRANCH  68  69
BRANCH  67  71
ATOM     71  O   UNL     1       3.330  -6.421  22.142  0.00  0.00    -0.386 OA
ATOM     72  H   UNL     1       4.282  -6.375  22.373  0.00  0.00    +0.210 HD
ENDBRANCH  67  71
BRANCH  66  73
ATOM     73  O   UNL     1       4.725  -5.185  24.163  0.00  0.00    -0.384 OA
ATOM     74  H   UNL     1       4.825  -6.096  23.825  0.00  0.00    +0.210 HD
ENDBRANCH  66  73
ENDBRANCH  61  65
ENDBRANCH  60  61
ENDBRANCH  48  60
ENDBRANCH  47  50
ENDBRANCH   1  47
TORSDOF 24
ENDMDL
