MODEL 1
REMARK VINA RESULT:      -7.3      0.000      0.000
REMARK  Name = 
REMARK  16 active torsions:
REMARK  status: ('A' for Active; 'I' for Inactive)
REMARK    1  A    between atoms: C_4  and  C_7
REMARK    2  A    between atoms: C_7  and  C_9
REMARK    3  A    between atoms: C_10  and  O_54
REMARK    4  A    between atoms: C_11  and  C_46
REMARK    5  A    between atoms: C_12  and  O_37
REMARK    6  A    between atoms: C_16  and  C_29
REMARK    7  A    between atoms: C_17  and  O_20
REMARK    8  A    between atoms: O_20  and  C_21
REMARK    9  A    between atoms: C_21  and  C_23
REMARK   10  A    between atoms: C_31  and  O_36
REMARK   11  A    between atoms: C_32  and  O_35
REMARK   12  A    between atoms: O_37  and  C_38
REMARK   13  A    between atoms: C_38  and  C_40
REMARK   14  A    between atoms: C_46  and  C_48
REMARK   15  A    between atoms: O_54  and  C_55
REMARK   16  A    between atoms: C_55  and  C_57
REMARK                            x       y       z     vdW  Elec       q    Type
REMARK                         _______ _______ _______ _____ _____    ______ ____
ROOT
ATOM      1  C   UNL     1       7.690  -0.168  25.160  0.00  0.00    +0.108 A 
ATOM      2  C   UNL     1       6.453  -0.733  25.572  0.00  0.00    +0.157 A 
ATOM      3  O   UNL     1       6.113  -2.034  25.234  0.00  0.00    -0.450 OA
ATOM      4  C   UNL     1       4.884  -2.568  25.634  0.00  0.00    +0.182 A 
ATOM      5  C   UNL     1       4.025  -1.956  26.471  0.00  0.00    +0.222 A 
ATOM      6  C   UNL     1       4.517  -0.693  27.054  0.00  0.00    +0.239 A 
ATOM      7  O   UNL     1       4.146  -0.329  28.163  0.00  0.00    -0.283 OA
ATOM      8  C   UNL     1       5.562   0.042  26.308  0.00  0.00    +0.112 A 
ATOM      9  C   UNL     1       5.745   1.437  26.410  0.00  0.00    +0.161 A 
ATOM     10  C   UNL     1       6.885   2.072  25.865  0.00  0.00    +0.108 A 
ATOM     11  C   UNL     1       7.905   1.245  25.332  0.00  0.00    +0.161 A 
ENDROOT
BRANCH   4  12
ATOM     12  C   UNL     1       4.642  -3.950  25.182  0.00  0.00    +0.025 A 
ATOM     13  C   UNL     1       5.250  -5.026  25.853  0.00  0.00    +0.015 A 
ATOM     14  C   UNL     1       4.992  -6.346  25.467  0.00  0.00    +0.050 A 
ATOM     15  C   UNL     1       4.106  -6.586  24.429  0.00  0.00    +0.158 A 
ATOM     16  C   UNL     1       3.478  -5.531  23.773  0.00  0.00    +0.159 A 
ATOM     17  C   UNL     1       3.747  -4.213  24.134  0.00  0.00    +0.060 A 
BRANCH  16  18
ATOM     18  O   UNL     1       2.581  -5.841  22.788  0.00  0.00    -0.503 OA
ATOM     19  H   UNL     1       1.880  -6.388  23.185  0.00  0.00    +0.292 HD
ENDBRANCH  16  18
BRANCH  15  20
ATOM     20  O   UNL     1       3.840  -7.874  24.064  0.00  0.00    -0.503 OA
ATOM     21  H   UNL     1       2.867  -7.909  23.976  0.00  0.00    +0.292 HD
ENDBRANCH  15  20
ENDBRANCH   4  12
BRANCH  10  22
ATOM     22  C   UNL     1       6.971   3.572  25.934  0.00  0.00    +0.200 C 
ATOM     23  O   UNL     1       7.575   4.078  26.880  0.00  0.00    -0.286 OA
BRANCH  22  24
ATOM     24  C   UNL     1       6.351   4.506  24.934  0.00  0.00    +0.023 A 
ATOM     25  C   UNL     1       6.342   5.898  25.076  0.00  0.00    +0.012 A 
ATOM     26  C   UNL     1       5.725   6.703  24.106  0.00  0.00    +0.001 A 
ATOM     27  C   UNL     1       5.131   6.132  22.985  0.00  0.00    +0.000 A 
ATOM     28  C   UNL     1       5.141   4.750  22.823  0.00  0.00    +0.001 A 
ATOM     29  C   UNL     1       5.752   3.944  23.791  0.00  0.00    +0.012 A 
ENDBRANCH  22  24
ENDBRANCH  10  22
BRANCH   1  30
ATOM     30  C   UNL     1       8.737  -1.040  24.515  0.00  0.00    +0.200 C 
ATOM     31  O   UNL     1       9.890  -0.622  24.441  0.00  0.00    -0.286 OA
BRANCH  30  35
ATOM     32  C   UNL     1       7.504  -4.800  22.800  0.00  0.00    +0.000 A 
ATOM     33  C   UNL     1       7.252  -3.600  22.138  0.00  0.00    +0.001 A 
ATOM     34  C   UNL     1       7.712  -2.391  22.677  0.00  0.00    +0.012 A 
ATOM     35  C   UNL     1       8.417  -2.371  23.890  0.00  0.00    +0.023 A 
ATOM     36  C   UNL     1       8.747  -3.591  24.495  0.00  0.00    +0.012 A 
ATOM     37  C   UNL     1       8.272  -4.799  23.964  0.00  0.00    +0.001 A 
ENDBRANCH  30  35
ENDBRANCH   1  30
BRANCH   5  38
ATOM     38  O   UNL     1       2.877  -2.539  27.058  0.00  0.00    -0.415 OA
BRANCH  38  39
ATOM     39  C   UNL     1       3.050  -3.476  28.039  0.00  0.00    +0.345 C 
ATOM     40  O   UNL     1       3.701  -3.344  29.066  0.00  0.00    -0.245 OA
BRANCH  39  41
ATOM     41  C   UNL     1       2.317  -4.738  27.692  0.00  0.00    +0.059 A 
ATOM     42  C   UNL     1       1.312  -4.772  26.713  0.00  0.00    +0.015 A 
ATOM     43  C   UNL     1       0.681  -5.977  26.381  0.00  0.00    +0.001 A 
ATOM     44  C   UNL     1       1.045  -7.160  27.023  0.00  0.00    +0.000 A 
ATOM     45  C   UNL     1       2.040  -7.143  28.000  0.00  0.00    +0.001 A 
ATOM     46  C   UNL     1       2.671  -5.937  28.333  0.00  0.00    +0.015 A 
ENDBRANCH  39  41
ENDBRANCH  38  39
ENDBRANCH   5  38
BRANCH   9  47
ATOM     47  O   UNL     1       4.824   2.216  27.147  0.00  0.00    -0.421 OA
BRANCH  47  48
ATOM     48  C   UNL     1       3.654   2.622  26.524  0.00  0.00    +0.344 C 
ATOM     49  O   UNL     1       2.837   1.880  25.997  0.00  0.00    -0.245 OA
BRANCH  48  50
ATOM     50  C   UNL     1       3.453   4.076  26.782  0.00  0.00    +0.059 A 
ATOM     51  C   UNL     1       2.745   4.896  25.891  0.00  0.00    +0.015 A 
ATOM     52  C   UNL     1       2.690   6.274  26.100  0.00  0.00    +0.001 A 
ATOM     53  C   UNL     1       3.335   6.842  27.196  0.00  0.00    +0.000 A 
ATOM     54  C   UNL     1       4.037   6.034  28.091  0.00  0.00    +0.001 A 
ATOM     55  C   UNL     1       4.097   4.653  27.886  0.00  0.00    +0.015 A 
ENDBRANCH  48  50
ENDBRANCH  47  48
ENDBRANCH   9  47
BRANCH  11  56
ATOM     56  O   UNL     1       9.125   1.841  24.870  0.00  0.00    -0.421 OA
BRANCH  56  57
ATOM     57  C   UNL     1       9.190   2.514  23.638  0.00  0.00    +0.344 C 
ATOM     58  O   UNL     1       8.645   2.141  22.610  0.00  0.00    -0.245 OA
BRANCH  57  59
ATOM     59  C   UNL     1      10.162   3.668  23.697  0.00  0.00    +0.059 A 
ATOM     60  C   UNL     1      11.499   3.517  23.324  0.00  0.00    +0.015 A 
ATOM     61  C   UNL     1      12.358   4.624  23.268  0.00  0.00    +0.001 A 
ATOM     62  C   UNL     1      11.883   5.895  23.591  0.00  0.00    +0.000 A 
ATOM     63  C   UNL     1      10.553   6.059  23.977  0.00  0.00    +0.001 A 
ATOM     64  C   UNL     1       9.697   4.949  24.035  0.00  0.00    +0.015 A 
ENDBRANCH  57  59
ENDBRANCH  56  57
ENDBRANCH  11  56
TORSDOF 16
ENDMDL
MODEL 2
REMARK VINA RESULT:      -7.3      2.211      9.063
REMARK  Name = 
REMARK  16 active torsions:
REMARK  status: ('A' for Active; 'I' for Inactive)
REMARK    1  A    between atoms: C_4  and  C_7
REMARK    2  A    between atoms: C_7  and  C_9
REMARK    3  A    between atoms: C_10  and  O_54
REMARK    4  A    between atoms: C_11  and  C_46
REMARK    5  A    between atoms: C_12  and  O_37
REMARK    6  A    between atoms: C_16  and  C_29
REMARK    7  A    between atoms: C_17  and  O_20
REMARK    8  A    between atoms: O_20  and  C_21
REMARK    9  A    between atoms: C_21  and  C_23
REMARK   10  A    between atoms: C_31  and  O_36
REMARK   11  A    between atoms: C_32  and  O_35
REMARK   12  A    between atoms: O_37  and  C_38
REMARK   13  A    between atoms: C_38  and  C_40
REMARK   14  A    between atoms: C_46  and  C_48
REMARK   15  A    between atoms: O_54  and  C_55
REMARK   16  A    between atoms: C_55  and  C_57
REMARK                            x       y       z     vdW  Elec       q    Type
REMARK                         _______ _______ _______ _____ _____    ______ ____
ROOT
ATOM      1  C   UNL     1       7.728  -0.932  26.035  0.00  0.00    +0.108 A 
ATOM      2  C   UNL     1       6.712  -0.150  26.650  0.00  0.00    +0.157 A 
ATOM      3  O   UNL     1       6.945   1.168  27.013  0.00  0.00    -0.450 OA
ATOM      4  C   UNL     1       5.940   1.917  27.631  0.00  0.00    +0.182 A 
ATOM      5  C   UNL     1       4.669   1.502  27.786  0.00  0.00    +0.222 A 
ATOM      6  C   UNL     1       4.352   0.211  27.147  0.00  0.00    +0.239 A 
ATOM      7  O   UNL     1       3.223  -0.025  26.736  0.00  0.00    -0.283 OA
ATOM      8  C   UNL     1       5.473  -0.726  26.909  0.00  0.00    +0.112 A 
ATOM      9  C   UNL     1       5.304  -2.124  26.828  0.00  0.00    +0.161 A 
ATOM     10  C   UNL     1       6.348  -2.967  26.380  0.00  0.00    +0.108 A 
ATOM     11  C   UNL     1       7.524  -2.349  25.886  0.00  0.00    +0.161 A 
ENDROOT
BRANCH   4  12
ATOM     12  C   UNL     1       6.333   3.292  27.986  0.00  0.00    +0.025 A 
ATOM     13  C   UNL     1       6.371   3.688  29.334  0.00  0.00    +0.015 A 
ATOM     14  C   UNL     1       6.789   4.975  29.691  0.00  0.00    +0.050 A 
ATOM     15  C   UNL     1       7.193   5.853  28.698  0.00  0.00    +0.158 A 
ATOM     16  C   UNL     1       7.186   5.465  27.361  0.00  0.00    +0.159 A 
ATOM     17  C   UNL     1       6.748   4.195  26.995  0.00  0.00    +0.060 A 
BRANCH  16  18
ATOM     18  O   UNL     1       7.641   6.367  26.438  0.00  0.00    -0.503 OA
ATOM     19  H   UNL     1       7.536   7.258  26.814  0.00  0.00    +0.292 HD
ENDBRANCH  16  18
BRANCH  15  20
ATOM     20  O   UNL     1       7.618   7.103  29.046  0.00  0.00    -0.503 OA
ATOM     21  H   UNL     1       7.920   7.503  28.206  0.00  0.00    +0.292 HD
ENDBRANCH  15  20
ENDBRANCH   4  12
BRANCH  10  22
ATOM     22  C   UNL     1       6.127  -4.454  26.401  0.00  0.00    +0.200 C 
ATOM     23  O   UNL     1       6.806  -5.135  27.170  0.00  0.00    -0.286 OA
BRANCH  22  24
ATOM     24  C   UNL     1       5.142  -5.179  25.528  0.00  0.00    +0.023 A 
ATOM     25  C   UNL     1       4.326  -4.543  24.586  0.00  0.00    +0.012 A 
ATOM     26  C   UNL     1       3.416  -5.288  23.821  0.00  0.00    +0.001 A 
ATOM     27  C   UNL     1       3.324  -6.669  23.976  0.00  0.00    +0.000 A 
ATOM     28  C   UNL     1       4.137  -7.319  24.900  0.00  0.00    +0.001 A 
ATOM     29  C   UNL     1       5.042  -6.577  25.668  0.00  0.00    +0.012 A 
ENDBRANCH  22  24
ENDBRANCH  10  22
BRANCH   1  30
ATOM     30  C   UNL     1       9.012  -0.281  25.591  0.00  0.00    +0.200 C 
ATOM     31  O   UNL     1      10.008  -0.392  26.302  0.00  0.00    -0.286 OA
BRANCH  30  35
ATOM     32  C   UNL     1       9.349   1.858  21.861  0.00  0.00    +0.000 A 
ATOM     33  C   UNL     1       8.202   1.123  22.159  0.00  0.00    +0.001 A 
ATOM     34  C   UNL     1       8.081   0.484  23.400  0.00  0.00    +0.012 A 
ATOM     35  C   UNL     1       9.111   0.563  24.348  0.00  0.00    +0.023 A 
ATOM     36  C   UNL     1      10.215   1.382  24.075  0.00  0.00    +0.012 A 
ATOM     37  C   UNL     1      10.343   2.008  22.826  0.00  0.00    +0.001 A 
ENDBRANCH  30  35
ENDBRANCH   1  30
BRANCH   5  38
ATOM     38  O   UNL     1       3.580   2.297  28.218  0.00  0.00    -0.415 OA
BRANCH  38  39
ATOM     39  C   UNL     1       3.128   3.288  27.392  0.00  0.00    +0.345 C 
ATOM     40  O   UNL     1       2.753   3.158  26.234  0.00  0.00    -0.245 OA
BRANCH  39  41
ATOM     41  C   UNL     1       3.147   4.610  28.101  0.00  0.00    +0.059 A 
ATOM     42  C   UNL     1       2.847   4.728  29.466  0.00  0.00    +0.015 A 
ATOM     43  C   UNL     1       2.919   5.971  30.107  0.00  0.00    +0.001 A 
ATOM     44  C   UNL     1       3.291   7.108  29.392  0.00  0.00    +0.000 A 
ATOM     45  C   UNL     1       3.589   7.009  28.034  0.00  0.00    +0.001 A 
ATOM     46  C   UNL     1       3.517   5.765  27.392  0.00  0.00    +0.015 A 
ENDBRANCH  39  41
ENDBRANCH  38  39
ENDBRANCH   5  38
BRANCH   9  47
ATOM     47  O   UNL     1       4.045  -2.700  27.110  0.00  0.00    -0.421 OA
BRANCH  47  48
ATOM     48  C   UNL     1       3.798  -3.154  28.397  0.00  0.00    +0.344 C 
ATOM     49  O   UNL     1       3.958  -2.506  29.421  0.00  0.00    -0.245 OA
BRANCH  48  50
ATOM     50  C   UNL     1       3.116  -4.478  28.315  0.00  0.00    +0.059 A 
ATOM     51  C   UNL     1       3.601  -5.604  28.995  0.00  0.00    +0.015 A 
ATOM     52  C   UNL     1       3.013  -6.853  28.791  0.00  0.00    +0.001 A 
ATOM     53  C   UNL     1       1.939  -6.986  27.913  0.00  0.00    +0.000 A 
ATOM     54  C   UNL     1       1.447  -5.869  27.236  0.00  0.00    +0.001 A 
ATOM     55  C   UNL     1       2.033  -4.617  27.434  0.00  0.00    +0.015 A 
ENDBRANCH  48  50
ENDBRANCH  47  48
ENDBRANCH   9  47
BRANCH  11  56
ATOM     56  O   UNL     1       8.562  -3.162  25.320  0.00  0.00    -0.421 OA
BRANCH  56  57
ATOM     57  C   UNL     1       8.859  -3.115  23.947  0.00  0.00    +0.344 C 
ATOM     58  O   UNL     1       9.749  -2.443  23.448  0.00  0.00    -0.245 OA
BRANCH  57  59
ATOM     59  C   UNL     1       7.828  -3.869  23.139  0.00  0.00    +0.059 A 
ATOM     60  C   UNL     1       6.935  -3.206  22.295  0.00  0.00    +0.015 A 
ATOM     61  C   UNL     1       6.067  -3.925  21.461  0.00  0.00    +0.001 A 
ATOM     62  C   UNL     1       6.085  -5.321  21.472  0.00  0.00    +0.000 A 
ATOM     63  C   UNL     1       6.962  -5.996  22.319  0.00  0.00    +0.001 A 
ATOM     64  C   UNL     1       7.828  -5.273  23.154  0.00  0.00    +0.015 A 
ENDBRANCH  57  59
ENDBRANCH  56  57
ENDBRANCH  11  56
TORSDOF 16
ENDMDL
MODEL 3
REMARK VINA RESULT:      -7.2      2.236      8.703
REMARK  Name = 
REMARK  16 active torsions:
REMARK  status: ('A' for Active; 'I' for Inactive)
REMARK    1  A    between atoms: C_4  and  C_7
REMARK    2  A    between atoms: C_7  and  C_9
REMARK    3  A    between atoms: C_10  and  O_54
REMARK    4  A    between atoms: C_11  and  C_46
REMARK    5  A    between atoms: C_12  and  O_37
REMARK    6  A    between atoms: C_16  and  C_29
REMARK    7  A    between atoms: C_17  and  O_20
REMARK    8  A    between atoms: O_20  and  C_21
REMARK    9  A    between atoms: C_21  and  C_23
REMARK   10  A    between atoms: C_31  and  O_36
REMARK   11  A    between atoms: C_32  and  O_35
REMARK   12  A    between atoms: O_37  and  C_38
REMARK   13  A    between atoms: C_38  and  C_40
REMARK   14  A    between atoms: C_46  and  C_48
REMARK   15  A    between atoms: O_54  and  C_55
REMARK   16  A    between atoms: C_55  and  C_57
REMARK                            x       y       z     vdW  Elec       q    Type
REMARK                         _______ _______ _______ _____ _____    ______ ____
ROOT
ATOM      1  C   UNL     1       6.422  -3.217  26.292  0.00  0.00    +0.108 A 
ATOM      2  C   UNL     1       6.242  -1.822  26.096  0.00  0.00    +0.157 A 
ATOM      3  O   UNL     1       7.083  -1.102  25.261  0.00  0.00    -0.450 OA
ATOM      4  C   UNL     1       6.901   0.273  25.092  0.00  0.00    +0.182 A 
ATOM      5  C   UNL     1       5.854   0.967  25.577  0.00  0.00    +0.222 A 
ATOM      6  C   UNL     1       4.812   0.150  26.227  0.00  0.00    +0.239 A 
ATOM      7  O   UNL     1       3.640   0.506  26.218  0.00  0.00    -0.283 OA
ATOM      8  C   UNL     1       5.217  -1.166  26.770  0.00  0.00    +0.112 A 
ATOM      9  C   UNL     1       4.544  -1.799  27.836  0.00  0.00    +0.161 A 
ATOM     10  C   UNL     1       4.812  -3.143  28.181  0.00  0.00    +0.108 A 
ATOM     11  C   UNL     1       5.680  -3.878  27.334  0.00  0.00    +0.161 A 
ENDROOT
BRANCH   4  12
ATOM     12  C   UNL     1       7.883   0.914  24.200  0.00  0.00    +0.025 A 
ATOM     13  C   UNL     1       8.990   1.591  24.740  0.00  0.00    +0.015 A 
ATOM     14  C   UNL     1       9.956   2.163  23.906  0.00  0.00    +0.050 A 
ATOM     15  C   UNL     1       9.825   2.033  22.532  0.00  0.00    +0.158 A 
ATOM     16  C   UNL     1       8.748   1.344  21.984  0.00  0.00    +0.159 A 
ATOM     17  C   UNL     1       7.768   0.792  22.806  0.00  0.00    +0.060 A 
BRANCH  16  18
ATOM     18  O   UNL     1       8.705   1.214  20.623  0.00  0.00    -0.503 OA
ATOM     19  H   UNL     1       9.094   0.352  20.393  0.00  0.00    +0.292 HD
ENDBRANCH  16  18
BRANCH  15  20
ATOM     20  O   UNL     1      10.777   2.576  21.717  0.00  0.00    -0.503 OA
ATOM     21  H   UNL     1      10.377   3.407  21.392  0.00  0.00    +0.292 HD
ENDBRANCH  15  20
ENDBRANCH   4  12
BRANCH  10  22
ATOM     22  C   UNL     1       4.121  -3.727  29.383  0.00  0.00    +0.200 C 
ATOM     23  O   UNL     1       4.655  -3.595  30.484  0.00  0.00    -0.286 OA
BRANCH  22  24
ATOM     24  C   UNL     1       2.824  -4.483  29.334  0.00  0.00    +0.023 A 
ATOM     25  C   UNL     1       1.745  -4.119  28.520  0.00  0.00    +0.012 A 
ATOM     26  C   UNL     1       0.558  -4.868  28.544  0.00  0.00    +0.001 A 
ATOM     27  C   UNL     1       0.444  -5.989  29.361  0.00  0.00    +0.000 A 
ATOM     28  C   UNL     1       1.512  -6.371  30.167  0.00  0.00    +0.001 A 
ATOM     29  C   UNL     1       2.695  -5.624  30.149  0.00  0.00    +0.012 A 
ENDBRANCH  22  24
ENDBRANCH  10  22
BRANCH   1  30
ATOM     30  C   UNL     1       7.410  -3.975  25.444  0.00  0.00    +0.200 C 
ATOM     31  O   UNL     1       8.503  -4.265  25.926  0.00  0.00    -0.286 OA
BRANCH  30  35
ATOM     32  C   UNL     1       6.348  -5.070  21.410  0.00  0.00    +0.000 A 
ATOM     33  C   UNL     1       5.895  -3.874  21.965  0.00  0.00    +0.001 A 
ATOM     34  C   UNL     1       6.298  -3.502  23.255  0.00  0.00    +0.012 A 
ATOM     35  C   UNL     1       7.147  -4.329  24.005  0.00  0.00    +0.023 A 
ATOM     36  C   UNL     1       7.672  -5.479  23.399  0.00  0.00    +0.012 A 
ATOM     37  C   UNL     1       7.255  -5.859  22.116  0.00  0.00    +0.001 A 
ENDBRANCH  30  35
ENDBRANCH   1  30
BRANCH   5  38
ATOM     38  O   UNL     1       5.526   2.308  25.262  0.00  0.00    -0.415 OA
BRANCH  38  39
ATOM     39  C   UNL     1       5.993   3.302  26.076  0.00  0.00    +0.345 C 
ATOM     40  O   UNL     1       5.758   3.439  27.269  0.00  0.00    -0.245 OA
BRANCH  39  41
ATOM     41  C   UNL     1       6.862   4.248  25.301  0.00  0.00    +0.059 A 
ATOM     42  C   UNL     1       7.944   4.920  25.891  0.00  0.00    +0.015 A 
ATOM     43  C   UNL     1       8.763   5.761  25.128  0.00  0.00    +0.001 A 
ATOM     44  C   UNL     1       8.512   5.939  23.769  0.00  0.00    +0.000 A 
ATOM     45  C   UNL     1       7.439   5.281  23.167  0.00  0.00    +0.001 A 
ATOM     46  C   UNL     1       6.619   4.440  23.931  0.00  0.00    +0.015 A 
ENDBRANCH  39  41
ENDBRANCH  38  39
ENDBRANCH   5  38
BRANCH   9  47
ATOM     47  O   UNL     1       3.516  -1.116  28.525  0.00  0.00    -0.421 OA
BRANCH  47  48
ATOM     48  C   UNL     1       3.869  -0.225  29.527  0.00  0.00    +0.344 C 
ATOM     49  O   UNL     1       4.939  -0.210  30.118  0.00  0.00    -0.245 OA
BRANCH  48  50
ATOM     50  C   UNL     1       2.820   0.830  29.621  0.00  0.00    +0.059 A 
ATOM     51  C   UNL     1       1.469   0.515  29.829  0.00  0.00    +0.015 A 
ATOM     52  C   UNL     1       0.500   1.518  29.781  0.00  0.00    +0.001 A 
ATOM     53  C   UNL     1       0.871   2.838  29.529  0.00  0.00    +0.000 A 
ATOM     54  C   UNL     1       2.213   3.160  29.327  0.00  0.00    +0.001 A 
ATOM     55  C   UNL     1       3.188   2.160  29.372  0.00  0.00    +0.015 A 
ENDBRANCH  48  50
ENDBRANCH  47  48
ENDBRANCH   9  47
BRANCH  11  56
ATOM     56  O   UNL     1       5.891  -5.274  27.583  0.00  0.00    -0.421 OA
BRANCH  56  57
ATOM     57  C   UNL     1       4.919  -6.232  27.248  0.00  0.00    +0.344 C 
ATOM     58  O   UNL     1       4.668  -7.232  27.904  0.00  0.00    -0.245 OA
BRANCH  57  59
ATOM     59  C   UNL     1       4.338  -5.965  25.879  0.00  0.00    +0.059 A 
ATOM     60  C   UNL     1       4.596  -6.810  24.798  0.00  0.00    +0.015 A 
ATOM     61  C   UNL     1       3.953  -6.618  23.567  0.00  0.00    +0.001 A 
ATOM     62  C   UNL     1       3.048  -5.567  23.408  0.00  0.00    +0.000 A 
ATOM     63  C   UNL     1       2.791  -4.707  24.474  0.00  0.00    +0.001 A 
ATOM     64  C   UNL     1       3.438  -4.902  25.704  0.00  0.00    +0.015 A 
ENDBRANCH  57  59
ENDBRANCH  56  57
ENDBRANCH  11  56
TORSDOF 16
ENDMDL
MODEL 4
REMARK VINA RESULT:      -6.9      2.039      5.757
REMARK  Name = 
REMARK  16 active torsions:
REMARK  status: ('A' for Active; 'I' for Inactive)
REMARK    1  A    between atoms: C_4  and  C_7
REMARK    2  A    between atoms: C_7  and  C_9
REMARK    3  A    between atoms: C_10  and  O_54
REMARK    4  A    between atoms: C_11  and  C_46
REMARK    5  A    between atoms: C_12  and  O_37
REMARK    6  A    between atoms: C_16  and  C_29
REMARK    7  A    between atoms: C_17  and  O_20
REMARK    8  A    between atoms: O_20  and  C_21
REMARK    9  A    between atoms: C_21  and  C_23
REMARK   10  A    between atoms: C_31  and  O_36
REMARK   11  A    between atoms: C_32  and  O_35
REMARK   12  A    between atoms: O_37  and  C_38
REMARK   13  A    between atoms: C_38  and  C_40
REMARK   14  A    between atoms: C_46  and  C_48
REMARK   15  A    between atoms: O_54  and  C_55
REMARK   16  A    between atoms: C_55  and  C_57
REMARK                            x       y       z     vdW  Elec       q    Type
REMARK                         _______ _______ _______ _____ _____    ______ ____
ROOT
ATOM      1  C   UNL     1       4.994   0.277  26.093  0.00  0.00    +0.108 A 
ATOM      2  C   UNL     1       5.475  -1.018  25.757  0.00  0.00    +0.157 A 
ATOM      3  O   UNL     1       5.392  -2.067  26.660  0.00  0.00    -0.450 OA
ATOM      4  C   UNL     1       5.885  -3.330  26.319  0.00  0.00    +0.182 A 
ATOM      5  C   UNL     1       6.323  -3.670  25.092  0.00  0.00    +0.222 A 
ATOM      6  C   UNL     1       6.147  -2.632  24.058  0.00  0.00    +0.239 A 
ATOM      7  O   UNL     1       5.978  -2.940  22.885  0.00  0.00    -0.283 OA
ATOM      8  C   UNL     1       6.056  -1.226  24.511  0.00  0.00    +0.112 A 
ATOM      9  C   UNL     1       6.419  -0.131  23.700  0.00  0.00    +0.161 A 
ATOM     10  C   UNL     1       6.111   1.197  24.075  0.00  0.00    +0.108 A 
ATOM     11  C   UNL     1       5.305   1.384  25.226  0.00  0.00    +0.161 A 
ENDROOT
BRANCH   4  12
ATOM     12  C   UNL     1       5.756  -4.343  27.381  0.00  0.00    +0.025 A 
ATOM     13  C   UNL     1       6.761  -5.311  27.557  0.00  0.00    +0.015 A 
ATOM     14  C   UNL     1       6.678  -6.249  28.592  0.00  0.00    +0.050 A 
ATOM     15  C   UNL     1       5.602  -6.199  29.464  0.00  0.00    +0.158 A 
ATOM     16  C   UNL     1       4.613  -5.231  29.317  0.00  0.00    +0.159 A 
ATOM     17  C   UNL     1       4.675  -4.308  28.276  0.00  0.00    +0.060 A 
BRANCH  16  18
ATOM     18  O   UNL     1       3.604  -5.211  30.240  0.00  0.00    -0.503 OA
ATOM     19  H   UNL     1       3.367  -6.133  30.443  0.00  0.00    +0.292 HD
ENDBRANCH  16  18
BRANCH  15  20
ATOM     20  O   UNL     1       5.529  -7.103  30.485  0.00  0.00    -0.503 OA
ATOM     21  H   UNL     1       6.049  -6.699  31.208  0.00  0.00    +0.292 HD
ENDBRANCH  15  20
ENDBRANCH   4  12
BRANCH  10  22
ATOM     22  C   UNL     1       6.605   2.321  23.206  0.00  0.00    +0.200 C 
ATOM     23  O   UNL     1       6.377   2.268  21.998  0.00  0.00    -0.286 OA
BRANCH  22  24
ATOM     24  C   UNL     1       7.382   3.505  23.708  0.00  0.00    +0.023 A 
ATOM     25  C   UNL     1       7.794   3.654  25.037  0.00  0.00    +0.012 A 
ATOM     26  C   UNL     1       8.501   4.801  25.433  0.00  0.00    +0.001 A 
ATOM     27  C   UNL     1       8.817   5.793  24.509  0.00  0.00    +0.000 A 
ATOM     28  C   UNL     1       8.425   5.654  23.181  0.00  0.00    +0.001 A 
ATOM     29  C   UNL     1       7.715   4.514  22.784  0.00  0.00    +0.012 A 
ENDBRANCH  22  24
ENDBRANCH  10  22
BRANCH   1  30
ATOM     30  C   UNL     1       4.210   0.483  27.363  0.00  0.00    +0.200 C 
ATOM     31  O   UNL     1       4.583   1.344  28.156  0.00  0.00    -0.286 OA
BRANCH  30  35
ATOM     32  C   UNL     1       1.042  -2.206  28.518  0.00  0.00    +0.000 A 
ATOM     33  C   UNL     1       1.835  -1.586  29.482  0.00  0.00    +0.001 A 
ATOM     34  C   UNL     1       2.821  -0.667  29.095  0.00  0.00    +0.012 A 
ATOM     35  C   UNL     1       3.029  -0.372  27.740  0.00  0.00    +0.023 A 
ATOM     36  C   UNL     1       2.163  -0.929  26.790  0.00  0.00    +0.012 A 
ATOM     37  C   UNL     1       1.189  -1.860  27.176  0.00  0.00    +0.001 A 
ENDBRANCH  30  35
ENDBRANCH   1  30
BRANCH   5  38
ATOM     38  O   UNL     1       6.636  -4.979  24.653  0.00  0.00    -0.415 OA
BRANCH  38  39
ATOM     39  C   UNL     1       5.749  -5.623  23.836  0.00  0.00    +0.345 C 
ATOM     40  O   UNL     1       5.948  -5.985  22.685  0.00  0.00    -0.245 OA
BRANCH  39  41
ATOM     41  C   UNL     1       4.446  -5.840  24.548  0.00  0.00    +0.059 A 
ATOM     42  C   UNL     1       3.317  -5.046  24.294  0.00  0.00    +0.015 A 
ATOM     43  C   UNL     1       2.103  -5.305  24.943  0.00  0.00    +0.001 A 
ATOM     44  C   UNL     1       2.004  -6.358  25.850  0.00  0.00    +0.000 A 
ATOM     45  C   UNL     1       3.117  -7.155  26.115  0.00  0.00    +0.001 A 
ATOM     46  C   UNL     1       4.332  -6.896  25.467  0.00  0.00    +0.015 A 
ENDBRANCH  39  41
ENDBRANCH  38  39
ENDBRANCH   5  38
BRANCH   9  47
ATOM     47  O   UNL     1       7.024  -0.355  22.442  0.00  0.00    -0.421 OA
BRANCH  47  48
ATOM     48  C   UNL     1       8.309  -0.876  22.409  0.00  0.00    +0.344 C 
ATOM     49  O   UNL     1       8.614  -1.984  21.992  0.00  0.00    -0.245 OA
BRANCH  48  50
ATOM     50  C   UNL     1       9.273   0.202  22.770  0.00  0.00    +0.059 A 
ATOM     51  C   UNL     1       9.755   0.358  24.078  0.00  0.00    +0.015 A 
ATOM     52  C   UNL     1      10.552   1.456  24.405  0.00  0.00    +0.001 A 
ATOM     53  C   UNL     1      10.875   2.400  23.432  0.00  0.00    +0.000 A 
ATOM     54  C   UNL     1      10.405   2.250  22.128  0.00  0.00    +0.001 A 
ATOM     55  C   UNL     1       9.605   1.154  21.795  0.00  0.00    +0.015 A 
ENDBRANCH  48  50
ENDBRANCH  47  48
ENDBRANCH   9  47
BRANCH  11  56
ATOM     56  O   UNL     1       4.876   2.706  25.578  0.00  0.00    -0.421 OA
BRANCH  56  57
ATOM     57  C   UNL     1       3.748   3.293  24.979  0.00  0.00    +0.344 C 
ATOM     58  O   UNL     1       2.678   2.730  24.804  0.00  0.00    -0.245 OA
BRANCH  57  59
ATOM     59  C   UNL     1       4.075   4.658  24.420  0.00  0.00    +0.059 A 
ATOM     60  C   UNL     1       4.572   5.680  25.230  0.00  0.00    +0.015 A 
ATOM     61  C   UNL     1       4.985   6.900  24.676  0.00  0.00    +0.001 A 
ATOM     62  C   UNL     1       4.896   7.108  23.299  0.00  0.00    +0.000 A 
ATOM     63  C   UNL     1       4.389   6.101  22.479  0.00  0.00    +0.001 A 
ATOM     64  C   UNL     1       3.975   4.882  23.037  0.00  0.00    +0.015 A 
ENDBRANCH  57  59
ENDBRANCH  56  57
ENDBRANCH  11  56
TORSDOF 16
ENDMDL
MODEL 5
REMARK VINA RESULT:      -6.9      2.335      6.333
REMARK  Name = 
REMARK  16 active torsions:
REMARK  status: ('A' for Active; 'I' for Inactive)
REMARK    1  A    between atoms: C_4  and  C_7
REMARK    2  A    between atoms: C_7  and  C_9
REMARK    3  A    between atoms: C_10  and  O_54
REMARK    4  A    between atoms: C_11  and  C_46
REMARK    5  A    between atoms: C_12  and  O_37
REMARK    6  A    between atoms: C_16  and  C_29
REMARK    7  A    between atoms: C_17  and  O_20
REMARK    8  A    between atoms: O_20  and  C_21
REMARK    9  A    between atoms: C_21  and  C_23
REMARK   10  A    between atoms: C_31  and  O_36
REMARK   11  A    between atoms: C_32  and  O_35
REMARK   12  A    between atoms: O_37  and  C_38
REMARK   13  A    between atoms: C_38  and  C_40
REMARK   14  A    between atoms: C_46  and  C_48
REMARK   15  A    between atoms: O_54  and  C_55
REMARK   16  A    between atoms: C_55  and  C_57
REMARK                            x       y       z     vdW  Elec       q    Type
REMARK                         _______ _______ _______ _____ _____    ______ ____
ROOT
ATOM      1  C   UNL     1       6.219   1.857  27.378  0.00  0.00    +0.108 A 
ATOM      2  C   UNL     1       6.540   0.763  26.530  0.00  0.00    +0.157 A 
ATOM      3  O   UNL     1       6.414  -0.546  26.970  0.00  0.00    -0.450 OA
ATOM      4  C   UNL     1       6.751  -1.608  26.127  0.00  0.00    +0.182 A 
ATOM      5  C   UNL     1       7.066  -1.476  24.825  0.00  0.00    +0.222 A 
ATOM      6  C   UNL     1       6.925  -0.110  24.285  0.00  0.00    +0.239 A 
ATOM      7  O   UNL     1       6.645   0.072  23.107  0.00  0.00    -0.283 OA
ATOM      8  C   UNL     1       7.009   1.014  25.244  0.00  0.00    +0.112 A 
ATOM      9  C   UNL     1       7.425   2.311  24.876  0.00  0.00    +0.161 A 
ATOM     10  C   UNL     1       7.281   3.408  25.757  0.00  0.00    +0.108 A 
ATOM     11  C   UNL     1       6.579   3.189  26.968  0.00  0.00    +0.161 A 
ENDROOT
BRANCH   4  12
ATOM     12  C   UNL     1       6.594  -2.942  26.734  0.00  0.00    +0.025 A 
ATOM     13  C   UNL     1       5.400  -3.280  27.394  0.00  0.00    +0.015 A 
ATOM     14  C   UNL     1       5.216  -4.558  27.932  0.00  0.00    +0.050 A 
ATOM     15  C   UNL     1       6.220  -5.503  27.785  0.00  0.00    +0.158 A 
ATOM     16  C   UNL     1       7.397  -5.190  27.111  0.00  0.00    +0.159 A 
ATOM     17  C   UNL     1       7.598  -3.914  26.593  0.00  0.00    +0.060 A 
BRANCH  16  18
ATOM     18  O   UNL     1       8.325  -6.185  26.963  0.00  0.00    -0.503 OA
ATOM     19  H   UNL     1       8.125  -6.879  27.615  0.00  0.00    +0.292 HD
ENDBRANCH  16  18
BRANCH  15  20
ATOM     20  O   UNL     1       6.034  -6.757  28.294  0.00  0.00    -0.503 OA
ATOM     21  H   UNL     1       6.835  -6.924  28.831  0.00  0.00    +0.292 HD
ENDBRANCH  15  20
ENDBRANCH   4  12
BRANCH  10  22
ATOM     22  C   UNL     1       7.825   4.744  25.332  0.00  0.00    +0.200 C 
ATOM     23  O   UNL     1       8.747   5.233  25.985  0.00  0.00    -0.286 OA
BRANCH  22  24
ATOM     24  C   UNL     1       7.307   5.542  24.169  0.00  0.00    +0.023 A 
ATOM     25  C   UNL     1       8.129   6.270  23.301  0.00  0.00    +0.012 A 
ATOM     26  C   UNL     1       7.567   7.006  22.247  0.00  0.00    +0.001 A 
ATOM     27  C   UNL     1       6.191   7.009  22.040  0.00  0.00    +0.000 A 
ATOM     28  C   UNL     1       5.360   6.281  22.887  0.00  0.00    +0.001 A 
ATOM     29  C   UNL     1       5.918   5.550  23.942  0.00  0.00    +0.012 A 
ENDBRANCH  22  24
ENDBRANCH  10  22
BRANCH   1  30
ATOM     30  C   UNL     1       5.549   1.607  28.705  0.00  0.00    +0.200 C 
ATOM     31  O   UNL     1       6.212   1.725  29.733  0.00  0.00    -0.286 OA
BRANCH  30  35
ATOM     32  C   UNL     1       1.367   0.572  28.899  0.00  0.00    +0.000 A 
ATOM     33  C   UNL     1       2.064   0.496  27.694  0.00  0.00    +0.001 A 
ATOM     34  C   UNL     1       3.436   0.776  27.658  0.00  0.00    +0.012 A 
ATOM     35  C   UNL     1       4.121   1.148  28.824  0.00  0.00    +0.023 A 
ATOM     36  C   UNL     1       3.431   1.127  30.044  0.00  0.00    +0.012 A 
ATOM     37  C   UNL     1       2.054   0.863  30.077  0.00  0.00    +0.001 A 
ENDBRANCH  30  35
ENDBRANCH   1  30
BRANCH   5  38
ATOM     38  O   UNL     1       7.213  -2.531  23.892  0.00  0.00    -0.415 OA
BRANCH  38  39
ATOM     39  C   UNL     1       6.158  -2.835  23.079  0.00  0.00    +0.345 C 
ATOM     40  O   UNL     1       5.856  -2.273  22.036  0.00  0.00    -0.245 OA
BRANCH  39  41
ATOM     41  C   UNL     1       5.378  -3.987  23.641  0.00  0.00    +0.059 A 
ATOM     42  C   UNL     1       5.922  -5.277  23.741  0.00  0.00    +0.015 A 
ATOM     43  C   UNL     1       5.183  -6.320  24.314  0.00  0.00    +0.001 A 
ATOM     44  C   UNL     1       3.895  -6.086  24.792  0.00  0.00    +0.000 A 
ATOM     45  C   UNL     1       3.339  -4.811  24.698  0.00  0.00    +0.001 A 
ATOM     46  C   UNL     1       4.078  -3.767  24.125  0.00  0.00    +0.015 A 
ENDBRANCH  39  41
ENDBRANCH  38  39
ENDBRANCH   5  38
BRANCH   9  47
ATOM     47  O   UNL     1       7.916   2.550  23.573  0.00  0.00    -0.421 OA
BRANCH  47  48
ATOM     48  C   UNL     1       9.287   2.516  23.365  0.00  0.00    +0.344 C 
ATOM     49  O   UNL     1      10.071   3.405  23.662  0.00  0.00    -0.245 OA
BRANCH  48  50
ATOM     50  C   UNL     1       9.669   1.147  22.914  0.00  0.00    +0.059 A 
ATOM     51  C   UNL     1       9.305   0.654  21.653  0.00  0.00    +0.015 A 
ATOM     52  C   UNL     1       9.566  -0.675  21.318  0.00  0.00    +0.001 A 
ATOM     53  C   UNL     1      10.194  -1.517  22.235  0.00  0.00    +0.000 A 
ATOM     54  C   UNL     1      10.565  -1.033  23.489  0.00  0.00    +0.001 A 
ATOM     55  C   UNL     1      10.303   0.297  23.831  0.00  0.00    +0.015 A 
ENDBRANCH  48  50
ENDBRANCH  47  48
ENDBRANCH   9  47
BRANCH  11  56
ATOM     56  O   UNL     1       6.313   4.298  27.838  0.00  0.00    -0.421 OA
BRANCH  56  57
ATOM     57  C   UNL     1       5.380   5.291  27.492  0.00  0.00    +0.344 C 
ATOM     58  O   UNL     1       5.651   6.467  27.300  0.00  0.00    -0.245 OA
BRANCH  57  59
ATOM     59  C   UNL     1       3.967   4.759  27.556  0.00  0.00    +0.059 A 
ATOM     60  C   UNL     1       3.254   4.723  28.755  0.00  0.00    +0.015 A 
ATOM     61  C   UNL     1       1.905   4.342  28.777  0.00  0.00    +0.001 A 
ATOM     62  C   UNL     1       1.259   3.986  27.592  0.00  0.00    +0.000 A 
ATOM     63  C   UNL     1       1.963   4.006  26.388  0.00  0.00    +0.001 A 
ATOM     64  C   UNL     1       3.314   4.386  26.371  0.00  0.00    +0.015 A 
ENDBRANCH  57  59
ENDBRANCH  56  57
ENDBRANCH  11  56
TORSDOF 16
ENDMDL
MODEL 6
REMARK VINA RESULT:      -6.7      1.926      8.583
REMARK  Name = 
REMARK  16 active torsions:
REMARK  status: ('A' for Active; 'I' for Inactive)
REMARK    1  A    between atoms: C_4  and  C_7
REMARK    2  A    between atoms: C_7  and  C_9
REMARK    3  A    between atoms: C_10  and  O_54
REMARK    4  A    between atoms: C_11  and  C_46
REMARK    5  A    between atoms: C_12  and  O_37
REMARK    6  A    between atoms: C_16  and  C_29
REMARK    7  A    between atoms: C_17  and  O_20
REMARK    8  A    between atoms: O_20  and  C_21
REMARK    9  A    between atoms: C_21  and  C_23
REMARK   10  A    between atoms: C_31  and  O_36
REMARK   11  A    between atoms: C_32  and  O_35
REMARK   12  A    between atoms: O_37  and  C_38
REMARK   13  A    between atoms: C_38  and  C_40
REMARK   14  A    between atoms: C_46  and  C_48
REMARK   15  A    between atoms: O_54  and  C_55
REMARK   16  A    between atoms: C_55  and  C_57
REMARK                            x       y       z     vdW  Elec       q    Type
REMARK                         _______ _______ _______ _____ _____    ______ ____
ROOT
ATOM      1  C   UNL     1       7.027  -2.410  26.189  0.00  0.00    +0.108 A 
ATOM      2  C   UNL     1       6.609  -1.055  26.099  0.00  0.00    +0.157 A 
ATOM      3  O   UNL     1       7.411  -0.097  25.498  0.00  0.00    -0.450 OA
ATOM      4  C   UNL     1       6.990   1.235  25.433  0.00  0.00    +0.182 A 
ATOM      5  C   UNL     1       5.765   1.663  25.791  0.00  0.00    +0.222 A 
ATOM      6  C   UNL     1       4.816   0.597  26.165  0.00  0.00    +0.239 A 
ATOM      7  O   UNL     1       3.613   0.738  25.985  0.00  0.00    -0.283 OA
ATOM      8  C   UNL     1       5.383  -0.684  26.642  0.00  0.00    +0.112 A 
ATOM      9  C   UNL     1       4.692  -1.557  27.508  0.00  0.00    +0.161 A 
ATOM     10  C   UNL     1       5.163  -2.865  27.764  0.00  0.00    +0.108 A 
ATOM     11  C   UNL     1       6.278  -3.319  27.016  0.00  0.00    +0.161 A 
ENDROOT
BRANCH   4  12
ATOM     12  C   UNL     1       7.952   2.149  24.793  0.00  0.00    +0.025 A 
ATOM     13  C   UNL     1       8.318   3.347  25.432  0.00  0.00    +0.015 A 
ATOM     14  C   UNL     1       9.266   4.201  24.860  0.00  0.00    +0.050 A 
ATOM     15  C   UNL     1       9.865   3.842  23.662  0.00  0.00    +0.158 A 
ATOM     16  C   UNL     1       9.530   2.648  23.032  0.00  0.00    +0.159 A 
ATOM     17  C   UNL     1       8.570   1.802  23.581  0.00  0.00    +0.060 A 
BRANCH  16  18
ATOM     18  O   UNL     1      10.193   2.334  21.877  0.00  0.00    -0.503 OA
ATOM     19  H   UNL     1      10.636   1.478  22.010  0.00  0.00    +0.292 HD
ENDBRANCH  16  18
BRANCH  15  20
ATOM     20  O   UNL     1      10.803   4.668  23.113  0.00  0.00    -0.503 OA
ATOM     21  H   UNL     1      10.347   5.088  22.356  0.00  0.00    +0.292 HD
ENDBRANCH  15  20
ENDBRANCH   4  12
BRANCH  10  22
ATOM     22  C   UNL     1       4.423  -3.711  28.764  0.00  0.00    +0.200 C 
ATOM     23  O   UNL     1       4.933  -3.887  29.870  0.00  0.00    -0.286 OA
BRANCH  22  24
ATOM     24  C   UNL     1       3.103  -4.379  28.501  0.00  0.00    +0.023 A 
ATOM     25  C   UNL     1       2.277  -4.887  29.510  0.00  0.00    +0.012 A 
ATOM     26  C   UNL     1       1.066  -5.515  29.181  0.00  0.00    +0.001 A 
ATOM     27  C   UNL     1       0.661  -5.625  27.854  0.00  0.00    +0.000 A 
ATOM     28  C   UNL     1       1.465  -5.113  26.839  0.00  0.00    +0.001 A 
ATOM     29  C   UNL     1       2.677  -4.492  27.164  0.00  0.00    +0.012 A 
ENDBRANCH  22  24
ENDBRANCH  10  22
BRANCH   1  30
ATOM     30  C   UNL     1       8.265  -2.865  25.459  0.00  0.00    +0.200 C 
ATOM     31  O   UNL     1       9.051  -3.612  26.036  0.00  0.00    -0.286 OA
BRANCH  30  35
ATOM     32  C   UNL     1       9.316  -1.186  21.628  0.00  0.00    +0.000 A 
ATOM     33  C   UNL     1      10.291  -1.406  22.600  0.00  0.00    +0.001 A 
ATOM     34  C   UNL     1       9.945  -2.009  23.817  0.00  0.00    +0.012 A 
ATOM     35  C   UNL     1       8.619  -2.384  24.077  0.00  0.00    +0.023 A 
ATOM     36  C   UNL     1       7.669  -2.246  23.056  0.00  0.00    +0.012 A 
ATOM     37  C   UNL     1       8.012  -1.628  21.845  0.00  0.00    +0.001 A 
ENDBRANCH  30  35
ENDBRANCH   1  30
BRANCH   5  38
ATOM     38  O   UNL     1       5.232   2.953  25.554  0.00  0.00    -0.415 OA
BRANCH  38  39
ATOM     39  C   UNL     1       4.848   3.277  24.282  0.00  0.00    +0.345 C 
ATOM     40  O   UNL     1       4.040   2.675  23.588  0.00  0.00    -0.245 OA
BRANCH  39  41
ATOM     41  C   UNL     1       5.568   4.509  23.816  0.00  0.00    +0.059 A 
ATOM     42  C   UNL     1       5.607   5.684  24.583  0.00  0.00    +0.015 A 
ATOM     43  C   UNL     1       6.326   6.801  24.140  0.00  0.00    +0.001 A 
ATOM     44  C   UNL     1       7.013   6.756  22.928  0.00  0.00    +0.000 A 
ATOM     45  C   UNL     1       6.982   5.598  22.152  0.00  0.00    +0.001 A 
ATOM     46  C   UNL     1       6.261   4.480  22.595  0.00  0.00    +0.015 A 
ENDBRANCH  39  41
ENDBRANCH  38  39
ENDBRANCH   5  38
BRANCH   9  47
ATOM     47  O   UNL     1       3.455  -1.162  28.068  0.00  0.00    -0.421 OA
BRANCH  47  48
ATOM     48  C   UNL     1       3.432  -0.737  29.388  0.00  0.00    +0.344 C 
ATOM     49  O   UNL     1       3.124  -1.426  30.349  0.00  0.00    -0.245 OA
BRANCH  48  50
ATOM     50  C   UNL     1       4.037   0.623  29.463  0.00  0.00    +0.059 A 
ATOM     51  C   UNL     1       3.333   1.770  29.070  0.00  0.00    +0.015 A 
ATOM     52  C   UNL     1       3.975   3.009  29.032  0.00  0.00    +0.001 A 
ATOM     53  C   UNL     1       5.319   3.111  29.386  0.00  0.00    +0.000 A 
ATOM     54  C   UNL     1       6.026   1.976  29.784  0.00  0.00    +0.001 A 
ATOM     55  C   UNL     1       5.389   0.733  29.823  0.00  0.00    +0.015 A 
ENDBRANCH  48  50
ENDBRANCH  47  48
ENDBRANCH   9  47
BRANCH  11  56
ATOM     56  O   UNL     1       6.719  -4.676  27.163  0.00  0.00    -0.421 OA
BRANCH  56  57
ATOM     57  C   UNL     1       6.045  -5.736  26.534  0.00  0.00    +0.344 C 
ATOM     58  O   UNL     1       5.693  -6.767  27.089  0.00  0.00    -0.245 OA
BRANCH  57  59
ATOM     59  C   UNL     1       5.959  -5.521  25.041  0.00  0.00    +0.059 A 
ATOM     60  C   UNL     1       7.055  -5.744  24.207  0.00  0.00    +0.015 A 
ATOM     61  C   UNL     1       6.927  -5.657  22.813  0.00  0.00    +0.001 A 
ATOM     62  C   UNL     1       5.693  -5.338  22.243  0.00  0.00    +0.000 A 
ATOM     63  C   UNL     1       4.592  -5.100  23.065  0.00  0.00    +0.001 A 
ATOM     64  C   UNL     1       4.725  -5.186  24.460  0.00  0.00    +0.015 A 
ENDBRANCH  57  59
ENDBRANCH  56  57
ENDBRANCH  11  56
TORSDOF 16
ENDMDL
MODEL 7
REMARK VINA RESULT:      -6.3      2.504      4.185
REMARK  Name = 
REMARK  16 active torsions:
REMARK  status: ('A' for Active; 'I' for Inactive)
REMARK    1  A    between atoms: C_4  and  C_7
REMARK    2  A    between atoms: C_7  and  C_9
REMARK    3  A    between atoms: C_10  and  O_54
REMARK    4  A    between atoms: C_11  and  C_46
REMARK    5  A    between atoms: C_12  and  O_37
REMARK    6  A    between atoms: C_16  and  C_29
REMARK    7  A    between atoms: C_17  and  O_20
REMARK    8  A    between atoms: O_20  and  C_21
REMARK    9  A    between atoms: C_21  and  C_23
REMARK   10  A    between atoms: C_31  and  O_36
REMARK   11  A    between atoms: C_32  and  O_35
REMARK   12  A    between atoms: O_37  and  C_38
REMARK   13  A    between atoms: C_38  and  C_40
REMARK   14  A    between atoms: C_46  and  C_48
REMARK   15  A    between atoms: O_54  and  C_55
REMARK   16  A    between atoms: C_55  and  C_57
REMARK                            x       y       z     vdW  Elec       q    Type
REMARK                         _______ _______ _______ _____ _____    ______ ____
ROOT
ATOM      1  C   UNL     1       6.311   2.602  23.582  0.00  0.00    +0.108 A 
ATOM      2  C   UNL     1       6.061   1.549  24.503  0.00  0.00    +0.157 A 
ATOM      3  O   UNL     1       6.730   0.338  24.406  0.00  0.00    -0.450 OA
ATOM      4  C   UNL     1       6.458  -0.691  25.311  0.00  0.00    +0.182 A 
ATOM      5  C   UNL     1       5.675  -0.562  26.399  0.00  0.00    +0.222 A 
ATOM      6  C   UNL     1       5.189   0.807  26.657  0.00  0.00    +0.239 A 
ATOM      7  O   UNL     1       4.961   1.186  27.799  0.00  0.00    -0.283 OA
ATOM      8  C   UNL     1       5.112   1.732  25.504  0.00  0.00    +0.112 A 
ATOM      9  C   UNL     1       4.216   2.820  25.448  0.00  0.00    +0.161 A 
ATOM     10  C   UNL     1       4.321   3.809  24.443  0.00  0.00    +0.108 A 
ATOM     11  C   UNL     1       5.439   3.746  23.575  0.00  0.00    +0.161 A 
ENDROOT
BRANCH   4  12
ATOM     12  C   UNL     1       7.221  -1.930  25.075  0.00  0.00    +0.025 A 
ATOM     13  C   UNL     1       8.211  -2.333  25.989  0.00  0.00    +0.015 A 
ATOM     14  C   UNL     1       8.910  -3.530  25.804  0.00  0.00    +0.050 A 
ATOM     15  C   UNL     1       8.599  -4.334  24.719  0.00  0.00    +0.158 A 
ATOM     16  C   UNL     1       7.603  -3.960  23.821  0.00  0.00    +0.159 A 
ATOM     17  C   UNL     1       6.919  -2.758  23.983  0.00  0.00    +0.060 A 
BRANCH  16  18
ATOM     18  O   UNL     1       7.316  -4.823  22.798  0.00  0.00    -0.503 OA
ATOM     19  H   UNL     1       6.563  -4.457  22.303  0.00  0.00    +0.292 HD
ENDBRANCH  16  18
BRANCH  15  20
ATOM     20  O   UNL     1       9.268  -5.512  24.548  0.00  0.00    -0.503 OA
ATOM     21  H   UNL     1      10.042  -5.276  23.998  0.00  0.00    +0.292 HD
ENDBRANCH  15  20
ENDBRANCH   4  12
BRANCH  10  22
ATOM     22  C   UNL     1       3.279   4.894  24.393  0.00  0.00    +0.200 C 
ATOM     23  O   UNL     1       3.220   5.689  25.330  0.00  0.00    -0.286 OA
BRANCH  22  24
ATOM     24  C   UNL     1       2.284   5.065  23.280  0.00  0.00    +0.023 A 
ATOM     25  C   UNL     1       1.650   3.996  22.637  0.00  0.00    +0.012 A 
ATOM     26  C   UNL     1       0.745   4.238  21.592  0.00  0.00    +0.001 A 
ATOM     27  C   UNL     1       0.453   5.539  21.193  0.00  0.00    +0.000 A 
ATOM     28  C   UNL     1       1.066   6.614  21.831  0.00  0.00    +0.001 A 
ATOM     29  C   UNL     1       1.973   6.376  22.870  0.00  0.00    +0.012 A 
ENDBRANCH  22  24
ENDBRANCH  10  22
BRANCH   1  30
ATOM     30  C   UNL     1       7.452   2.488  22.603  0.00  0.00    +0.200 C 
ATOM     31  O   UNL     1       7.323   2.983  21.486  0.00  0.00    -0.286 OA
BRANCH  30  35
ATOM     32  C   UNL     1      10.885   0.081  23.612  0.00  0.00    +0.000 A 
ATOM     33  C   UNL     1      10.059  -0.269  22.545  0.00  0.00    +0.001 A 
ATOM     34  C   UNL     1       8.983   0.555  22.190  0.00  0.00    +0.012 A 
ATOM     35  C   UNL     1       8.716   1.730  22.908  0.00  0.00    +0.023 A 
ATOM     36  C   UNL     1       9.609   2.120  23.915  0.00  0.00    +0.012 A 
ATOM     37  C   UNL     1      10.676   1.287  24.280  0.00  0.00    +0.001 A 
ENDBRANCH  30  35
ENDBRANCH   1  30
BRANCH   5  38
ATOM     38  O   UNL     1       5.537  -1.508  27.443  0.00  0.00    -0.415 OA
BRANCH  38  39
ATOM     39  C   UNL     1       4.402  -2.269  27.487  0.00  0.00    +0.345 C 
ATOM     40  O   UNL     1       3.326  -1.946  27.971  0.00  0.00    -0.245 OA
BRANCH  39  41
ATOM     41  C   UNL     1       4.643  -3.605  26.847  0.00  0.00    +0.059 A 
ATOM     42  C   UNL     1       3.980  -4.000  25.675  0.00  0.00    +0.015 A 
ATOM     43  C   UNL     1       4.262  -5.235  25.078  0.00  0.00    +0.001 A 
ATOM     44  C   UNL     1       5.208  -6.088  25.645  0.00  0.00    +0.000 A 
ATOM     45  C   UNL     1       5.874  -5.712  26.812  0.00  0.00    +0.001 A 
ATOM     46  C   UNL     1       5.591  -4.476  27.409  0.00  0.00    +0.015 A 
ENDBRANCH  39  41
ENDBRANCH  38  39
ENDBRANCH   5  38
BRANCH   9  47
ATOM     47  O   UNL     1       3.245   2.987  26.462  0.00  0.00    -0.421 OA
BRANCH  47  48
ATOM     48  C   UNL     1       2.036   2.320  26.336  0.00  0.00    +0.344 C 
ATOM     49  O   UNL     1       1.516   1.986  25.281  0.00  0.00    -0.245 OA
BRANCH  48  50
ATOM     50  C   UNL     1       1.579   1.897  27.691  0.00  0.00    +0.059 A 
ATOM     51  C   UNL     1       1.869   2.648  28.839  0.00  0.00    +0.015 A 
ATOM     52  C   UNL     1       1.539   2.155  30.102  0.00  0.00    +0.001 A 
ATOM     53  C   UNL     1       0.917   0.914  30.227  0.00  0.00    +0.000 A 
ATOM     54  C   UNL     1       0.620   0.163  29.090  0.00  0.00    +0.001 A 
ATOM     55  C   UNL     1       0.950   0.650  27.823  0.00  0.00    +0.015 A 
ENDBRANCH  48  50
ENDBRANCH  47  48
ENDBRANCH   9  47
BRANCH  11  56
ATOM     56  O   UNL     1       5.644   4.792  22.614  0.00  0.00    -0.421 OA
BRANCH  56  57
ATOM     57  C   UNL     1       6.024   6.085  23.011  0.00  0.00    +0.344 C 
ATOM     58  O   UNL     1       5.413   7.107  22.737  0.00  0.00    -0.245 OA
BRANCH  57  59
ATOM     59  C   UNL     1       7.382   6.076  23.674  0.00  0.00    +0.059 A 
ATOM     60  C   UNL     1       7.523   5.855  25.045  0.00  0.00    +0.015 A 
ATOM     61  C   UNL     1       8.793   5.729  25.626  0.00  0.00    +0.001 A 
ATOM     62  C   UNL     1       9.937   5.830  24.832  0.00  0.00    +0.000 A 
ATOM     63  C   UNL     1       9.811   6.063  23.464  0.00  0.00    +0.001 A 
ATOM     64  C   UNL     1       8.538   6.192  22.887  0.00  0.00    +0.015 A 
ENDBRANCH  57  59
ENDBRANCH  56  57
ENDBRANCH  11  56
TORSDOF 16
ENDMDL
MODEL 8
REMARK VINA RESULT:      -6.2      1.894      8.363
REMARK  Name = 
REMARK  16 active torsions:
REMARK  status: ('A' for Active; 'I' for Inactive)
REMARK    1  A    between atoms: C_4  and  C_7
REMARK    2  A    between atoms: C_7  and  C_9
REMARK    3  A    between atoms: C_10  and  O_54
REMARK    4  A    between atoms: C_11  and  C_46
REMARK    5  A    between atoms: C_12  and  O_37
REMARK    6  A    between atoms: C_16  and  C_29
REMARK    7  A    between atoms: C_17  and  O_20
REMARK    8  A    between atoms: O_20  and  C_21
REMARK    9  A    between atoms: C_21  and  C_23
REMARK   10  A    between atoms: C_31  and  O_36
REMARK   11  A    between atoms: C_32  and  O_35
REMARK   12  A    between atoms: O_37  and  C_38
REMARK   13  A    between atoms: C_38  and  C_40
REMARK   14  A    between atoms: C_46  and  C_48
REMARK   15  A    between atoms: O_54  and  C_55
REMARK   16  A    between atoms: C_55  and  C_57
REMARK                            x       y       z     vdW  Elec       q    Type
REMARK                         _______ _______ _______ _____ _____    ______ ____
ROOT
ATOM      1  C   UNL     1       7.178  -2.448  26.105  0.00  0.00    +0.108 A 
ATOM      2  C   UNL     1       6.845  -1.067  26.071  0.00  0.00    +0.157 A 
ATOM      3  O   UNL     1       7.718  -0.133  25.533  0.00  0.00    -0.450 OA
ATOM      4  C   UNL     1       7.380   1.223  25.524  0.00  0.00    +0.182 A 
ATOM      5  C   UNL     1       6.176   1.710  25.877  0.00  0.00    +0.222 A 
ATOM      6  C   UNL     1       5.156   0.688  26.182  0.00  0.00    +0.239 A 
ATOM      7  O   UNL     1       3.968   0.911  25.985  0.00  0.00    -0.283 OA
ATOM      8  C   UNL     1       5.633  -0.646  26.608  0.00  0.00    +0.112 A 
ATOM      9  C   UNL     1       4.870  -1.514  27.417  0.00  0.00    +0.161 A 
ATOM     10  C   UNL     1       5.254  -2.860  27.619  0.00  0.00    +0.108 A 
ATOM     11  C   UNL     1       6.356  -3.347  26.873  0.00  0.00    +0.161 A 
ENDROOT
BRANCH   4  12
ATOM     12  C   UNL     1       8.410   2.105  24.946  0.00  0.00    +0.025 A 
ATOM     13  C   UNL     1       9.547   1.551  24.330  0.00  0.00    +0.015 A 
ATOM     14  C   UNL     1      10.509   2.373  23.735  0.00  0.00    +0.050 A 
ATOM     15  C   UNL     1      10.319   3.746  23.735  0.00  0.00    +0.158 A 
ATOM     16  C   UNL     1       9.186   4.306  24.319  0.00  0.00    +0.159 A 
ATOM     17  C   UNL     1       8.235   3.497  24.935  0.00  0.00    +0.060 A 
BRANCH  16  18
ATOM     18  O   UNL     1       9.040   5.664  24.242  0.00  0.00    -0.503 OA
ATOM     19  H   UNL     1       9.116   6.023  25.143  0.00  0.00    +0.292 HD
ENDBRANCH  16  18
BRANCH  15  20
ATOM     20  O   UNL     1      11.249   4.548  23.138  0.00  0.00    -0.503 OA
ATOM     21  H   UNL     1      11.452   5.230  23.810  0.00  0.00    +0.292 HD
ENDBRANCH  15  20
ENDBRANCH   4  12
BRANCH  10  22
ATOM     22  C   UNL     1       4.442  -3.703  28.563  0.00  0.00    +0.200 C 
ATOM     23  O   UNL     1       4.747  -3.704  29.755  0.00  0.00    -0.286 OA
BRANCH  22  24
ATOM     24  C   UNL     1       3.287  -4.570  28.148  0.00  0.00    +0.023 A 
ATOM     25  C   UNL     1       2.476  -4.302  27.040  0.00  0.00    +0.012 A 
ATOM     26  C   UNL     1       1.402  -5.151  26.728  0.00  0.00    +0.001 A 
ATOM     27  C   UNL     1       1.141  -6.276  27.503  0.00  0.00    +0.000 A 
ATOM     28  C   UNL     1       1.945  -6.564  28.602  0.00  0.00    +0.001 A 
ATOM     29  C   UNL     1       3.013  -5.717  28.918  0.00  0.00    +0.012 A 
ENDBRANCH  22  24
ENDBRANCH  10  22
BRANCH   1  30
ATOM     30  C   UNL     1       8.401  -2.944  25.378  0.00  0.00    +0.200 C 
ATOM     31  O   UNL     1       9.133  -3.758  25.938  0.00  0.00    -0.286 OA
BRANCH  30  35
ATOM     32  C   UNL     1       9.625  -1.183  21.636  0.00  0.00    +0.000 A 
ATOM     33  C   UNL     1      10.568  -1.517  22.608  0.00  0.00    +0.001 A 
ATOM     34  C   UNL     1      10.163  -2.145  23.793  0.00  0.00    +0.012 A 
ATOM     35  C   UNL     1       8.809  -2.432  24.022  0.00  0.00    +0.023 A 
ATOM     36  C   UNL     1       7.885  -2.179  22.999  0.00  0.00    +0.012 A 
ATOM     37  C   UNL     1       8.289  -1.536  21.821  0.00  0.00    +0.001 A 
ENDBRANCH  30  35
ENDBRANCH   1  30
BRANCH   5  38
ATOM     38  O   UNL     1       5.728   3.040  25.692  0.00  0.00    -0.415 OA
BRANCH  38  39
ATOM     39  C   UNL     1       5.480   3.805  26.797  0.00  0.00    +0.345 C 
ATOM     40  O   UNL     1       6.216   3.952  27.762  0.00  0.00    -0.245 OA
BRANCH  39  41
ATOM     41  C   UNL     1       4.140   4.471  26.682  0.00  0.00    +0.059 A 
ATOM     42  C   UNL     1       3.829   5.646  27.383  0.00  0.00    +0.015 A 
ATOM     43  C   UNL     1       2.585   6.266  27.218  0.00  0.00    +0.001 A 
ATOM     44  C   UNL     1       1.639   5.721  26.352  0.00  0.00    +0.000 A 
ATOM     45  C   UNL     1       1.931   4.552  25.650  0.00  0.00    +0.001 A 
ATOM     46  C   UNL     1       3.176   3.930  25.816  0.00  0.00    +0.015 A 
ENDBRANCH  39  41
ENDBRANCH  38  39
ENDBRANCH   5  38
BRANCH   9  47
ATOM     47  O   UNL     1       3.648  -1.070  27.971  0.00  0.00    -0.421 OA
BRANCH  47  48
ATOM     48  C   UNL     1       3.684  -0.303  29.125  0.00  0.00    +0.344 C 
ATOM     49  O   UNL     1       4.467  -0.453  30.052  0.00  0.00    -0.245 OA
BRANCH  48  50
ATOM     50  C   UNL     1       2.758   0.854  28.961  0.00  0.00    +0.059 A 
ATOM     51  C   UNL     1       3.055   2.120  29.487  0.00  0.00    +0.015 A 
ATOM     52  C   UNL     1       2.107   3.143  29.427  0.00  0.00    +0.001 A 
ATOM     53  C   UNL     1       0.863   2.911  28.843  0.00  0.00    +0.000 A 
ATOM     54  C   UNL     1       0.563   1.656  28.313  0.00  0.00    +0.001 A 
ATOM     55  C   UNL     1       1.506   0.628  28.371  0.00  0.00    +0.015 A 
ENDBRANCH  48  50
ENDBRANCH  47  48
ENDBRANCH   9  47
BRANCH  11  56
ATOM     56  O   UNL     1       6.710  -4.734  26.963  0.00  0.00    -0.421 OA
BRANCH  56  57
ATOM     57  C   UNL     1       5.998  -5.718  26.256  0.00  0.00    +0.344 C 
ATOM     58  O   UNL     1       5.595  -6.767  26.735  0.00  0.00    -0.245 OA
BRANCH  57  59
ATOM     59  C   UNL     1       5.940  -5.397  24.781  0.00  0.00    +0.059 A 
ATOM     60  C   UNL     1       6.982  -5.739  23.918  0.00  0.00    +0.015 A 
ATOM     61  C   UNL     1       6.863  -5.545  22.534  0.00  0.00    +0.001 A 
ATOM     62  C   UNL     1       5.693  -4.998  22.004  0.00  0.00    +0.000 A 
ATOM     63  C   UNL     1       4.649  -4.639  22.856  0.00  0.00    +0.001 A 
ATOM     64  C   UNL     1       4.774  -4.833  24.240  0.00  0.00    +0.015 A 
ENDBRANCH  57  59
ENDBRANCH  56  57
ENDBRANCH  11  56
TORSDOF 16
ENDMDL
MODEL 9
REMARK VINA RESULT:      -6.1      2.195      6.553
REMARK  Name = 
REMARK  16 active torsions:
REMARK  status: ('A' for Active; 'I' for Inactive)
REMARK    1  A    between atoms: C_4  and  C_7
REMARK    2  A    between atoms: C_7  and  C_9
REMARK    3  A    between atoms: C_10  and  O_54
REMARK    4  A    between atoms: C_11  and  C_46
REMARK    5  A    between atoms: C_12  and  O_37
REMARK    6  A    between atoms: C_16  and  C_29
REMARK    7  A    between atoms: C_17  and  O_20
REMARK    8  A    between atoms: O_20  and  C_21
REMARK    9  A    between atoms: C_21  and  C_23
REMARK   10  A    between atoms: C_31  and  O_36
REMARK   11  A    between atoms: C_32  and  O_35
REMARK   12  A    between atoms: O_37  and  C_38
REMARK   13  A    between atoms: C_38  and  C_40
REMARK   14  A    between atoms: C_46  and  C_48
REMARK   15  A    between atoms: O_54  and  C_55
REMARK   16  A    between atoms: C_55  and  C_57
REMARK                            x       y       z     vdW  Elec       q    Type
REMARK                         _______ _______ _______ _____ _____    ______ ____
ROOT
ATOM      1  C   UNL     1       4.925   1.242  25.591  0.00  0.00    +0.108 A 
ATOM      2  C   UNL     1       5.486   0.002  25.183  0.00  0.00    +0.157 A 
ATOM      3  O   UNL     1       5.423  -1.116  26.000  0.00  0.00    -0.450 OA
ATOM      4  C   UNL     1       5.995  -2.323  25.589  0.00  0.00    +0.182 A 
ATOM      5  C   UNL     1       6.500  -2.546  24.361  0.00  0.00    +0.222 A 
ATOM      6  C   UNL     1       6.310  -1.443  23.399  0.00  0.00    +0.239 A 
ATOM      7  O   UNL     1       6.205  -1.668  22.200  0.00  0.00    -0.283 OA
ATOM      8  C   UNL     1       6.127  -0.082  23.951  0.00  0.00    +0.112 A 
ATOM      9  C   UNL     1       6.464   1.089  23.240  0.00  0.00    +0.161 A 
ATOM     10  C   UNL     1       6.071   2.367  23.699  0.00  0.00    +0.108 A 
ATOM     11  C   UNL     1       5.210   2.425  24.823  0.00  0.00    +0.161 A 
ENDROOT
BRANCH   4  12
ATOM     12  C   UNL     1       5.878  -3.419  26.567  0.00  0.00    +0.025 A 
ATOM     13  C   UNL     1       4.655  -3.653  27.219  0.00  0.00    +0.015 A 
ATOM     14  C   UNL     1       4.514  -4.720  28.114  0.00  0.00    +0.050 A 
ATOM     15  C   UNL     1       5.591  -5.565  28.332  0.00  0.00    +0.158 A 
ATOM     16  C   UNL     1       6.800  -5.360  27.674  0.00  0.00    +0.159 A 
ATOM     17  C   UNL     1       6.956  -4.287  26.800  0.00  0.00    +0.060 A 
BRANCH  16  18
ATOM     18  O   UNL     1       7.805  -6.259  27.902  0.00  0.00    -0.503 OA
ATOM     19  H   UNL     1       8.640  -5.762  27.966  0.00  0.00    +0.292 HD
ENDBRANCH  16  18
BRANCH  15  20
ATOM     20  O   UNL     1       5.449  -6.617  29.192  0.00  0.00    -0.503 OA
ATOM     21  H   UNL     1       4.550  -6.960  29.013  0.00  0.00    +0.292 HD
ENDBRANCH  15  20
ENDBRANCH   4  12
BRANCH  10  22
ATOM     22  C   UNL     1       6.540   3.577  22.937  0.00  0.00    +0.200 C 
ATOM     23  O   UNL     1       6.009   3.828  21.855  0.00  0.00    -0.286 OA
BRANCH  22  24
ATOM     24  C   UNL     1       7.633   4.500  23.397  0.00  0.00    +0.023 A 
ATOM     25  C   UNL     1       7.868   5.761  22.839  0.00  0.00    +0.012 A 
ATOM     26  C   UNL     1       8.923   6.558  23.313  0.00  0.00    +0.001 A 
ATOM     27  C   UNL     1       9.736   6.113  24.352  0.00  0.00    +0.000 A 
ATOM     28  C   UNL     1       9.507   4.866  24.926  0.00  0.00    +0.001 A 
ATOM     29  C   UNL     1       8.459   4.068  24.452  0.00  0.00    +0.012 A 
ENDBRANCH  22  24
ENDBRANCH  10  22
BRANCH   1  30
ATOM     30  C   UNL     1       4.080   1.311  26.837  0.00  0.00    +0.200 C 
ATOM     31  O   UNL     1       2.937   0.861  26.803  0.00  0.00    -0.286 OA
BRANCH  30  35
ATOM     32  C   UNL     1       5.269   3.486  30.367  0.00  0.00    +0.000 A 
ATOM     33  C   UNL     1       3.959   3.035  30.217  0.00  0.00    +0.001 A 
ATOM     34  C   UNL     1       3.601   2.277  29.094  0.00  0.00    +0.012 A 
ATOM     35  C   UNL     1       4.549   1.974  28.105  0.00  0.00    +0.023 A 
ATOM     36  C   UNL     1       5.883   2.351  28.314  0.00  0.00    +0.012 A 
ATOM     37  C   UNL     1       6.235   3.124  29.430  0.00  0.00    +0.001 A 
ENDBRANCH  30  35
ENDBRANCH   1  30
BRANCH   5  38
ATOM     38  O   UNL     1       6.899  -3.800  23.840  0.00  0.00    -0.415 OA
BRANCH  38  39
ATOM     39  C   UNL     1       6.069  -4.435  22.958  0.00  0.00    +0.345 C 
ATOM     40  O   UNL     1       6.179  -4.457  21.740  0.00  0.00    -0.245 OA
BRANCH  39  41
ATOM     41  C   UNL     1       4.959  -5.129  23.691  0.00  0.00    +0.059 A 
ATOM     42  C   UNL     1       5.167  -6.320  24.405  0.00  0.00    +0.015 A 
ATOM     43  C   UNL     1       4.120  -6.917  25.116  0.00  0.00    +0.001 A 
ATOM     44  C   UNL     1       2.854  -6.333  25.123  0.00  0.00    +0.000 A 
ATOM     45  C   UNL     1       2.629  -5.152  24.416  0.00  0.00    +0.001 A 
ATOM     46  C   UNL     1       3.678  -4.554  23.704  0.00  0.00    +0.015 A 
ENDBRANCH  39  41
ENDBRANCH  38  39
ENDBRANCH   5  38
BRANCH   9  47
ATOM     47  O   UNL     1       7.130   0.992  21.997  0.00  0.00    -0.421 OA
BRANCH  47  48
ATOM     48  C   UNL     1       8.498   1.215  21.960  0.00  0.00    +0.344 C 
ATOM     49  O   UNL     1       9.043   2.206  21.494  0.00  0.00    -0.245 OA
BRANCH  48  50
ATOM     50  C   UNL     1       9.178   0.157  22.760  0.00  0.00    +0.059 A 
ATOM     51  C   UNL     1       9.499  -1.094  22.212  0.00  0.00    +0.015 A 
ATOM     52  C   UNL     1      10.015  -2.103  23.025  0.00  0.00    +0.001 A 
ATOM     53  C   UNL     1      10.218  -1.872  24.385  0.00  0.00    +0.000 A 
ATOM     54  C   UNL     1       9.906  -0.629  24.936  0.00  0.00    +0.001 A 
ATOM     55  C   UNL     1       9.387   0.385  24.128  0.00  0.00    +0.015 A 
ENDBRANCH  48  50
ENDBRANCH  47  48
ENDBRANCH   9  47
BRANCH  11  56
ATOM     56  O   UNL     1       4.698   3.694  25.253  0.00  0.00    -0.421 OA
BRANCH  56  57
ATOM     57  C   UNL     1       3.364   4.063  25.014  0.00  0.00    +0.344 C 
ATOM     58  O   UNL     1       2.850   4.147  23.909  0.00  0.00    -0.245 OA
BRANCH  57  59
ATOM     59  C   UNL     1       2.685   4.514  26.287  0.00  0.00    +0.059 A 
ATOM     60  C   UNL     1       3.287   5.430  27.151  0.00  0.00    +0.015 A 
ATOM     61  C   UNL     1       2.595   5.930  28.263  0.00  0.00    +0.001 A 
ATOM     62  C   UNL     1       1.289   5.509  28.521  0.00  0.00    +0.000 A 
ATOM     63  C   UNL     1       0.680   4.584  27.674  0.00  0.00    +0.001 A 
ATOM     64  C   UNL     1       1.377   4.084  26.563  0.00  0.00    +0.015 A 
ENDBRANCH  57  59
ENDBRANCH  56  57
ENDBRANCH  11  56
TORSDOF 16
ENDMDL
