MODEL 1
REMARK VINA RESULT:      -7.3      0.000      0.000
REMARK  Name = 
REMARK  9 active torsions:
REMARK  status: ('A' for Active; 'I' for Inactive)
REMARK    1  A    between atoms: C_3  and  O_34
REMARK    2  A    between atoms: C_4  and  O_29
REMARK    3  A    between atoms: C_6  and  C_7
REMARK    4  A    between atoms: C_8  and  O_24
REMARK    5  A    between atoms: C_12  and  O_23
REMARK    6  A    between atoms: C_14  and  O_18
REMARK    7  A    between atoms: O_18  and  S_19
REMARK    8  A    between atoms: O_24  and  S_25
REMARK    9  A    between atoms: O_29  and  S_30
REMARK                            x       y       z     vdW  Elec       q    Type
REMARK                         _______ _______ _______ _____ _____    ______ ____
ROOT
ATOM      1  C   UNL     1       6.785  -2.601  24.789  0.00  0.00    +0.184 A 
ATOM      2  O   UNL     1       7.217  -1.311  25.131  0.00  0.00    -0.451 OA
ATOM      3  C   UNL     1       8.073  -0.634  24.304  0.00  0.00    +0.147 A 
ATOM      4  C   UNL     1       8.431  -1.120  23.060  0.00  0.00    +0.109 A 
ATOM      5  C   UNL     1       9.294  -0.375  22.241  0.00  0.00    +0.135 A 
ATOM      6  C   UNL     1       9.794   0.856  22.666  0.00  0.00    +0.095 A 
ATOM      7  C   UNL     1       9.419   1.360  23.911  0.00  0.00    +0.162 A 
ATOM      8  C   UNL     1       7.897  -2.420  22.642  0.00  0.00    +0.241 A 
ATOM      9  O   UNL     1       8.160  -2.820  21.509  0.00  0.00    -0.283 OA
ATOM     10  C   UNL     1       8.575   0.599  24.738  0.00  0.00    +0.095 A 
ATOM     11  C   UNL     1       7.077  -3.204  23.611  0.00  0.00    +0.244 A 
ENDROOT
BRANCH   1  13
ATOM     12  C   UNL     1       4.725  -2.544  26.147  0.00  0.00    +0.015 A 
ATOM     13  C   UNL     1       5.976  -3.137  25.907  0.00  0.00    +0.025 A 
ATOM     14  C   UNL     1       6.489  -4.058  26.840  0.00  0.00    +0.064 A 
ATOM     15  C   UNL     1       5.783  -4.339  28.020  0.00  0.00    +0.196 A 
ATOM     16  C   UNL     1       4.578  -3.667  28.265  0.00  0.00    +0.161 A 
ATOM     17  C   UNL     1       4.030  -2.796  27.327  0.00  0.00    +0.050 A 
BRANCH  16  18
ATOM     18  O   UNL     1       3.926  -3.830  29.463  0.00  0.00    -0.503 OA
ATOM     19  H   UNL     1       3.417  -3.019  29.613  0.00  0.00    +0.292 HD
ENDBRANCH  16  18
BRANCH  15  20
ATOM     20  O   UNL     1       6.147  -5.274  28.958  0.00  0.00    -0.357 OA
BRANCH  20  21
ATOM     21  S   UNL     1       5.690  -6.839  28.935  0.00  0.00    +0.043 S 
ATOM     22  O   UNL     1       4.578  -6.889  29.887  0.00  0.00    -0.259 OA
ATOM     23  O   UNL     1       6.866  -7.586  29.387  0.00  0.00    -0.336 OA
ATOM     24  O   UNL     1       5.290  -7.128  27.562  0.00  0.00    -0.336 OA
ENDBRANCH  20  21
ENDBRANCH  15  20
ENDBRANCH   1  13
BRANCH   5  25
ATOM     25  O   UNL     1       9.683  -0.806  20.997  0.00  0.00    -0.506 OA
ATOM     26  H   UNL     1       8.943  -1.350  20.640  0.00  0.00    +0.292 HD
ENDBRANCH   5  25
BRANCH   7  27
ATOM     27  O   UNL     1       9.832   2.567  24.425  0.00  0.00    -0.360 OA
BRANCH  27  28
ATOM     28  S   UNL     1       9.052   3.985  24.151  0.00  0.00    +0.042 S 
ATOM     29  O   UNL     1       8.410   4.275  25.434  0.00  0.00    -0.259 OA
ATOM     30  O   UNL     1       8.098   3.716  23.076  0.00  0.00    -0.336 OA
ATOM     31  O   UNL     1      10.110   4.932  23.797  0.00  0.00    -0.336 OA
ENDBRANCH  27  28
ENDBRANCH   7  27
BRANCH  11  32
ATOM     32  O   UNL     1       6.842  -4.492  23.190  0.00  0.00    -0.353 OA
BRANCH  32  33
ATOM     33  S   UNL     1       5.482  -5.124  22.568  0.00  0.00    +0.043 S 
ATOM     34  O   UNL     1       5.841  -5.413  21.176  0.00  0.00    -0.259 OA
ATOM     35  O   UNL     1       4.463  -4.086  22.685  0.00  0.00    -0.336 OA
ATOM     36  O   UNL     1       5.252  -6.322  23.368  0.00  0.00    -0.336 OA
ENDBRANCH  32  33
ENDBRANCH  11  32
TORSDOF 9
ENDMDL
MODEL 2
REMARK VINA RESULT:      -7.1      3.403      8.559
REMARK  Name = 
REMARK  9 active torsions:
REMARK  status: ('A' for Active; 'I' for Inactive)
REMARK    1  A    between atoms: C_3  and  O_34
REMARK    2  A    between atoms: C_4  and  O_29
REMARK    3  A    between atoms: C_6  and  C_7
REMARK    4  A    between atoms: C_8  and  O_24
REMARK    5  A    between atoms: C_12  and  O_23
REMARK    6  A    between atoms: C_14  and  O_18
REMARK    7  A    between atoms: O_18  and  S_19
REMARK    8  A    between atoms: O_24  and  S_25
REMARK    9  A    between atoms: O_29  and  S_30
REMARK                            x       y       z     vdW  Elec       q    Type
REMARK                         _______ _______ _______ _____ _____    ______ ____
ROOT
ATOM      1  C   UNL     1       7.435  -0.593  22.993  0.00  0.00    +0.184 A 
ATOM      2  O   UNL     1       6.333  -1.437  22.793  0.00  0.00    -0.451 OA
ATOM      3  C   UNL     1       6.475  -2.792  22.935  0.00  0.00    +0.147 A 
ATOM      4  C   UNL     1       7.642  -3.364  23.404  0.00  0.00    +0.109 A 
ATOM      5  C   UNL     1       7.727  -4.757  23.553  0.00  0.00    +0.135 A 
ATOM      6  C   UNL     1       6.643  -5.575  23.235  0.00  0.00    +0.095 A 
ATOM      7  C   UNL     1       5.456  -5.001  22.780  0.00  0.00    +0.162 A 
ATOM      8  C   UNL     1       8.768  -2.481  23.724  0.00  0.00    +0.241 A 
ATOM      9  O   UNL     1       9.783  -2.983  24.207  0.00  0.00    -0.283 OA
ATOM     10  C   UNL     1       5.384  -3.608  22.610  0.00  0.00    +0.095 A 
ATOM     11  C   UNL     1       8.642  -1.023  23.434  0.00  0.00    +0.244 A 
ENDROOT
BRANCH   1  13
ATOM     12  C   UNL     1       7.762   1.459  21.661  0.00  0.00    +0.015 A 
ATOM     13  C   UNL     1       7.032   0.792  22.658  0.00  0.00    +0.025 A 
ATOM     14  C   UNL     1       6.099   1.515  23.426  0.00  0.00    +0.064 A 
ATOM     15  C   UNL     1       5.940   2.896  23.232  0.00  0.00    +0.196 A 
ATOM     16  C   UNL     1       6.745   3.545  22.285  0.00  0.00    +0.161 A 
ATOM     17  C   UNL     1       7.631   2.834  21.479  0.00  0.00    +0.050 A 
BRANCH  16  18
ATOM     18  O   UNL     1       6.698   4.911  22.156  0.00  0.00    -0.503 OA
ATOM     19  H   UNL     1       7.614   5.209  22.045  0.00  0.00    +0.292 HD
ENDBRANCH  16  18
BRANCH  15  20
ATOM     20  O   UNL     1       5.010   3.684  23.864  0.00  0.00    -0.357 OA
BRANCH  20  21
ATOM     21  S   UNL     1       3.406   3.640  23.576  0.00  0.00    +0.043 S 
ATOM     22  O   UNL     1       3.319   3.292  22.156  0.00  0.00    -0.259 OA
ATOM     23  O   UNL     1       2.929   4.993  23.865  0.00  0.00    -0.336 OA
ATOM     24  O   UNL     1       2.860   2.613  24.456  0.00  0.00    -0.336 OA
ENDBRANCH  20  21
ENDBRANCH  15  20
ENDBRANCH   1  13
BRANCH   5  25
ATOM     25  O   UNL     1       8.859  -5.380  24.016  0.00  0.00    -0.506 OA
ATOM     26  H   UNL     1       9.199  -5.937  23.278  0.00  0.00    +0.292 HD
ENDBRANCH   5  25
BRANCH   7  27
ATOM     27  O   UNL     1       4.319  -5.704  22.456  0.00  0.00    -0.360 OA
BRANCH  27  28
ATOM     28  S   UNL     1       3.266  -6.293  23.571  0.00  0.00    +0.042 S 
ATOM     29  O   UNL     1       3.110  -5.183  24.512  0.00  0.00    -0.259 OA
ATOM     30  O   UNL     1       3.920  -7.461  24.160  0.00  0.00    -0.336 OA
ATOM     31  O   UNL     1       2.052  -6.597  22.813  0.00  0.00    -0.336 OA
ENDBRANCH  27  28
ENDBRANCH   7  27
BRANCH  11  32
ATOM     32  O   UNL     1       9.836  -0.351  23.552  0.00  0.00    -0.353 OA
BRANCH  32  33
ATOM     33  S   UNL     1      10.349   0.601  24.763  0.00  0.00    +0.043 S 
ATOM     34  O   UNL     1       9.755   1.905  24.453  0.00  0.00    -0.259 OA
ATOM     35  O   UNL     1      11.806   0.610  24.680  0.00  0.00    -0.336 OA
ATOM     36  O   UNL     1       9.792  -0.019  25.960  0.00  0.00    -0.336 OA
ENDBRANCH  32  33
ENDBRANCH  11  32
TORSDOF 9
ENDMDL
MODEL 3
REMARK VINA RESULT:      -7.0      2.335      3.323
REMARK  Name = 
REMARK  9 active torsions:
REMARK  status: ('A' for Active; 'I' for Inactive)
REMARK    1  A    between atoms: C_3  and  O_34
REMARK    2  A    between atoms: C_4  and  O_29
REMARK    3  A    between atoms: C_6  and  C_7
REMARK    4  A    between atoms: C_8  and  O_24
REMARK    5  A    between atoms: C_12  and  O_23
REMARK    6  A    between atoms: C_14  and  O_18
REMARK    7  A    between atoms: O_18  and  S_19
REMARK    8  A    between atoms: O_24  and  S_25
REMARK    9  A    between atoms: O_29  and  S_30
REMARK                            x       y       z     vdW  Elec       q    Type
REMARK                         _______ _______ _______ _____ _____    ______ ____
ROOT
ATOM      1  C   UNL     1       6.474  -2.568  24.112  0.00  0.00    +0.184 A 
ATOM      2  O   UNL     1       6.105  -1.276  23.709  0.00  0.00    -0.451 OA
ATOM      3  C   UNL     1       7.005  -0.482  23.051  0.00  0.00    +0.147 A 
ATOM      4  C   UNL     1       8.239  -0.953  22.640  0.00  0.00    +0.109 A 
ATOM      5  C   UNL     1       9.115  -0.103  21.948  0.00  0.00    +0.135 A 
ATOM      6  C   UNL     1       8.755   1.215  21.664  0.00  0.00    +0.095 A 
ATOM      7  C   UNL     1       7.504   1.688  22.059  0.00  0.00    +0.162 A 
ATOM      8  C   UNL     1       8.593  -2.339  22.957  0.00  0.00    +0.241 A 
ATOM      9  O   UNL     1       9.661  -2.779  22.532  0.00  0.00    -0.283 OA
ATOM     10  C   UNL     1       6.640   0.841  22.773  0.00  0.00    +0.095 A 
ATOM     11  C   UNL     1       7.657  -3.146  23.793  0.00  0.00    +0.244 A 
ENDROOT
BRANCH   1  13
ATOM     12  C   UNL     1       5.345  -2.899  26.281  0.00  0.00    +0.015 A 
ATOM     13  C   UNL     1       5.363  -3.150  24.899  0.00  0.00    +0.025 A 
ATOM     14  C   UNL     1       4.462  -4.087  24.360  0.00  0.00    +0.064 A 
ATOM     15  C   UNL     1       3.595  -4.801  25.200  0.00  0.00    +0.196 A 
ATOM     16  C   UNL     1       3.661  -4.586  26.584  0.00  0.00    +0.161 A 
ATOM     17  C   UNL     1       4.506  -3.621  27.127  0.00  0.00    +0.050 A 
BRANCH  16  18
ATOM     18  O   UNL     1       2.911  -5.353  27.441  0.00  0.00    -0.503 OA
ATOM     19  H   UNL     1       3.308  -6.237  27.439  0.00  0.00    +0.292 HD
ENDBRANCH  16  18
BRANCH  15  20
ATOM     20  O   UNL     1       2.625  -5.678  24.779  0.00  0.00    -0.357 OA
BRANCH  20  21
ATOM     21  S   UNL     1       2.833  -7.288  24.621  0.00  0.00    +0.043 S 
ATOM     22  O   UNL     1       2.070  -7.619  23.416  0.00  0.00    -0.259 OA
ATOM     23  O   UNL     1       2.262  -7.867  25.838  0.00  0.00    -0.336 OA
ATOM     24  O   UNL     1       4.268  -7.502  24.474  0.00  0.00    -0.336 OA
ENDBRANCH  20  21
ENDBRANCH  15  20
ENDBRANCH   1  13
BRANCH   5  25
ATOM     25  O   UNL     1      10.350  -0.515  21.513  0.00  0.00    -0.506 OA
ATOM     26  H   UNL     1      10.896   0.297  21.396  0.00  0.00    +0.292 HD
ENDBRANCH   5  25
BRANCH   7  27
ATOM     27  O   UNL     1       7.035   2.958  21.818  0.00  0.00    -0.360 OA
BRANCH  27  28
ATOM     28  S   UNL     1       7.240   4.215  22.856  0.00  0.00    +0.042 S 
ATOM     29  O   UNL     1       8.475   3.874  23.563  0.00  0.00    -0.259 OA
ATOM     30  O   UNL     1       6.061   4.215  23.720  0.00  0.00    -0.336 OA
ATOM     31  O   UNL     1       7.361   5.393  21.996  0.00  0.00    -0.336 OA
ENDBRANCH  27  28
ENDBRANCH   7  27
BRANCH  11  32
ATOM     32  O   UNL     1       8.209  -4.333  24.215  0.00  0.00    -0.353 OA
BRANCH  32  33
ATOM     33  S   UNL     1       8.854  -4.695  25.660  0.00  0.00    +0.043 S 
ATOM     34  O   UNL     1      10.199  -5.174  25.328  0.00  0.00    -0.259 OA
ATOM     35  O   UNL     1       8.008  -5.738  26.231  0.00  0.00    -0.336 OA
ATOM     36  O   UNL     1       8.852  -3.423  26.376  0.00  0.00    -0.336 OA
ENDBRANCH  32  33
ENDBRANCH  11  32
TORSDOF 9
ENDMDL
MODEL 4
REMARK VINA RESULT:      -6.8      3.320      8.539
REMARK  Name = 
REMARK  9 active torsions:
REMARK  status: ('A' for Active; 'I' for Inactive)
REMARK    1  A    between atoms: C_3  and  O_34
REMARK    2  A    between atoms: C_4  and  O_29
REMARK    3  A    between atoms: C_6  and  C_7
REMARK    4  A    between atoms: C_8  and  O_24
REMARK    5  A    between atoms: C_12  and  O_23
REMARK    6  A    between atoms: C_14  and  O_18
REMARK    7  A    between atoms: O_18  and  S_19
REMARK    8  A    between atoms: O_24  and  S_25
REMARK    9  A    between atoms: O_29  and  S_30
REMARK                            x       y       z     vdW  Elec       q    Type
REMARK                         _______ _______ _______ _____ _____    ______ ____
ROOT
ATOM      1  C   UNL     1       7.540  -0.604  23.106  0.00  0.00    +0.184 A 
ATOM      2  O   UNL     1       6.400  -1.404  22.939  0.00  0.00    -0.451 OA
ATOM      3  C   UNL     1       6.507  -2.768  22.999  0.00  0.00    +0.147 A 
ATOM      4  C   UNL     1       7.684  -3.398  23.358  0.00  0.00    +0.109 A 
ATOM      5  C   UNL     1       7.733  -4.799  23.427  0.00  0.00    +0.135 A 
ATOM      6  C   UNL     1       6.604  -5.567  23.142  0.00  0.00    +0.095 A 
ATOM      7  C   UNL     1       5.409  -4.935  22.801  0.00  0.00    +0.162 A 
ATOM      8  C   UNL     1       8.857  -2.567  23.645  0.00  0.00    +0.241 A 
ATOM      9  O   UNL     1       9.885  -3.123  24.030  0.00  0.00    -0.283 OA
ATOM     10  C   UNL     1       5.371  -3.534  22.708  0.00  0.00    +0.095 A 
ATOM     11  C   UNL     1       8.759  -1.092  23.441  0.00  0.00    +0.244 A 
ENDROOT
BRANCH   1  13
ATOM     12  C   UNL     1       7.600   1.411  21.682  0.00  0.00    +0.015 A 
ATOM     13  C   UNL     1       7.160   0.808  22.872  0.00  0.00    +0.025 A 
ATOM     14  C   UNL     1       6.563   1.606  23.866  0.00  0.00    +0.064 A 
ATOM     15  C   UNL     1       6.459   2.994  23.692  0.00  0.00    +0.196 A 
ATOM     16  C   UNL     1       6.983   3.573  22.528  0.00  0.00    +0.161 A 
ATOM     17  C   UNL     1       7.525   2.791  21.511  0.00  0.00    +0.050 A 
BRANCH  16  18
ATOM     18  O   UNL     1       7.004   4.939  22.383  0.00  0.00    -0.503 OA
ATOM     19  H   UNL     1       7.312   5.301  23.227  0.00  0.00    +0.292 HD
ENDBRANCH  16  18
BRANCH  15  20
ATOM     20  O   UNL     1       5.828   3.857  24.556  0.00  0.00    -0.357 OA
BRANCH  20  21
ATOM     21  S   UNL     1       6.572   4.696  25.739  0.00  0.00    +0.043 S 
ATOM     22  O   UNL     1       7.775   3.907  26.018  0.00  0.00    -0.259 OA
ATOM     23  O   UNL     1       5.623   4.707  26.854  0.00  0.00    -0.336 OA
ATOM     24  O   UNL     1       6.861   6.014  25.186  0.00  0.00    -0.336 OA
ENDBRANCH  20  21
ENDBRANCH  15  20
ENDBRANCH   1  13
BRANCH   5  25
ATOM     25  O   UNL     1       8.872  -5.479  23.779  0.00  0.00    -0.506 OA
ATOM     26  H   UNL     1       8.735  -6.419  23.518  0.00  0.00    +0.292 HD
ENDBRANCH   5  25
BRANCH   7  27
ATOM     27  O   UNL     1       4.231  -5.587  22.519  0.00  0.00    -0.360 OA
BRANCH  27  28
ATOM     28  S   UNL     1       3.248  -6.226  23.670  0.00  0.00    +0.042 S 
ATOM     29  O   UNL     1       2.017  -6.527  22.938  0.00  0.00    -0.259 OA
ATOM     30  O   UNL     1       3.080  -5.180  24.678  0.00  0.00    -0.336 OA
ATOM     31  O   UNL     1       3.955  -7.416  24.145  0.00  0.00    -0.336 OA
ENDBRANCH  27  28
ENDBRANCH   7  27
BRANCH  11  32
ATOM     32  O   UNL     1       9.979  -0.462  23.511  0.00  0.00    -0.353 OA
BRANCH  32  33
ATOM     33  S   UNL     1      10.444   0.743  24.494  0.00  0.00    +0.043 S 
ATOM     34  O   UNL     1       9.549   0.613  25.648  0.00  0.00    -0.259 OA
ATOM     35  O   UNL     1      10.228   1.979  23.749  0.00  0.00    -0.336 OA
ATOM     36  O   UNL     1      11.836   0.430  24.803  0.00  0.00    -0.336 OA
ENDBRANCH  32  33
ENDBRANCH  11  32
TORSDOF 9
ENDMDL
MODEL 5
REMARK VINA RESULT:      -6.8      2.416      8.334
REMARK  Name = 
REMARK  9 active torsions:
REMARK  status: ('A' for Active; 'I' for Inactive)
REMARK    1  A    between atoms: C_3  and  O_34
REMARK    2  A    between atoms: C_4  and  O_29
REMARK    3  A    between atoms: C_6  and  C_7
REMARK    4  A    between atoms: C_8  and  O_24
REMARK    5  A    between atoms: C_12  and  O_23
REMARK    6  A    between atoms: C_14  and  O_18
REMARK    7  A    between atoms: O_18  and  S_19
REMARK    8  A    between atoms: O_24  and  S_25
REMARK    9  A    between atoms: O_29  and  S_30
REMARK                            x       y       z     vdW  Elec       q    Type
REMARK                         _______ _______ _______ _____ _____    ______ ____
ROOT
ATOM      1  C   UNL     1       8.217  -0.556  25.343  0.00  0.00    +0.184 A 
ATOM      2  O   UNL     1       7.628  -1.427  26.271  0.00  0.00    -0.451 OA
ATOM      3  C   UNL     1       7.908  -2.767  26.225  0.00  0.00    +0.147 A 
ATOM      4  C   UNL     1       8.866  -3.289  25.375  0.00  0.00    +0.109 A 
ATOM      5  C   UNL     1       9.131  -4.667  25.384  0.00  0.00    +0.135 A 
ATOM      6  C   UNL     1       8.440  -5.520  26.246  0.00  0.00    +0.095 A 
ATOM      7  C   UNL     1       7.489  -4.995  27.120  0.00  0.00    +0.162 A 
ATOM      8  C   UNL     1       9.570  -2.371  24.475  0.00  0.00    +0.241 A 
ATOM      9  O   UNL     1      10.470  -2.824  23.768  0.00  0.00    -0.283 OA
ATOM     10  C   UNL     1       7.209  -3.619  27.090  0.00  0.00    +0.095 A 
ATOM     11  C   UNL     1       9.155  -0.938  24.443  0.00  0.00    +0.244 A 
ENDROOT
BRANCH   1  13
ATOM     12  C   UNL     1       6.254   0.907  25.657  0.00  0.00    +0.015 A 
ATOM     13  C   UNL     1       7.650   0.797  25.544  0.00  0.00    +0.025 A 
ATOM     14  C   UNL     1       8.423   1.967  25.424  0.00  0.00    +0.064 A 
ATOM     15  C   UNL     1       7.801   3.224  25.366  0.00  0.00    +0.196 A 
ATOM     16  C   UNL     1       6.401   3.291  25.399  0.00  0.00    +0.161 A 
ATOM     17  C   UNL     1       5.626   2.147  25.573  0.00  0.00    +0.050 A 
BRANCH  16  18
ATOM     18  O   UNL     1       5.761   4.493  25.223  0.00  0.00    -0.503 OA
ATOM     19  H   UNL     1       4.810   4.308  25.266  0.00  0.00    +0.292 HD
ENDBRANCH  16  18
BRANCH  15  20
ATOM     20  O   UNL     1       8.456   4.432  25.329  0.00  0.00    -0.357 OA
BRANCH  20  21
ATOM     21  S   UNL     1       9.102   5.097  23.989  0.00  0.00    +0.043 S 
ATOM     22  O   UNL     1       9.446   6.457  24.410  0.00  0.00    -0.259 OA
ATOM     23  O   UNL     1       8.032   5.060  22.990  0.00  0.00    -0.336 OA
ATOM     24  O   UNL     1      10.265   4.286  23.649  0.00  0.00    -0.336 OA
ENDBRANCH  20  21
ENDBRANCH  15  20
ENDBRANCH   1  13
BRANCH   5  25
ATOM     25  O   UNL     1      10.070  -5.242  24.565  0.00  0.00    -0.506 OA
ATOM     26  H   UNL     1      10.911  -5.276  25.077  0.00  0.00    +0.292 HD
ENDBRANCH   5  25
BRANCH   7  27
ATOM     27  O   UNL     1       6.764  -5.734  28.024  0.00  0.00    -0.360 OA
BRANCH  27  28
ATOM     28  S   UNL     1       5.304  -6.406  27.686  0.00  0.00    +0.042 S 
ATOM     29  O   UNL     1       5.235  -7.550  28.597  0.00  0.00    -0.259 OA
ATOM     30  O   UNL     1       5.359  -6.793  26.277  0.00  0.00    -0.336 OA
ATOM     31  O   UNL     1       4.331  -5.356  27.987  0.00  0.00    -0.336 OA
ENDBRANCH  27  28
ENDBRANCH   7  27
BRANCH  11  32
ATOM     32  O   UNL     1       9.721  -0.243  23.400  0.00  0.00    -0.353 OA
BRANCH  32  33
ATOM     33  S   UNL     1       9.079   0.116  21.953  0.00  0.00    +0.043 S 
ATOM     34  O   UNL     1       7.668   0.373  22.255  0.00  0.00    -0.259 OA
ATOM     35  O   UNL     1       9.272  -1.067  21.120  0.00  0.00    -0.336 OA
ATOM     36  O   UNL     1       9.807   1.307  21.529  0.00  0.00    -0.336 OA
ENDBRANCH  32  33
ENDBRANCH  11  32
TORSDOF 9
ENDMDL
MODEL 6
REMARK VINA RESULT:      -6.7      1.830      2.459
REMARK  Name = 
REMARK  9 active torsions:
REMARK  status: ('A' for Active; 'I' for Inactive)
REMARK    1  A    between atoms: C_3  and  O_34
REMARK    2  A    between atoms: C_4  and  O_29
REMARK    3  A    between atoms: C_6  and  C_7
REMARK    4  A    between atoms: C_8  and  O_24
REMARK    5  A    between atoms: C_12  and  O_23
REMARK    6  A    between atoms: C_14  and  O_18
REMARK    7  A    between atoms: O_18  and  S_19
REMARK    8  A    between atoms: O_24  and  S_25
REMARK    9  A    between atoms: O_29  and  S_30
REMARK                            x       y       z     vdW  Elec       q    Type
REMARK                         _______ _______ _______ _____ _____    ______ ____
ROOT
ATOM      1  C   UNL     1       6.376  -1.930  24.869  0.00  0.00    +0.184 A 
ATOM      2  O   UNL     1       6.161  -0.585  24.532  0.00  0.00    -0.451 OA
ATOM      3  C   UNL     1       6.944   0.015  23.583  0.00  0.00    +0.147 A 
ATOM      4  C   UNL     1       7.865  -0.693  22.833  0.00  0.00    +0.109 A 
ATOM      5  C   UNL     1       8.627  -0.033  21.856  0.00  0.00    +0.135 A 
ATOM      6  C   UNL     1       8.463   1.334  21.628  0.00  0.00    +0.095 A 
ATOM      7  C   UNL     1       7.521   2.048  22.367  0.00  0.00    +0.162 A 
ATOM      8  C   UNL     1       8.021  -2.126  23.099  0.00  0.00    +0.241 A 
ATOM      9  O   UNL     1       8.790  -2.770  22.385  0.00  0.00    -0.283 OA
ATOM     10  C   UNL     1       6.779   1.389  23.361  0.00  0.00    +0.095 A 
ATOM     11  C   UNL     1       7.258  -2.734  24.228  0.00  0.00    +0.244 A 
ENDROOT
BRANCH   1  13
ATOM     12  C   UNL     1       5.080  -1.244  26.854  0.00  0.00    +0.015 A 
ATOM     13  C   UNL     1       5.481  -2.280  25.995  0.00  0.00    +0.025 A 
ATOM     14  C   UNL     1       5.189  -3.612  26.344  0.00  0.00    +0.064 A 
ATOM     15  C   UNL     1       4.554  -3.903  27.561  0.00  0.00    +0.196 A 
ATOM     16  C   UNL     1       4.242  -2.850  28.432  0.00  0.00    +0.161 A 
ATOM     17  C   UNL     1       4.473  -1.523  28.076  0.00  0.00    +0.050 A 
BRANCH  16  18
ATOM     18  O   UNL     1       3.730  -3.111  29.679  0.00  0.00    -0.503 OA
ATOM     19  H   UNL     1       3.869  -2.310  30.207  0.00  0.00    +0.292 HD
ENDBRANCH  16  18
BRANCH  15  20
ATOM     20  O   UNL     1       4.152  -5.153  27.967  0.00  0.00    -0.357 OA
BRANCH  20  21
ATOM     21  S   UNL     1       5.159  -6.341  28.449  0.00  0.00    +0.043 S 
ATOM     22  O   UNL     1       6.326  -5.619  28.961  0.00  0.00    -0.259 OA
ATOM     23  O   UNL     1       5.448  -7.111  27.237  0.00  0.00    -0.336 OA
ATOM     24  O   UNL     1       4.446  -7.090  29.477  0.00  0.00    -0.336 OA
ENDBRANCH  20  21
ENDBRANCH  15  20
ENDBRANCH   1  13
BRANCH   5  25
ATOM     25  O   UNL     1       9.553  -0.684  21.081  0.00  0.00    -0.506 OA
ATOM     26  H   UNL     1       9.057  -1.330  20.527  0.00  0.00    +0.292 HD
ENDBRANCH   5  25
BRANCH   7  27
ATOM     27  O   UNL     1       7.260   3.390  22.216  0.00  0.00    -0.360 OA
BRANCH  27  28
ATOM     28  S   UNL     1       7.813   4.545  23.245  0.00  0.00    +0.042 S 
ATOM     29  O   UNL     1       9.140   4.056  23.624  0.00  0.00    -0.259 OA
ATOM     30  O   UNL     1       6.868   4.574  24.359  0.00  0.00    -0.336 OA
ATOM     31  O   UNL     1       7.846   5.771  22.447  0.00  0.00    -0.336 OA
ENDBRANCH  27  28
ENDBRANCH   7  27
BRANCH  11  32
ATOM     32  O   UNL     1       7.670  -4.013  24.521  0.00  0.00    -0.353 OA
BRANCH  32  33
ATOM     33  S   UNL     1       8.790  -4.499  25.591  0.00  0.00    +0.043 S 
ATOM     34  O   UNL     1       8.848  -3.396  26.554  0.00  0.00    -0.259 OA
ATOM     35  O   UNL     1      10.029  -4.657  24.836  0.00  0.00    -0.336 OA
ATOM     36  O   UNL     1       8.234  -5.727  26.150  0.00  0.00    -0.336 OA
ENDBRANCH  32  33
ENDBRANCH  11  32
TORSDOF 9
ENDMDL
MODEL 7
REMARK VINA RESULT:      -6.7      2.434      3.850
REMARK  Name = 
REMARK  9 active torsions:
REMARK  status: ('A' for Active; 'I' for Inactive)
REMARK    1  A    between atoms: C_3  and  O_34
REMARK    2  A    between atoms: C_4  and  O_29
REMARK    3  A    between atoms: C_6  and  C_7
REMARK    4  A    between atoms: C_8  and  O_24
REMARK    5  A    between atoms: C_12  and  O_23
REMARK    6  A    between atoms: C_14  and  O_18
REMARK    7  A    between atoms: O_18  and  S_19
REMARK    8  A    between atoms: O_24  and  S_25
REMARK    9  A    between atoms: O_29  and  S_30
REMARK                            x       y       z     vdW  Elec       q    Type
REMARK                         _______ _______ _______ _____ _____    ______ ____
ROOT
ATOM      1  C   UNL     1       7.019  -1.182  25.295  0.00  0.00    +0.184 A 
ATOM      2  O   UNL     1       6.602   0.142  25.092  0.00  0.00    -0.451 OA
ATOM      3  C   UNL     1       7.526   1.115  24.817  0.00  0.00    +0.147 A 
ATOM      4  C   UNL     1       8.859   0.823  24.595  0.00  0.00    +0.109 A 
ATOM      5  C   UNL     1       9.760   1.856  24.295  0.00  0.00    +0.135 A 
ATOM      6  C   UNL     1       9.326   3.179  24.213  0.00  0.00    +0.095 A 
ATOM      7  C   UNL     1       7.979   3.477  24.416  0.00  0.00    +0.162 A 
ATOM      8  C   UNL     1       9.288  -0.576  24.695  0.00  0.00    +0.241 A 
ATOM      9  O   UNL     1      10.460  -0.845  24.429  0.00  0.00    -0.283 OA
ATOM     10  C   UNL     1       7.085   2.443  24.741  0.00  0.00    +0.095 A 
ATOM     11  C   UNL     1       8.296  -1.602  25.128  0.00  0.00    +0.244 A 
ENDROOT
BRANCH   1  13
ATOM     12  C   UNL     1       5.714  -2.330  27.046  0.00  0.00    +0.015 A 
ATOM     13  C   UNL     1       5.842  -1.989  25.690  0.00  0.00    +0.025 A 
ATOM     14  C   UNL     1       4.980  -2.581  24.748  0.00  0.00    +0.064 A 
ATOM     15  C   UNL     1       4.040  -3.541  25.154  0.00  0.00    +0.196 A 
ATOM     16  C   UNL     1       3.995  -3.919  26.503  0.00  0.00    +0.161 A 
ATOM     17  C   UNL     1       4.803  -3.301  27.456  0.00  0.00    +0.050 A 
BRANCH  16  18
ATOM     18  O   UNL     1       3.171  -4.939  26.910  0.00  0.00    -0.503 OA
ATOM     19  H   UNL     1       3.719  -5.737  26.950  0.00  0.00    +0.292 HD
ENDBRANCH  16  18
BRANCH  15  20
ATOM     20  O   UNL     1       3.099  -4.124  24.340  0.00  0.00    -0.357 OA
BRANCH  20  21
ATOM     21  S   UNL     1       3.372  -5.415  23.382  0.00  0.00    +0.043 S 
ATOM     22  O   UNL     1       4.397  -4.942  22.448  0.00  0.00    -0.259 OA
ATOM     23  O   UNL     1       2.088  -5.688  22.734  0.00  0.00    -0.336 OA
ATOM     24  O   UNL     1       3.838  -6.483  24.259  0.00  0.00    -0.336 OA
ENDBRANCH  20  21
ENDBRANCH  15  20
ENDBRANCH   1  13
BRANCH   5  25
ATOM     25  O   UNL     1      11.093   1.625  24.063  0.00  0.00    -0.506 OA
ATOM     26  H   UNL     1      11.273   0.697  24.337  0.00  0.00    +0.292 HD
ENDBRANCH   5  25
BRANCH   7  27
ATOM     27  O   UNL     1       7.435   4.737  24.342  0.00  0.00    -0.360 OA
BRANCH  27  28
ATOM     28  S   UNL     1       7.177   5.534  22.929  0.00  0.00    +0.042 S 
ATOM     29  O   UNL     1       7.119   4.459  21.937  0.00  0.00    -0.259 OA
ATOM     30  O   UNL     1       8.327   6.420  22.754  0.00  0.00    -0.336 OA
ATOM     31  O   UNL     1       5.902   6.227  23.119  0.00  0.00    -0.336 OA
ENDBRANCH  27  28
ENDBRANCH   7  27
BRANCH  11  32
ATOM     32  O   UNL     1       8.876  -2.817  25.410  0.00  0.00    -0.353 OA
BRANCH  32  33
ATOM     33  S   UNL     1       8.699  -4.231  24.633  0.00  0.00    +0.043 S 
ATOM     34  O   UNL     1       7.661  -4.921  25.405  0.00  0.00    -0.259 OA
ATOM     35  O   UNL     1       9.994  -4.898  24.706  0.00  0.00    -0.336 OA
ATOM     36  O   UNL     1       8.265  -3.846  23.294  0.00  0.00    -0.336 OA
ENDBRANCH  32  33
ENDBRANCH  11  32
TORSDOF 9
ENDMDL
MODEL 8
REMARK VINA RESULT:      -6.6      3.185      5.165
REMARK  Name = 
REMARK  9 active torsions:
REMARK  status: ('A' for Active; 'I' for Inactive)
REMARK    1  A    between atoms: C_3  and  O_34
REMARK    2  A    between atoms: C_4  and  O_29
REMARK    3  A    between atoms: C_6  and  C_7
REMARK    4  A    between atoms: C_8  and  O_24
REMARK    5  A    between atoms: C_12  and  O_23
REMARK    6  A    between atoms: C_14  and  O_18
REMARK    7  A    between atoms: O_18  and  S_19
REMARK    8  A    between atoms: O_24  and  S_25
REMARK    9  A    between atoms: O_29  and  S_30
REMARK                            x       y       z     vdW  Elec       q    Type
REMARK                         _______ _______ _______ _____ _____    ______ ____
ROOT
ATOM      1  C   UNL     1       7.679  -0.358  24.682  0.00  0.00    +0.184 A 
ATOM      2  O   UNL     1       8.927   0.222  24.410  0.00  0.00    -0.451 OA
ATOM      3  C   UNL     1       9.033   1.580  24.268  0.00  0.00    +0.147 A 
ATOM      4  C   UNL     1       7.973   2.431  24.518  0.00  0.00    +0.109 A 
ATOM      5  C   UNL     1       8.142   3.818  24.379  0.00  0.00    +0.135 A 
ATOM      6  C   UNL     1       9.373   4.351  23.996  0.00  0.00    +0.095 A 
ATOM      7  C   UNL     1      10.451   3.498  23.763  0.00  0.00    +0.162 A 
ATOM      8  C   UNL     1       6.689   1.843  24.912  0.00  0.00    +0.241 A 
ATOM      9  O   UNL     1       5.765   2.603  25.201  0.00  0.00    -0.283 OA
ATOM     10  C   UNL     1      10.270   2.109  23.879  0.00  0.00    +0.095 A 
ATOM     11  C   UNL     1       6.555   0.357  24.929  0.00  0.00    +0.244 A 
ENDROOT
BRANCH   1  13
ATOM     12  C   UNL     1       9.128  -2.351  24.806  0.00  0.00    +0.015 A 
ATOM     13  C   UNL     1       7.832  -1.830  24.663  0.00  0.00    +0.025 A 
ATOM     14  C   UNL     1       6.779  -2.697  24.312  0.00  0.00    +0.064 A 
ATOM     15  C   UNL     1       7.033  -4.053  24.057  0.00  0.00    +0.196 A 
ATOM     16  C   UNL     1       8.352  -4.521  24.128  0.00  0.00    +0.161 A 
ATOM     17  C   UNL     1       9.395  -3.690  24.529  0.00  0.00    +0.050 A 
BRANCH  16  18
ATOM     18  O   UNL     1       8.649  -5.813  23.768  0.00  0.00    -0.503 OA
ATOM     19  H   UNL     1       7.828  -6.200  23.428  0.00  0.00    +0.292 HD
ENDBRANCH  16  18
BRANCH  15  20
ATOM     20  O   UNL     1       6.076  -5.001  23.786  0.00  0.00    -0.357 OA
BRANCH  20  21
ATOM     21  S   UNL     1       5.538  -5.377  22.293  0.00  0.00    +0.043 S 
ATOM     22  O   UNL     1       6.447  -6.440  21.856  0.00  0.00    -0.259 OA
ATOM     23  O   UNL     1       5.681  -4.145  21.515  0.00  0.00    -0.336 OA
ATOM     24  O   UNL     1       4.160  -5.825  22.456  0.00  0.00    -0.336 OA
ENDBRANCH  20  21
ENDBRANCH  15  20
ENDBRANCH   1  13
BRANCH   5  25
ATOM     25  O   UNL     1       7.127   4.710  24.615  0.00  0.00    -0.506 OA
ATOM     26  H   UNL     1       6.285   4.250  24.392  0.00  0.00    +0.292 HD
ENDBRANCH   5  25
BRANCH   7  27
ATOM     27  O   UNL     1      11.712   3.910  23.401  0.00  0.00    -0.360 OA
BRANCH  27  28
ATOM     28  S   UNL     1      12.145   5.487  23.250  0.00  0.00    +0.042 S 
ATOM     29  O   UNL     1      12.704   5.814  24.562  0.00  0.00    -0.259 OA
ATOM     30  O   UNL     1      10.911   6.213  22.951  0.00  0.00    -0.336 OA
ATOM     31  O   UNL     1      13.132   5.502  22.171  0.00  0.00    -0.336 OA
ENDBRANCH  27  28
ENDBRANCH   7  27
BRANCH  11  32
ATOM     32  O   UNL     1       5.252  -0.058  25.079  0.00  0.00    -0.353 OA
BRANCH  32  33
ATOM     33  S   UNL     1       4.473  -0.481  26.439  0.00  0.00    +0.043 S 
ATOM     34  O   UNL     1       3.870  -1.775  26.103  0.00  0.00    -0.259 OA
ATOM     35  O   UNL     1       3.479   0.560  26.676  0.00  0.00    -0.336 OA
ATOM     36  O   UNL     1       5.532  -0.578  27.437  0.00  0.00    -0.336 OA
ENDBRANCH  32  33
ENDBRANCH  11  32
TORSDOF 9
ENDMDL
MODEL 9
REMARK VINA RESULT:      -6.5      2.259      3.135
REMARK  Name = 
REMARK  9 active torsions:
REMARK  status: ('A' for Active; 'I' for Inactive)
REMARK    1  A    between atoms: C_3  and  O_34
REMARK    2  A    between atoms: C_4  and  O_29
REMARK    3  A    between atoms: C_6  and  C_7
REMARK    4  A    between atoms: C_8  and  O_24
REMARK    5  A    between atoms: C_12  and  O_23
REMARK    6  A    between atoms: C_14  and  O_18
REMARK    7  A    between atoms: O_18  and  S_19
REMARK    8  A    between atoms: O_24  and  S_25
REMARK    9  A    between atoms: O_29  and  S_30
REMARK                            x       y       z     vdW  Elec       q    Type
REMARK                         _______ _______ _______ _____ _____    ______ ____
ROOT
ATOM      1  C   UNL     1       6.297  -1.207  24.146  0.00  0.00    +0.184 A 
ATOM      2  O   UNL     1       5.888   0.133  24.205  0.00  0.00    -0.451 OA
ATOM      3  C   UNL     1       6.614   1.099  23.561  0.00  0.00    +0.147 A 
ATOM      4  C   UNL     1       7.674   0.789  22.729  0.00  0.00    +0.109 A 
ATOM      5  C   UNL     1       8.371   1.816  22.074  0.00  0.00    +0.135 A 
ATOM      6  C   UNL     1       8.004   3.151  22.249  0.00  0.00    +0.095 A 
ATOM      7  C   UNL     1       6.922   3.466  23.070  0.00  0.00    +0.162 A 
ATOM      8  C   UNL     1       8.043  -0.621  22.570  0.00  0.00    +0.241 A 
ATOM      9  O   UNL     1       8.941  -0.902  21.777  0.00  0.00    -0.283 OA
ATOM     10  C   UNL     1       6.244   2.437  23.744  0.00  0.00    +0.095 A 
ATOM     11  C   UNL     1       7.328  -1.646  23.385  0.00  0.00    +0.244 A 
ENDROOT
BRANCH   1  13
ATOM     12  C   UNL     1       5.247  -1.578  26.349  0.00  0.00    +0.015 A 
ATOM     13  C   UNL     1       5.410  -2.007  25.021  0.00  0.00    +0.025 A 
ATOM     14  C   UNL     1       4.900  -3.262  24.639  0.00  0.00    +0.064 A 
ATOM     15  C   UNL     1       4.285  -4.096  25.585  0.00  0.00    +0.196 A 
ATOM     16  C   UNL     1       4.213  -3.670  26.919  0.00  0.00    +0.161 A 
ATOM     17  C   UNL     1       4.662  -2.408  27.302  0.00  0.00    +0.050 A 
BRANCH  16  18
ATOM     18  O   UNL     1       3.726  -4.511  27.889  0.00  0.00    -0.503 OA
ATOM     19  H   UNL     1       3.958  -5.411  27.615  0.00  0.00    +0.292 HD
ENDBRANCH  16  18
BRANCH  15  20
ATOM     20  O   UNL     1       3.684  -5.300  25.310  0.00  0.00    -0.357 OA
BRANCH  20  21
ATOM     21  S   UNL     1       4.282  -6.755  25.737  0.00  0.00    +0.043 S 
ATOM     22  O   UNL     1       4.272  -7.515  24.484  0.00  0.00    -0.259 OA
ATOM     23  O   UNL     1       3.343  -7.277  26.731  0.00  0.00    -0.336 OA
ATOM     24  O   UNL     1       5.624  -6.510  26.253  0.00  0.00    -0.336 OA
ENDBRANCH  20  21
ENDBRANCH  15  20
ENDBRANCH   1  13
BRANCH   5  25
ATOM     25  O   UNL     1       9.430   1.569  21.236  0.00  0.00    -0.506 OA
ATOM     26  H   UNL     1      10.158   2.172  21.512  0.00  0.00    +0.292 HD
ENDBRANCH   5  25
BRANCH   7  27
ATOM     27  O   UNL     1       6.459   4.740  23.301  0.00  0.00    -0.360 OA
BRANCH  27  28
ATOM     28  S   UNL     1       7.282   5.863  24.173  0.00  0.00    +0.042 S 
ATOM     29  O   UNL     1       6.221   6.650  24.802  0.00  0.00    -0.259 OA
ATOM     30  O   UNL     1       8.070   6.624  23.204  0.00  0.00    -0.336 OA
ATOM     31  O   UNL     1       8.079   5.086  25.124  0.00  0.00    -0.336 OA
ENDBRANCH  27  28
ENDBRANCH   7  27
BRANCH  11  32
ATOM     32  O   UNL     1       7.923  -2.885  23.323  0.00  0.00    -0.353 OA
BRANCH  32  33
ATOM     33  S   UNL     1       9.036  -3.528  24.315  0.00  0.00    +0.043 S 
ATOM     34  O   UNL     1       8.675  -2.992  25.631  0.00  0.00    -0.259 OA
ATOM     35  O   UNL     1      10.328  -3.042  23.842  0.00  0.00    -0.336 OA
ATOM     36  O   UNL     1       8.824  -4.967  24.197  0.00  0.00    -0.336 OA
ENDBRANCH  32  33
ENDBRANCH  11  32
TORSDOF 9
ENDMDL
