MODEL 1
REMARK VINA RESULT:      -6.9      0.000      0.000
REMARK  Name = 
REMARK  9 active torsions:
REMARK  status: ('A' for Active; 'I' for Inactive)
REMARK    1  A    between atoms: C_1  and  O_2
REMARK    2  A    between atoms: O_2  and  C_3
REMARK    3  A    between atoms: C_4  and  O_25
REMARK    4  A    between atoms: C_6  and  C_9
REMARK    5  A    between atoms: C_10  and  O_23
REMARK    6  A    between atoms: C_16  and  O_20
REMARK    7  A    between atoms: O_20  and  C_21
REMARK    8  A    between atoms: O_23  and  C_24
REMARK    9  A    between atoms: O_25  and  C_26
REMARK                            x       y       z     vdW  Elec       q    Type
REMARK                         _______ _______ _______ _____ _____    ______ ____
ROOT
ATOM      1  C   UNL     1       7.581  -0.723  23.185  0.00  0.00    +0.181 A 
ATOM      2  O   UNL     1       6.447  -1.493  22.924  0.00  0.00    -0.451 OA
ATOM      3  C   UNL     1       6.510  -2.859  23.034  0.00  0.00    +0.142 A 
ATOM      4  C   UNL     1       7.676  -3.562  23.377  0.00  0.00    +0.060 A 
ATOM      5  C   UNL     1       7.697  -4.991  23.423  0.00  0.00    -0.090 A 
ATOM      6  O   UNL     1       8.702  -5.731  23.696  0.00  0.00    -0.873 OA
ATOM      7  C   UNL     1       6.469  -5.623  23.132  0.00  0.00    +0.038 A 
ATOM      8  C   UNL     1       5.293  -4.942  22.814  0.00  0.00    +0.123 A 
ATOM      9  C   UNL     1       8.884  -2.733  23.682  0.00  0.00    +0.234 A 
ATOM     10  O   UNL     1       9.988  -3.180  23.989  0.00  0.00    -0.283 OA
ATOM     11  C   UNL     1       5.323  -3.552  22.759  0.00  0.00    +0.092 A 
ATOM     12  C   UNL     1       8.767  -1.238  23.589  0.00  0.00    +0.211 A 
ENDROOT
BRANCH   1  16
ATOM     13  C   UNL     1       7.248   3.477  22.334  0.00  0.00    +0.162 A 
ATOM     14  C   UNL     1       8.273   2.700  21.789  0.00  0.00    +0.050 A 
ATOM     15  C   UNL     1       8.326   1.327  22.036  0.00  0.00    +0.015 A 
ATOM     16  C   UNL     1       7.369   0.704  22.846  0.00  0.00    +0.025 A 
ATOM     17  C   UNL     1       6.285   1.465  23.322  0.00  0.00    +0.061 A 
ATOM     18  C   UNL     1       6.219   2.848  23.066  0.00  0.00    +0.162 A 
BRANCH  13  20
ATOM     19  C   UNL     1       8.076   5.626  22.963  0.00  0.00    +0.277 C 
ATOM     20  O   UNL     1       7.167   4.843  22.198  0.00  0.00    -0.491 OA
ENDBRANCH  13  20
BRANCH  18  21
ATOM     21  O   UNL     1       5.222   3.684  23.511  0.00  0.00    -0.491 OA
ATOM     22  C   UNL     1       3.913   3.495  22.996  0.00  0.00    +0.277 C 
ENDBRANCH  18  21
ENDBRANCH   1  16
BRANCH   8  23
ATOM     23  O   UNL     1       4.090  -5.546  22.545  0.00  0.00    -0.495 OA
ATOM     24  C   UNL     1       3.027  -5.216  23.441  0.00  0.00    +0.277 C 
ENDBRANCH   8  23
BRANCH  12  25
ATOM     25  O   UNL     1       9.951  -0.626  23.910  0.00  0.00    -0.488 OA
ATOM     26  C   UNL     1      10.258   0.153  25.034  0.00  0.00    +0.277 C 
ENDBRANCH  12  25
TORSDOF 5
ENDMDL
MODEL 2
REMARK VINA RESULT:      -6.8      2.299      8.095
REMARK  Name = 
REMARK  9 active torsions:
REMARK  status: ('A' for Active; 'I' for Inactive)
REMARK    1  A    between atoms: C_1  and  O_2
REMARK    2  A    between atoms: O_2  and  C_3
REMARK    3  A    between atoms: C_4  and  O_25
REMARK    4  A    between atoms: C_6  and  C_9
REMARK    5  A    between atoms: C_10  and  O_23
REMARK    6  A    between atoms: C_16  and  O_20
REMARK    7  A    between atoms: O_20  and  C_21
REMARK    8  A    between atoms: O_23  and  C_24
REMARK    9  A    between atoms: O_25  and  C_26
REMARK                            x       y       z     vdW  Elec       q    Type
REMARK                         _______ _______ _______ _____ _____    ______ ____
ROOT
ATOM      1  C   UNL     1       7.878  -0.122  24.010  0.00  0.00    +0.181 A 
ATOM      2  O   UNL     1       9.102   0.481  23.721  0.00  0.00    -0.451 OA
ATOM      3  C   UNL     1       9.242   1.839  23.854  0.00  0.00    +0.142 A 
ATOM      4  C   UNL     1       8.201   2.696  24.250  0.00  0.00    +0.060 A 
ATOM      5  C   UNL     1       8.389   4.112  24.319  0.00  0.00    -0.090 A 
ATOM      6  O   UNL     1       7.512   4.984  24.640  0.00  0.00    -0.873 OA
ATOM      7  C   UNL     1       9.685   4.566  23.995  0.00  0.00    +0.038 A 
ATOM      8  C   UNL     1      10.739   3.730  23.623  0.00  0.00    +0.123 A 
ATOM      9  C   UNL     1       6.898   2.044  24.585  0.00  0.00    +0.234 A 
ATOM     10  O   UNL     1       5.880   2.639  24.939  0.00  0.00    -0.283 OA
ATOM     11  C   UNL     1      10.506   2.360  23.547  0.00  0.00    +0.092 A 
ATOM     12  C   UNL     1       6.793   0.550  24.464  0.00  0.00    +0.211 A 
ENDROOT
BRANCH   1  16
ATOM     13  C   UNL     1       7.544  -4.289  23.011  0.00  0.00    +0.162 A 
ATOM     14  C   UNL     1       6.822  -3.313  22.322  0.00  0.00    +0.050 A 
ATOM     15  C   UNL     1       6.991  -1.961  22.628  0.00  0.00    +0.015 A 
ATOM     16  C   UNL     1       7.870  -1.557  23.641  0.00  0.00    +0.025 A 
ATOM     17  C   UNL     1       8.666  -2.529  24.275  0.00  0.00    +0.061 A 
ATOM     18  C   UNL     1       8.509  -3.893  23.961  0.00  0.00    +0.162 A 
BRANCH  13  20
ATOM     19  C   UNL     1       6.781  -6.055  21.598  0.00  0.00    +0.277 C 
ATOM     20  O   UNL     1       7.382  -5.641  22.819  0.00  0.00    -0.491 OA
ENDBRANCH  13  20
BRANCH  18  21
ATOM     21  O   UNL     1       9.214  -4.920  24.543  0.00  0.00    -0.491 OA
ATOM     22  C   UNL     1       9.437  -4.868  25.944  0.00  0.00    +0.277 C 
ENDBRANCH  18  21
ENDBRANCH   1  16
BRANCH   8  23
ATOM     23  O   UNL     1      12.007   4.159  23.321  0.00  0.00    -0.495 OA
ATOM     24  C   UNL     1      12.241   5.556  23.511  0.00  0.00    +0.277 C 
ENDBRANCH   8  23
BRANCH  12  25
ATOM     25  O   UNL     1       5.544   0.109  24.817  0.00  0.00    -0.488 OA
ATOM     26  C   UNL     1       5.168  -0.658  25.930  0.00  0.00    +0.277 C 
ENDBRANCH  12  25
TORSDOF 5
ENDMDL
MODEL 3
REMARK VINA RESULT:      -6.7      1.616      7.339
REMARK  Name = 
REMARK  9 active torsions:
REMARK  status: ('A' for Active; 'I' for Inactive)
REMARK    1  A    between atoms: C_1  and  O_2
REMARK    2  A    between atoms: O_2  and  C_3
REMARK    3  A    between atoms: C_4  and  O_25
REMARK    4  A    between atoms: C_6  and  C_9
REMARK    5  A    between atoms: C_10  and  O_23
REMARK    6  A    between atoms: C_16  and  O_20
REMARK    7  A    between atoms: O_20  and  C_21
REMARK    8  A    between atoms: O_23  and  C_24
REMARK    9  A    between atoms: O_25  and  C_26
REMARK                            x       y       z     vdW  Elec       q    Type
REMARK                         _______ _______ _______ _____ _____    ______ ____
ROOT
ATOM      1  C   UNL     1       7.413  -0.940  23.098  0.00  0.00    +0.181 A 
ATOM      2  O   UNL     1       6.776   0.285  22.899  0.00  0.00    -0.451 OA
ATOM      3  C   UNL     1       7.501   1.448  22.953  0.00  0.00    +0.142 A 
ATOM      4  C   UNL     1       8.877   1.498  23.228  0.00  0.00    +0.060 A 
ATOM      5  C   UNL     1       9.572   2.744  23.327  0.00  0.00    -0.090 A 
ATOM      6  O   UNL     1      10.810   2.909  23.596  0.00  0.00    -0.873 OA
ATOM      7  C   UNL     1       8.785   3.894  23.099  0.00  0.00    +0.038 A 
ATOM      8  C   UNL     1       7.423   3.865  22.800  0.00  0.00    +0.123 A 
ATOM      9  C   UNL     1       9.564   0.182  23.416  0.00  0.00    +0.234 A 
ATOM     10  O   UNL     1      10.758   0.038  23.672  0.00  0.00    -0.283 OA
ATOM     11  C   UNL     1       6.782   2.631  22.736  0.00  0.00    +0.092 A 
ATOM     12  C   UNL     1       8.744  -1.073  23.311  0.00  0.00    +0.211 A 
ENDROOT
BRANCH   1  16
ATOM     13  C   UNL     1       4.741  -4.269  23.601  0.00  0.00    +0.162 A 
ATOM     14  C   UNL     1       4.776  -3.216  24.518  0.00  0.00    +0.050 A 
ATOM     15  C   UNL     1       5.613  -2.119  24.301  0.00  0.00    +0.015 A 
ATOM     16  C   UNL     1       6.445  -2.059  23.177  0.00  0.00    +0.025 A 
ATOM     17  C   UNL     1       6.346  -3.073  22.206  0.00  0.00    +0.061 A 
ATOM     18  C   UNL     1       5.495  -4.175  22.412  0.00  0.00    +0.162 A 
BRANCH  13  20
ATOM     19  C   UNL     1       4.505  -6.377  24.696  0.00  0.00    +0.277 C 
ATOM     20  O   UNL     1       4.001  -5.414  23.777  0.00  0.00    -0.491 OA
ENDBRANCH  13  20
BRANCH  18  21
ATOM     21  O   UNL     1       5.349  -5.230  21.542  0.00  0.00    -0.491 OA
ATOM     22  C   UNL     1       6.498  -6.002  21.229  0.00  0.00    +0.277 C 
ENDBRANCH  18  21
ENDBRANCH   1  16
BRANCH   8  23
ATOM     23  O   UNL     1       6.652   4.975  22.561  0.00  0.00    -0.495 OA
ATOM     24  C   UNL     1       7.346   6.093  22.002  0.00  0.00    +0.277 C 
ENDBRANCH   8  23
BRANCH  12  25
ATOM     25  O   UNL     1       9.519  -2.189  23.494  0.00  0.00    -0.488 OA
ATOM     26  C   UNL     1       9.408  -3.181  24.480  0.00  0.00    +0.277 C 
ENDBRANCH  12  25
TORSDOF 5
ENDMDL
MODEL 4
REMARK VINA RESULT:      -6.7      2.500      3.461
REMARK  Name = 
REMARK  9 active torsions:
REMARK  status: ('A' for Active; 'I' for Inactive)
REMARK    1  A    between atoms: C_1  and  O_2
REMARK    2  A    between atoms: O_2  and  C_3
REMARK    3  A    between atoms: C_4  and  O_25
REMARK    4  A    between atoms: C_6  and  C_9
REMARK    5  A    between atoms: C_10  and  O_23
REMARK    6  A    between atoms: C_16  and  O_20
REMARK    7  A    between atoms: O_20  and  C_21
REMARK    8  A    between atoms: O_23  and  C_24
REMARK    9  A    between atoms: O_25  and  C_26
REMARK                            x       y       z     vdW  Elec       q    Type
REMARK                         _______ _______ _______ _____ _____    ______ ____
ROOT
ATOM      1  C   UNL     1       6.877  -3.064  24.493  0.00  0.00    +0.181 A 
ATOM      2  O   UNL     1       5.851  -3.788  23.886  0.00  0.00    -0.451 OA
ATOM      3  C   UNL     1       5.320  -4.882  24.520  0.00  0.00    +0.142 A 
ATOM      4  C   UNL     1       5.767  -5.356  25.764  0.00  0.00    +0.060 A 
ATOM      5  C   UNL     1       5.213  -6.536  26.353  0.00  0.00    -0.090 A 
ATOM      6  O   UNL     1       5.557  -7.070  27.462  0.00  0.00    -0.873 OA
ATOM      7  C   UNL     1       4.182  -7.154  25.614  0.00  0.00    +0.038 A 
ATOM      8  C   UNL     1       3.707  -6.685  24.388  0.00  0.00    +0.123 A 
ATOM      9  C   UNL     1       6.849  -4.564  26.425  0.00  0.00    +0.234 A 
ATOM     10  O   UNL     1       7.365  -4.838  27.508  0.00  0.00    -0.283 OA
ATOM     11  C   UNL     1       4.290  -5.546  23.841  0.00  0.00    +0.092 A 
ATOM     12  C   UNL     1       7.380  -3.349  25.718  0.00  0.00    +0.211 A 
ENDROOT
BRANCH   1  16
ATOM     13  C   UNL     1       8.752  -0.061  22.056  0.00  0.00    +0.162 A 
ATOM     14  C   UNL     1       9.338  -1.313  22.251  0.00  0.00    +0.050 A 
ATOM     15  C   UNL     1       8.681  -2.291  23.001  0.00  0.00    +0.015 A 
ATOM     16  C   UNL     1       7.436  -2.034  23.587  0.00  0.00    +0.025 A 
ATOM     17  C   UNL     1       6.801  -0.807  23.317  0.00  0.00    +0.061 A 
ATOM     18  C   UNL     1       7.452   0.179  22.551  0.00  0.00    +0.162 A 
BRANCH  13  20
ATOM     19  C   UNL     1      10.230   1.811  22.154  0.00  0.00    +0.277 C 
ATOM     20  O   UNL     1       9.364   0.977  21.393  0.00  0.00    -0.491 OA
ENDBRANCH  13  20
BRANCH  18  21
ATOM     21  O   UNL     1       6.933   1.417  22.257  0.00  0.00    -0.491 OA
ATOM     22  C   UNL     1       6.504   2.235  23.334  0.00  0.00    +0.277 C 
ENDBRANCH  18  21
ENDBRANCH   1  16
BRANCH   8  23
ATOM     23  O   UNL     1       2.694  -7.269  23.669  0.00  0.00    -0.495 OA
ATOM     24  C   UNL     1       1.871  -6.366  22.927  0.00  0.00    +0.277 C 
ENDBRANCH   8  23
BRANCH  12  25
ATOM     25  O   UNL     1       8.354  -2.729  26.458  0.00  0.00    -0.488 OA
ATOM     26  C   UNL     1       8.498  -1.365  26.749  0.00  0.00    +0.277 C 
ENDBRANCH  12  25
TORSDOF 5
ENDMDL
MODEL 5
REMARK VINA RESULT:      -6.6      3.094      4.730
REMARK  Name = 
REMARK  9 active torsions:
REMARK  status: ('A' for Active; 'I' for Inactive)
REMARK    1  A    between atoms: C_1  and  O_2
REMARK    2  A    between atoms: O_2  and  C_3
REMARK    3  A    between atoms: C_4  and  O_25
REMARK    4  A    between atoms: C_6  and  C_9
REMARK    5  A    between atoms: C_10  and  O_23
REMARK    6  A    between atoms: C_16  and  O_20
REMARK    7  A    between atoms: O_20  and  C_21
REMARK    8  A    between atoms: O_23  and  C_24
REMARK    9  A    between atoms: O_25  and  C_26
REMARK                            x       y       z     vdW  Elec       q    Type
REMARK                         _______ _______ _______ _____ _____    ______ ____
ROOT
ATOM      1  C   UNL     1       7.440  -3.628  24.081  0.00  0.00    +0.181 A 
ATOM      2  O   UNL     1       7.441  -3.702  25.474  0.00  0.00    -0.451 OA
ATOM      3  C   UNL     1       6.699  -4.667  26.107  0.00  0.00    +0.142 A 
ATOM      4  C   UNL     1       5.893  -5.599  25.433  0.00  0.00    +0.060 A 
ATOM      5  C   UNL     1       5.097  -6.549  26.147  0.00  0.00    -0.090 A 
ATOM      6  O   UNL     1       4.313  -7.422  25.642  0.00  0.00    -0.873 OA
ATOM      7  C   UNL     1       5.208  -6.494  27.553  0.00  0.00    +0.038 A 
ATOM      8  C   UNL     1       6.021  -5.592  28.241  0.00  0.00    +0.123 A 
ATOM      9  C   UNL     1       5.914  -5.535  23.939  0.00  0.00    +0.234 A 
ATOM     10  O   UNL     1       5.266  -6.265  23.191  0.00  0.00    -0.283 OA
ATOM     11  C   UNL     1       6.762  -4.671  27.507  0.00  0.00    +0.092 A 
ATOM     12  C   UNL     1       6.769  -4.490  23.280  0.00  0.00    +0.211 A 
ENDROOT
BRANCH   1  16
ATOM     13  C   UNL     1       9.615  -0.095  22.958  0.00  0.00    +0.162 A 
ATOM     14  C   UNL     1      10.267  -1.231  23.444  0.00  0.00    +0.050 A 
ATOM     15  C   UNL     1       9.542  -2.385  23.748  0.00  0.00    +0.015 A 
ATOM     16  C   UNL     1       8.152  -2.424  23.592  0.00  0.00    +0.025 A 
ATOM     17  C   UNL     1       7.503  -1.315  23.018  0.00  0.00    +0.061 A 
ATOM     18  C   UNL     1       8.230  -0.153  22.697  0.00  0.00    +0.162 A 
BRANCH  13  20
ATOM     19  C   UNL     1      10.610   1.893  23.828  0.00  0.00    +0.277 C 
ATOM     20  O   UNL     1      10.245   1.100  22.704  0.00  0.00    -0.491 OA
ENDBRANCH  13  20
BRANCH  18  21
ATOM     21  O   UNL     1       7.687   0.992  22.162  0.00  0.00    -0.491 OA
ATOM     22  C   UNL     1       6.687   1.669  22.907  0.00  0.00    +0.277 C 
ENDBRANCH  18  21
ENDBRANCH   1  16
BRANCH   8  23
ATOM     23  O   UNL     1       6.149  -5.541  29.607  0.00  0.00    -0.495 OA
ATOM     24  C   UNL     1       5.017  -6.007  30.345  0.00  0.00    +0.277 C 
ENDBRANCH   8  23
BRANCH  12  25
ATOM     25  O   UNL     1       6.689  -4.571  21.914  0.00  0.00    -0.488 OA
ATOM     26  C   UNL     1       5.879  -3.833  21.038  0.00  0.00    +0.277 C 
ENDBRANCH  12  25
TORSDOF 5
ENDMDL
MODEL 6
REMARK VINA RESULT:      -6.5      2.685      7.527
REMARK  Name = 
REMARK  9 active torsions:
REMARK  status: ('A' for Active; 'I' for Inactive)
REMARK    1  A    between atoms: C_1  and  O_2
REMARK    2  A    between atoms: O_2  and  C_3
REMARK    3  A    between atoms: C_4  and  O_25
REMARK    4  A    between atoms: C_6  and  C_9
REMARK    5  A    between atoms: C_10  and  O_23
REMARK    6  A    between atoms: C_16  and  O_20
REMARK    7  A    between atoms: O_20  and  C_21
REMARK    8  A    between atoms: O_23  and  C_24
REMARK    9  A    between atoms: O_25  and  C_26
REMARK                            x       y       z     vdW  Elec       q    Type
REMARK                         _______ _______ _______ _____ _____    ______ ____
ROOT
ATOM      1  C   UNL     1       7.319  -3.326  24.532  0.00  0.00    +0.181 A 
ATOM      2  O   UNL     1       6.604  -2.158  24.267  0.00  0.00    -0.451 OA
ATOM      3  C   UNL     1       7.216  -1.115  23.620  0.00  0.00    +0.142 A 
ATOM      4  C   UNL     1       8.561  -1.130  23.214  0.00  0.00    +0.060 A 
ATOM      5  C   UNL     1       9.162   0.008  22.591  0.00  0.00    -0.090 A 
ATOM      6  O   UNL     1      10.376   0.115  22.205  0.00  0.00    -0.873 OA
ATOM      7  C   UNL     1       8.306   1.112  22.393  0.00  0.00    +0.038 A 
ATOM      8  C   UNL     1       6.961   1.138  22.767  0.00  0.00    +0.123 A 
ATOM      9  C   UNL     1       9.318  -2.393  23.475  0.00  0.00    +0.234 A 
ATOM     10  O   UNL     1      10.502  -2.578  23.196  0.00  0.00    -0.283 OA
ATOM     11  C   UNL     1       6.423   0.017  23.390  0.00  0.00    +0.092 A 
ATOM     12  C   UNL     1       8.603  -3.528  24.152  0.00  0.00    +0.211 A 
ENDROOT
BRANCH   1  16
ATOM     13  C   UNL     1       5.361  -6.107  27.161  0.00  0.00    +0.162 A 
ATOM     14  C   UNL     1       5.997  -4.964  27.650  0.00  0.00    +0.050 A 
ATOM     15  C   UNL     1       6.577  -4.047  26.770  0.00  0.00    +0.015 A 
ATOM     16  C   UNL     1       6.550  -4.261  25.387  0.00  0.00    +0.025 A 
ATOM     17  C   UNL     1       5.833  -5.363  24.885  0.00  0.00    +0.061 A 
ATOM     18  C   UNL     1       5.235  -6.284  25.766  0.00  0.00    +0.162 A 
BRANCH  13  20
ATOM     19  C   UNL     1       4.331  -6.693  29.233  0.00  0.00    +0.277 C 
ATOM     20  O   UNL     1       4.831  -7.091  27.962  0.00  0.00    -0.491 OA
ENDBRANCH  13  20
BRANCH  18  21
ATOM     21  O   UNL     1       4.540  -7.405  25.380  0.00  0.00    -0.491 OA
ATOM     22  C   UNL     1       3.430  -7.238  24.511  0.00  0.00    +0.277 C 
ENDBRANCH  18  21
ENDBRANCH   1  16
BRANCH   8  23
ATOM     23  O   UNL     1       6.116   2.200  22.565  0.00  0.00    -0.495 OA
ATOM     24  C   UNL     1       6.744   3.410  22.137  0.00  0.00    +0.277 C 
ENDBRANCH   8  23
BRANCH  12  25
ATOM     25  O   UNL     1       9.427  -4.612  24.307  0.00  0.00    -0.488 OA
ATOM     26  C   UNL     1       9.925  -5.173  25.492  0.00  0.00    +0.277 C 
ENDBRANCH  12  25
TORSDOF 5
ENDMDL
MODEL 7
REMARK VINA RESULT:      -6.3      2.622      3.017
REMARK  Name = 
REMARK  9 active torsions:
REMARK  status: ('A' for Active; 'I' for Inactive)
REMARK    1  A    between atoms: C_1  and  O_2
REMARK    2  A    between atoms: O_2  and  C_3
REMARK    3  A    between atoms: C_4  and  O_25
REMARK    4  A    between atoms: C_6  and  C_9
REMARK    5  A    between atoms: C_10  and  O_23
REMARK    6  A    between atoms: C_16  and  O_20
REMARK    7  A    between atoms: O_20  and  C_21
REMARK    8  A    between atoms: O_23  and  C_24
REMARK    9  A    between atoms: O_25  and  C_26
REMARK                            x       y       z     vdW  Elec       q    Type
REMARK                         _______ _______ _______ _____ _____    ______ ____
ROOT
ATOM      1  C   UNL     1       8.233  -0.444  24.640  0.00  0.00    +0.181 A 
ATOM      2  O   UNL     1       7.511  -1.162  25.594  0.00  0.00    -0.451 OA
ATOM      3  C   UNL     1       7.790  -2.488  25.806  0.00  0.00    +0.142 A 
ATOM      4  C   UNL     1       8.765  -3.204  25.092  0.00  0.00    +0.060 A 
ATOM      5  C   UNL     1       8.976  -4.600  25.317  0.00  0.00    -0.090 A 
ATOM      6  O   UNL     1       9.813  -5.353  24.712  0.00  0.00    -0.873 OA
ATOM      7  C   UNL     1       8.165  -5.181  26.315  0.00  0.00    +0.038 A 
ATOM      8  C   UNL     1       7.208  -4.482  27.052  0.00  0.00    +0.123 A 
ATOM      9  C   UNL     1       9.556  -2.426  24.089  0.00  0.00    +0.234 A 
ATOM     10  O   UNL     1      10.440  -2.892  23.370  0.00  0.00    -0.283 OA
ATOM     11  C   UNL     1       7.020  -3.129  26.785  0.00  0.00    +0.092 A 
ATOM     12  C   UNL     1       9.248  -0.966  23.911  0.00  0.00    +0.211 A 
ENDROOT
BRANCH   1  16
ATOM     13  C   UNL     1       6.727   3.479  23.738  0.00  0.00    +0.162 A 
ATOM     14  C   UNL     1       6.290   2.351  23.040  0.00  0.00    +0.050 A 
ATOM     15  C   UNL     1       6.752   1.081  23.391  0.00  0.00    +0.015 A 
ATOM     16  C   UNL     1       7.674   0.912  24.431  0.00  0.00    +0.025 A 
ATOM     17  C   UNL     1       8.047   2.034  25.194  0.00  0.00    +0.061 A 
ATOM     18  C   UNL     1       7.574   3.316  24.855  0.00  0.00    +0.162 A 
BRANCH  13  20
ATOM     19  C   UNL     1       7.055   5.364  22.310  0.00  0.00    +0.277 C 
ATOM     20  O   UNL     1       6.376   4.768  23.409  0.00  0.00    -0.491 OA
ENDBRANCH  13  20
BRANCH  18  21
ATOM     21  O   UNL     1       7.902   4.476  25.515  0.00  0.00    -0.491 OA
ATOM     22  C   UNL     1       7.374   4.677  26.817  0.00  0.00    +0.277 C 
ENDBRANCH  18  21
ENDBRANCH   1  16
BRANCH   8  23
ATOM     23  O   UNL     1       6.425  -5.033  28.036  0.00  0.00    -0.495 OA
ATOM     24  C   UNL     1       5.201  -4.345  28.300  0.00  0.00    +0.277 C 
ENDBRANCH   8  23
BRANCH  12  25
ATOM     25  O   UNL     1      10.064  -0.397  22.969  0.00  0.00    -0.488 OA
ATOM     26  C   UNL     1       9.757  -0.026  21.651  0.00  0.00    +0.277 C 
ENDBRANCH  12  25
TORSDOF 5
ENDMDL
MODEL 8
REMARK VINA RESULT:      -6.2      2.951      7.681
REMARK  Name = 
REMARK  9 active torsions:
REMARK  status: ('A' for Active; 'I' for Inactive)
REMARK    1  A    between atoms: C_1  and  O_2
REMARK    2  A    between atoms: O_2  and  C_3
REMARK    3  A    between atoms: C_4  and  O_25
REMARK    4  A    between atoms: C_6  and  C_9
REMARK    5  A    between atoms: C_10  and  O_23
REMARK    6  A    between atoms: C_16  and  O_20
REMARK    7  A    between atoms: O_20  and  C_21
REMARK    8  A    between atoms: O_23  and  C_24
REMARK    9  A    between atoms: O_25  and  C_26
REMARK                            x       y       z     vdW  Elec       q    Type
REMARK                         _______ _______ _______ _____ _____    ______ ____
ROOT
ATOM      1  C   UNL     1       7.533  -2.168  24.647  0.00  0.00    +0.181 A 
ATOM      2  O   UNL     1       7.498  -0.923  25.277  0.00  0.00    -0.451 OA
ATOM      3  C   UNL     1       8.038   0.172  24.653  0.00  0.00    +0.142 A 
ATOM      4  C   UNL     1       8.667   0.125  23.398  0.00  0.00    +0.060 A 
ATOM      5  C   UNL     1       9.262   1.290  22.820  0.00  0.00    -0.090 A 
ATOM      6  O   UNL     1       9.878   1.359  21.703  0.00  0.00    -0.873 OA
ATOM      7  C   UNL     1       9.142   2.472  23.583  0.00  0.00    +0.038 A 
ATOM      8  C   UNL     1       8.501   2.545  24.820  0.00  0.00    +0.123 A 
ATOM      9  C   UNL     1       8.680  -1.204  22.713  0.00  0.00    +0.234 A 
ATOM     10  O   UNL     1       9.193  -1.430  21.618  0.00  0.00    -0.283 OA
ATOM     11  C   UNL     1       7.955   1.382  25.355  0.00  0.00    +0.092 A 
ATOM     12  C   UNL     1       8.044  -2.374  23.409  0.00  0.00    +0.211 A 
ENDROOT
BRANCH   1  16
ATOM     13  C   UNL     1       6.349  -5.514  27.070  0.00  0.00    +0.162 A 
ATOM     14  C   UNL     1       7.683  -5.111  26.984  0.00  0.00    +0.050 A 
ATOM     15  C   UNL     1       8.033  -3.985  26.235  0.00  0.00    +0.015 A 
ATOM     16  C   UNL     1       7.064  -3.252  25.541  0.00  0.00    +0.025 A 
ATOM     17  C   UNL     1       5.710  -3.601  25.699  0.00  0.00    +0.061 A 
ATOM     18  C   UNL     1       5.348  -4.726  26.464  0.00  0.00    +0.162 A 
BRANCH  13  20
ATOM     19  C   UNL     1       6.006  -6.641  29.147  0.00  0.00    +0.277 C 
ATOM     20  O   UNL     1       5.932  -6.649  27.726  0.00  0.00    -0.491 OA
ENDBRANCH  13  20
BRANCH  18  21
ATOM     21  O   UNL     1       4.060  -5.167  26.654  0.00  0.00    -0.491 OA
ATOM     22  C   UNL     1       3.320  -5.580  25.516  0.00  0.00    +0.277 C 
ENDBRANCH  18  21
ENDBRANCH   1  16
BRANCH   8  23
ATOM     23  O   UNL     1       8.365   3.691  25.562  0.00  0.00    -0.495 OA
ATOM     24  C   UNL     1       8.796   4.892  24.918  0.00  0.00    +0.277 C 
ENDBRANCH   8  23
BRANCH  12  25
ATOM     25  O   UNL     1       8.128  -3.511  22.649  0.00  0.00    -0.488 OA
ATOM     26  C   UNL     1       7.089  -4.312  22.152  0.00  0.00    +0.277 C 
ENDBRANCH  12  25
TORSDOF 5
ENDMDL
MODEL 9
REMARK VINA RESULT:      -6.2      2.221      7.582
REMARK  Name = 
REMARK  9 active torsions:
REMARK  status: ('A' for Active; 'I' for Inactive)
REMARK    1  A    between atoms: C_1  and  O_2
REMARK    2  A    between atoms: O_2  and  C_3
REMARK    3  A    between atoms: C_4  and  O_25
REMARK    4  A    between atoms: C_6  and  C_9
REMARK    5  A    between atoms: C_10  and  O_23
REMARK    6  A    between atoms: C_16  and  O_20
REMARK    7  A    between atoms: O_20  and  C_21
REMARK    8  A    between atoms: O_23  and  C_24
REMARK    9  A    between atoms: O_25  and  C_26
REMARK                            x       y       z     vdW  Elec       q    Type
REMARK                         _______ _______ _______ _____ _____    ______ ____
ROOT
ATOM      1  C   UNL     1       7.030  -3.878  23.870  0.00  0.00    +0.181 A 
ATOM      2  O   UNL     1       6.377  -2.690  23.541  0.00  0.00    -0.451 OA
ATOM      3  C   UNL     1       7.108  -1.558  23.284  0.00  0.00    +0.142 A 
ATOM      4  C   UNL     1       8.509  -1.501  23.356  0.00  0.00    +0.060 A 
ATOM      5  C   UNL     1       9.217  -0.278  23.131  0.00  0.00    -0.090 A 
ATOM      6  O   UNL     1      10.481  -0.105  23.194  0.00  0.00    -0.873 OA
ATOM      7  C   UNL     1       8.412   0.835  22.808  0.00  0.00    +0.038 A 
ATOM      8  C   UNL     1       7.020   0.793  22.708  0.00  0.00    +0.123 A 
ATOM      9  C   UNL     1       9.209  -2.782  23.683  0.00  0.00    +0.234 A 
ATOM     10  O   UNL     1      10.427  -2.913  23.796  0.00  0.00    -0.283 OA
ATOM     11  C   UNL     1       6.371  -0.412  22.956  0.00  0.00    +0.092 A 
ATOM     12  C   UNL     1       8.377  -4.011  23.920  0.00  0.00    +0.211 A 
ENDROOT
BRANCH   1  16
ATOM     13  C   UNL     1       4.032  -6.738  25.013  0.00  0.00    +0.162 A 
ATOM     14  C   UNL     1       4.069  -6.194  23.727  0.00  0.00    +0.050 A 
ATOM     15  C   UNL     1       5.088  -5.309  23.364  0.00  0.00    +0.015 A 
ATOM     16  C   UNL     1       6.077  -4.936  24.281  0.00  0.00    +0.025 A 
ATOM     17  C   UNL     1       6.095  -5.551  25.547  0.00  0.00    +0.061 A 
ATOM     18  C   UNL     1       5.079  -6.453  25.915  0.00  0.00    +0.162 A 
BRANCH  13  20
ATOM     19  C   UNL     1       2.202  -8.179  24.490  0.00  0.00    +0.277 C 
ATOM     20  O   UNL     1       3.025  -7.557  25.469  0.00  0.00    -0.491 OA
ENDBRANCH  13  20
BRANCH  18  21
ATOM     21  O   UNL     1       4.988  -7.082  27.134  0.00  0.00    -0.491 OA
ATOM     22  C   UNL     1       4.922  -6.275  28.299  0.00  0.00    +0.277 C 
ENDBRANCH  18  21
ENDBRANCH   1  16
BRANCH   8  23
ATOM     23  O   UNL     1       6.229   1.866  22.379  0.00  0.00    -0.495 OA
ATOM     24  C   UNL     1       6.037   2.826  23.420  0.00  0.00    +0.277 C 
ENDBRANCH   8  23
BRANCH  12  25
ATOM     25  O   UNL     1       9.165  -5.098  24.195  0.00  0.00    -0.488 OA
ATOM     26  C   UNL     1       9.592  -5.579  25.442  0.00  0.00    +0.277 C 
ENDBRANCH  12  25
TORSDOF 5
ENDMDL
