MODEL 1
REMARK VINA RESULT:      -6.8      0.000      0.000
REMARK  Name = 
REMARK  18 active torsions:
REMARK  status: ('A' for Active; 'I' for Inactive)
REMARK    1  A    between atoms: C_3  and  O_54
REMARK    2  A    between atoms: C_4  and  O_53
REMARK    3  A    between atoms: C_6  and  C_7
REMARK    4  A    between atoms: C_8  and  O_20
REMARK    5  A    between atoms: C_12  and  O_19
REMARK    6  A    between atoms: C_14  and  O_18
REMARK    7  A    between atoms: O_20  and  C_21
REMARK    8  A    between atoms: C_23  and  O_36
REMARK    9  A    between atoms: C_25  and  O_35
REMARK   10  A    between atoms: C_27  and  O_34
REMARK   11  A    between atoms: C_29  and  C_32
REMARK   12  A    between atoms: C_32  and  O_33
REMARK   13  A    between atoms: O_36  and  C_37
REMARK   14  A    between atoms: C_39  and  O_52
REMARK   15  A    between atoms: C_41  and  O_51
REMARK   16  A    between atoms: C_43  and  O_50
REMARK   17  A    between atoms: C_45  and  C_48
REMARK   18  A    between atoms: C_48  and  O_49
REMARK                            x       y       z     vdW  Elec       q    Type
REMARK                         _______ _______ _______ _____ _____    ______ ____
ROOT
ATOM      1  C   UNL     1       8.151   0.459  24.144  0.00  0.00    +0.340 C 
ATOM      2  O   UNL     1       8.109   0.020  22.786  0.00  0.00    -0.331 OA
ATOM      3  C   UNL     1       9.277   0.023  21.975  0.00  0.00    +0.179 C 
ATOM      4  C   UNL     1      10.150   1.251  22.240  0.00  0.00    +0.177 C 
ATOM      5  C   UNL     1      10.407   1.482  23.740  0.00  0.00    +0.180 C 
ATOM      6  C   UNL     1       9.148   1.583  24.603  0.00  0.00    +0.221 C 
ENDROOT
BRANCH   5   7
ATOM      7  O   UNL     1      11.243   0.432  24.249  0.00  0.00    -0.386 OA
ATOM      8  H   UNL     1      10.952   0.190  25.150  0.00  0.00    +0.210 HD
ENDBRANCH   5   7
BRANCH   4   9
ATOM      9  O   UNL     1       9.506   2.341  21.578  0.00  0.00    -0.386 OA
ATOM     10  H   UNL     1      10.082   2.812  20.949  0.00  0.00    +0.210 HD
ENDBRANCH   4   9
BRANCH   6  11
ATOM     11  O   UNL     1       8.530   2.896  24.649  0.00  0.00    -0.337 OA
BRANCH  11  12
ATOM     12  C   UNL     1       7.323   3.043  25.436  0.00  0.00    +0.282 C 
ATOM     13  O   UNL     1       6.154   3.304  24.626  0.00  0.00    -0.341 OA
ATOM     14  C   UNL     1       6.049   4.573  23.935  0.00  0.00    +0.178 C 
ATOM     15  C   UNL     1       6.645   5.815  24.656  0.00  0.00    +0.177 C 
ATOM     16  C   UNL     1       7.776   5.480  25.632  0.00  0.00    +0.179 C 
ATOM     17  C   UNL     1       7.427   4.214  26.427  0.00  0.00    +0.201 C 
BRANCH  17  18
ATOM     18  O   UNL     1       6.201   4.414  27.156  0.00  0.00    -0.384 OA
ATOM     19  H   UNL     1       5.467   4.434  26.507  0.00  0.00    +0.210 HD
ENDBRANCH  17  18
BRANCH  16  20
ATOM     20  O   UNL     1       9.023   5.344  24.956  0.00  0.00    -0.386 OA
ATOM     21  H   UNL     1       9.563   6.148  25.137  0.00  0.00    +0.210 HD
ENDBRANCH  16  20
BRANCH  15  22
ATOM     22  O   UNL     1       5.583   6.472  25.381  0.00  0.00    -0.386 OA
ATOM     23  H   UNL     1       5.012   6.941  24.739  0.00  0.00    +0.210 HD
ENDBRANCH  15  22
BRANCH  14  24
ATOM     24  C   UNL     1       6.537   4.391  22.493  0.00  0.00    +0.190 C 
BRANCH  24  25
ATOM     25  O   UNL     1       7.931   4.657  22.374  0.00  0.00    -0.392 OA
ATOM     26  H   UNL     1       8.365   3.917  22.859  0.00  0.00    +0.210 HD
ENDBRANCH  24  25
ENDBRANCH  14  24
ENDBRANCH  11  12
ENDBRANCH   6  11
BRANCH   3  27
ATOM     27  C   UNL     1      10.027  -1.321  21.977  0.00  0.00    +0.190 C 
BRANCH  27  28
ATOM     28  O   UNL     1       9.829  -2.035  23.202  0.00  0.00    -0.392 OA
ATOM     29  H   UNL     1       9.116  -1.597  23.698  0.00  0.00    +0.210 HD
ENDBRANCH  27  28
ENDBRANCH   3  27
BRANCH   1  30
ATOM     30  O   UNL     1       8.366  -0.683  25.034  0.00  0.00    -0.453 OA
BRANCH  30  41
ATOM     31  C   UNL     1       6.312  -1.946  25.402  0.00  0.00    +0.181 A 
ATOM     32  O   UNL     1       5.045  -1.973  26.081  0.00  0.00    -0.451 OA
ATOM     33  C   UNL     1       4.698  -0.910  26.908  0.00  0.00    +0.147 A 
ATOM     34  C   UNL     1       5.666  -0.051  27.445  0.00  0.00    +0.109 A 
ATOM     35  C   UNL     1       5.326   1.033  28.278  0.00  0.00    +0.135 A 
ATOM     36  C   UNL     1       3.998   1.277  28.585  0.00  0.00    +0.091 A 
ATOM     37  C   UNL     1       3.024   0.435  28.077  0.00  0.00    +0.124 A 
ATOM     38  C   UNL     1       7.027  -0.353  27.092  0.00  0.00    +0.238 A 
ATOM     39  O   UNL     1       7.960  -0.011  27.825  0.00  0.00    -0.283 OA
ATOM     40  C   UNL     1       3.356  -0.655  27.242  0.00  0.00    +0.092 A 
ATOM     41  C   UNL     1       7.241  -1.023  25.765  0.00  0.00    +0.214 A 
BRANCH  31  43
ATOM     42  C   UNL     1       7.270  -4.192  24.523  0.00  0.00    +0.015 A 
ATOM     43  C   UNL     1       6.490  -3.026  24.315  0.00  0.00    +0.025 A 
ATOM     44  C   UNL     1       5.968  -2.905  23.007  0.00  0.00    +0.060 A 
ATOM     45  C   UNL     1       6.166  -3.884  22.012  0.00  0.00    +0.159 A 
ATOM     46  C   UNL     1       6.938  -5.012  22.251  0.00  0.00    +0.158 A 
ATOM     47  C   UNL     1       7.501  -5.173  23.503  0.00  0.00    +0.050 A 
BRANCH  46  48
ATOM     48  O   UNL     1       7.103  -5.892  21.216  0.00  0.00    -0.503 OA
ATOM     49  H   UNL     1       6.435  -5.716  20.531  0.00  0.00    +0.292 HD
ENDBRANCH  46  48
BRANCH  45  50
ATOM     50  O   UNL     1       5.607  -3.717  20.771  0.00  0.00    -0.503 OA
ATOM     51  H   UNL     1       6.344  -3.409  20.203  0.00  0.00    +0.292 HD
ENDBRANCH  45  50
ENDBRANCH  31  43
BRANCH  37  52
ATOM     52  O   UNL     1       1.711   0.670  28.388  0.00  0.00    -0.507 OA
ATOM     53  H   UNL     1       1.448   0.102  29.135  0.00  0.00    +0.292 HD
ENDBRANCH  37  52
BRANCH  35  54
ATOM     54  O   UNL     1       6.193   1.945  28.794  0.00  0.00    -0.506 OA
ATOM     55  H   UNL     1       6.128   2.813  28.344  0.00  0.00    +0.292 HD
ENDBRANCH  35  54
ENDBRANCH  30  41
ENDBRANCH   1  30
TORSDOF 18
ENDMDL
MODEL 2
REMARK VINA RESULT:      -6.5      1.528      2.089
REMARK  Name = 
REMARK  18 active torsions:
REMARK  status: ('A' for Active; 'I' for Inactive)
REMARK    1  A    between atoms: C_3  and  O_54
REMARK    2  A    between atoms: C_4  and  O_53
REMARK    3  A    between atoms: C_6  and  C_7
REMARK    4  A    between atoms: C_8  and  O_20
REMARK    5  A    between atoms: C_12  and  O_19
REMARK    6  A    between atoms: C_14  and  O_18
REMARK    7  A    between atoms: O_20  and  C_21
REMARK    8  A    between atoms: C_23  and  O_36
REMARK    9  A    between atoms: C_25  and  O_35
REMARK   10  A    between atoms: C_27  and  O_34
REMARK   11  A    between atoms: C_29  and  C_32
REMARK   12  A    between atoms: C_32  and  O_33
REMARK   13  A    between atoms: O_36  and  C_37
REMARK   14  A    between atoms: C_39  and  O_52
REMARK   15  A    between atoms: C_41  and  O_51
REMARK   16  A    between atoms: C_43  and  O_50
REMARK   17  A    between atoms: C_45  and  C_48
REMARK   18  A    between atoms: C_48  and  O_49
REMARK                            x       y       z     vdW  Elec       q    Type
REMARK                         _______ _______ _______ _____ _____    ______ ____
ROOT
ATOM      1  C   UNL     1       8.064   1.045  24.367  0.00  0.00    +0.340 C 
ATOM      2  O   UNL     1       7.787   0.211  23.242  0.00  0.00    -0.331 OA
ATOM      3  C   UNL     1       8.806  -0.129  22.310  0.00  0.00    +0.179 C 
ATOM      4  C   UNL     1       9.743   1.049  22.037  0.00  0.00    +0.177 C 
ATOM      5  C   UNL     1      10.250   1.713  23.329  0.00  0.00    +0.180 C 
ATOM      6  C   UNL     1       9.153   2.175  24.291  0.00  0.00    +0.221 C 
ENDROOT
BRANCH   5   7
ATOM      7  O   UNL     1      11.129   0.812  24.018  0.00  0.00    -0.386 OA
ATOM      8  H   UNL     1      11.907   0.621  23.457  0.00  0.00    +0.210 HD
ENDBRANCH   5   7
BRANCH   4   9
ATOM      9  O   UNL     1       9.028   1.925  21.165  0.00  0.00    -0.386 OA
ATOM     10  H   UNL     1       9.095   2.865  21.415  0.00  0.00    +0.210 HD
ENDBRANCH   4   9
BRANCH   6  11
ATOM     11  O   UNL     1       8.587   3.481  24.006  0.00  0.00    -0.337 OA
BRANCH  11  12
ATOM     12  C   UNL     1       7.838   4.132  25.061  0.00  0.00    +0.282 C 
ATOM     13  O   UNL     1       6.419   3.864  24.989  0.00  0.00    -0.341 OA
ATOM     14  C   UNL     1       5.656   4.417  23.888  0.00  0.00    +0.178 C 
ATOM     15  C   UNL     1       6.092   5.813  23.364  0.00  0.00    +0.177 C 
ATOM     16  C   UNL     1       7.570   6.130  23.605  0.00  0.00    +0.179 C 
ATOM     17  C   UNL     1       7.986   5.662  25.006  0.00  0.00    +0.201 C 
BRANCH  17  18
ATOM     18  O   UNL     1       7.182   6.319  26.004  0.00  0.00    -0.384 OA
ATOM     19  H   UNL     1       7.083   7.256  25.737  0.00  0.00    +0.210 HD
ENDBRANCH  17  18
BRANCH  16  20
ATOM     20  O   UNL     1       8.397   5.556  22.597  0.00  0.00    -0.386 OA
ATOM     21  H   UNL     1       8.689   4.666  22.903  0.00  0.00    +0.210 HD
ENDBRANCH  16  20
BRANCH  15  22
ATOM     22  O   UNL     1       5.287   6.816  24.021  0.00  0.00    -0.386 OA
ATOM     23  H   UNL     1       5.779   7.662  24.016  0.00  0.00    +0.210 HD
ENDBRANCH  15  22
BRANCH  14  24
ATOM     24  C   UNL     1       5.526   3.348  22.795  0.00  0.00    +0.190 C 
BRANCH  24  25
ATOM     25  O   UNL     1       6.551   3.475  21.815  0.00  0.00    -0.392 OA
ATOM     26  H   UNL     1       7.387   3.502  22.336  0.00  0.00    +0.210 HD
ENDBRANCH  24  25
ENDBRANCH  14  24
ENDBRANCH  11  12
ENDBRANCH   6  11
BRANCH   3  27
ATOM     27  C   UNL     1       9.509  -1.460  22.629  0.00  0.00    +0.190 C 
BRANCH  27  28
ATOM     28  O   UNL     1      10.778  -1.558  21.976  0.00  0.00    -0.392 OA
ATOM     29  H   UNL     1      10.635  -1.923  21.085  0.00  0.00    +0.210 HD
ENDBRANCH  27  28
ENDBRANCH   3  27
BRANCH   1  30
ATOM     30  O   UNL     1       8.391   0.223  25.533  0.00  0.00    -0.453 OA
BRANCH  30  41
ATOM     31  C   UNL     1       6.754  -1.452  26.211  0.00  0.00    +0.181 A 
ATOM     32  O   UNL     1       5.428  -1.673  26.720  0.00  0.00    -0.451 OA
ATOM     33  C   UNL     1       4.615  -0.577  26.987  0.00  0.00    +0.147 A 
ATOM     34  C   UNL     1       5.150   0.701  27.197  0.00  0.00    +0.109 A 
ATOM     35  C   UNL     1       4.336   1.819  27.460  0.00  0.00    +0.135 A 
ATOM     36  C   UNL     1       2.960   1.675  27.514  0.00  0.00    +0.091 A 
ATOM     37  C   UNL     1       2.407   0.420  27.322  0.00  0.00    +0.124 A 
ATOM     38  C   UNL     1       6.584   0.790  27.129  0.00  0.00    +0.238 A 
ATOM     39  O   UNL     1       7.189   1.683  27.731  0.00  0.00    -0.283 OA
ATOM     40  C   UNL     1       3.217  -0.708  27.058  0.00  0.00    +0.092 A 
ATOM     41  C   UNL     1       7.274  -0.198  26.234  0.00  0.00    +0.214 A 
BRANCH  31  43
ATOM     42  C   UNL     1       7.078  -3.396  24.520  0.00  0.00    +0.015 A 
ATOM     43  C   UNL     1       7.474  -2.719  25.702  0.00  0.00    +0.025 A 
ATOM     44  C   UNL     1       8.521  -3.354  26.408  0.00  0.00    +0.060 A 
ATOM     45  C   UNL     1       9.148  -4.531  25.949  0.00  0.00    +0.159 A 
ATOM     46  C   UNL     1       8.730  -5.167  24.789  0.00  0.00    +0.158 A 
ATOM     47  C   UNL     1       7.691  -4.611  24.069  0.00  0.00    +0.050 A 
BRANCH  46  48
ATOM     48  O   UNL     1       9.375  -6.322  24.439  0.00  0.00    -0.503 OA
ATOM     49  H   UNL     1      10.331  -6.220  24.592  0.00  0.00    +0.292 HD
ENDBRANCH  46  48
BRANCH  45  50
ATOM     50  O   UNL     1      10.178  -5.078  26.670  0.00  0.00    -0.503 OA
ATOM     51  H   UNL     1      10.909  -5.182  26.024  0.00  0.00    +0.292 HD
ENDBRANCH  45  50
ENDBRANCH  31  43
BRANCH  37  52
ATOM     52  O   UNL     1       1.047   0.275  27.385  0.00  0.00    -0.507 OA
ATOM     53  H   UNL     1       0.707   0.024  26.506  0.00  0.00    +0.292 HD
ENDBRANCH  37  52
BRANCH  35  54
ATOM     54  O   UNL     1       4.767   3.100  27.620  0.00  0.00    -0.506 OA
ATOM     55  H   UNL     1       4.912   3.551  26.763  0.00  0.00    +0.292 HD
ENDBRANCH  35  54
ENDBRANCH  30  41
ENDBRANCH   1  30
TORSDOF 18
ENDMDL
MODEL 3
REMARK VINA RESULT:      -6.5      1.882      5.017
REMARK  Name = 
REMARK  18 active torsions:
REMARK  status: ('A' for Active; 'I' for Inactive)
REMARK    1  A    between atoms: C_3  and  O_54
REMARK    2  A    between atoms: C_4  and  O_53
REMARK    3  A    between atoms: C_6  and  C_7
REMARK    4  A    between atoms: C_8  and  O_20
REMARK    5  A    between atoms: C_12  and  O_19
REMARK    6  A    between atoms: C_14  and  O_18
REMARK    7  A    between atoms: O_20  and  C_21
REMARK    8  A    between atoms: C_23  and  O_36
REMARK    9  A    between atoms: C_25  and  O_35
REMARK   10  A    between atoms: C_27  and  O_34
REMARK   11  A    between atoms: C_29  and  C_32
REMARK   12  A    between atoms: C_32  and  O_33
REMARK   13  A    between atoms: O_36  and  C_37
REMARK   14  A    between atoms: C_39  and  O_52
REMARK   15  A    between atoms: C_41  and  O_51
REMARK   16  A    between atoms: C_43  and  O_50
REMARK   17  A    between atoms: C_45  and  C_48
REMARK   18  A    between atoms: C_48  and  O_49
REMARK                            x       y       z     vdW  Elec       q    Type
REMARK                         _______ _______ _______ _____ _____    ______ ____
ROOT
ATOM      1  C   UNL     1       7.575  -0.203  23.148  0.00  0.00    +0.340 C 
ATOM      2  O   UNL     1       8.343  -0.555  21.997  0.00  0.00    -0.331 OA
ATOM      3  C   UNL     1       9.739  -0.290  21.934  0.00  0.00    +0.179 C 
ATOM      4  C   UNL     1      10.091   1.057  22.569  0.00  0.00    +0.177 C 
ATOM      5  C   UNL     1       9.464   1.235  23.964  0.00  0.00    +0.180 C 
ATOM      6  C   UNL     1       7.947   1.051  24.018  0.00  0.00    +0.221 C 
ENDROOT
BRANCH   5   7
ATOM      7  O   UNL     1      10.081   0.323  24.885  0.00  0.00    -0.386 OA
ATOM      8  H   UNL     1      11.035   0.525  24.958  0.00  0.00    +0.210 HD
ENDBRANCH   5   7
BRANCH   4   9
ATOM      9  O   UNL     1       9.706   2.051  21.619  0.00  0.00    -0.386 OA
ATOM     10  H   UNL     1       8.902   1.822  21.118  0.00  0.00    +0.210 HD
ENDBRANCH   4   9
BRANCH   6  11
ATOM     11  O   UNL     1       7.166   2.225  23.671  0.00  0.00    -0.337 OA
BRANCH  11  12
ATOM     12  C   UNL     1       7.434   3.449  24.397  0.00  0.00    +0.282 C 
ATOM     13  O   UNL     1       6.239   4.043  24.954  0.00  0.00    -0.341 OA
ATOM     14  C   UNL     1       5.252   4.605  24.055  0.00  0.00    +0.178 C 
ATOM     15  C   UNL     1       5.785   5.281  22.761  0.00  0.00    +0.177 C 
ATOM     16  C   UNL     1       7.137   4.736  22.291  0.00  0.00    +0.179 C 
ATOM     17  C   UNL     1       8.064   4.522  23.494  0.00  0.00    +0.201 C 
BRANCH  17  18
ATOM     18  O   UNL     1       8.261   5.767  24.192  0.00  0.00    -0.384 OA
ATOM     19  H   UNL     1       9.215   5.845  24.400  0.00  0.00    +0.210 HD
ENDBRANCH  17  18
BRANCH  16  20
ATOM     20  O   UNL     1       6.980   3.540  21.534  0.00  0.00    -0.386 OA
ATOM     21  H   UNL     1       6.421   2.914  22.052  0.00  0.00    +0.210 HD
ENDBRANCH  16  20
BRANCH  15  22
ATOM     22  O   UNL     1       5.914   6.697  23.009  0.00  0.00    -0.386 OA
ATOM     23  H   UNL     1       6.850   6.953  22.876  0.00  0.00    +0.210 HD
ENDBRANCH  15  22
BRANCH  14  24
ATOM     24  C   UNL     1       4.157   3.559  23.811  0.00  0.00    +0.190 C 
BRANCH  24  25
ATOM     25  O   UNL     1       4.515   2.661  22.766  0.00  0.00    -0.392 OA
ATOM     26  H   UNL     1       4.471   1.768  23.182  0.00  0.00    +0.210 HD
ENDBRANCH  24  25
ENDBRANCH  14  24
ENDBRANCH  11  12
ENDBRANCH   6  11
BRANCH   3  27
ATOM     27  C   UNL     1      10.608  -1.473  22.393  0.00  0.00    +0.190 C 
BRANCH  27  28
ATOM     28  O   UNL     1       9.968  -2.231  23.425  0.00  0.00    -0.392 OA
ATOM     29  H   UNL     1       9.956  -3.165  23.154  0.00  0.00    +0.210 HD
ENDBRANCH  27  28
ENDBRANCH   3  27
BRANCH   1  30
ATOM     30  O   UNL     1       7.494  -1.342  24.064  0.00  0.00    -0.453 OA
BRANCH  30  41
ATOM     31  C   UNL     1       5.403  -1.459  25.313  0.00  0.00    +0.181 A 
ATOM     32  O   UNL     1       4.217  -2.232  25.566  0.00  0.00    -0.451 OA
ATOM     33  C   UNL     1       4.042  -3.440  24.899  0.00  0.00    +0.147 A 
ATOM     34  C   UNL     1       4.721  -3.727  23.708  0.00  0.00    +0.109 A 
ATOM     35  C   UNL     1       4.557  -4.949  23.028  0.00  0.00    +0.135 A 
ATOM     36  C   UNL     1       3.706  -5.914  23.538  0.00  0.00    +0.091 A 
ATOM     37  C   UNL     1       3.014  -5.651  24.708  0.00  0.00    +0.124 A 
ATOM     38  C   UNL     1       5.591  -2.687  23.225  0.00  0.00    +0.238 A 
ATOM     39  O   UNL     1       5.862  -2.599  22.024  0.00  0.00    -0.283 OA
ATOM     40  C   UNL     1       3.172  -4.426  25.396  0.00  0.00    +0.092 A 
ATOM     41  C   UNL     1       6.199  -1.789  24.263  0.00  0.00    +0.214 A 
BRANCH  31  43
ATOM     42  C   UNL     1       4.800   0.868  26.292  0.00  0.00    +0.015 A 
ATOM     43  C   UNL     1       5.630  -0.282  26.284  0.00  0.00    +0.025 A 
ATOM     44  C   UNL     1       6.723  -0.212  27.178  0.00  0.00    +0.060 A 
ATOM     45  C   UNL     1       6.938   0.885  28.037  0.00  0.00    +0.159 A 
ATOM     46  C   UNL     1       6.106   1.995  28.015  0.00  0.00    +0.158 A 
ATOM     47  C   UNL     1       5.036   2.000  27.141  0.00  0.00    +0.050 A 
BRANCH  46  48
ATOM     48  O   UNL     1       6.412   3.026  28.860  0.00  0.00    -0.503 OA
ATOM     49  H   UNL     1       5.635   3.604  28.962  0.00  0.00    +0.292 HD
ENDBRANCH  46  48
BRANCH  45  50
ATOM     50  O   UNL     1       8.003   0.874  28.901  0.00  0.00    -0.503 OA
ATOM     51  H   UNL     1       7.760   0.221  29.591  0.00  0.00    +0.292 HD
ENDBRANCH  45  50
ENDBRANCH  31  43
BRANCH  37  52
ATOM     52  O   UNL     1       2.165  -6.601  25.208  0.00  0.00    -0.507 OA
ATOM     53  H   UNL     1       1.244  -6.301  25.103  0.00  0.00    +0.292 HD
ENDBRANCH  37  52
BRANCH  35  54
ATOM     54  O   UNL     1       5.217  -5.329  21.900  0.00  0.00    -0.506 OA
ATOM     55  H   UNL     1       4.763  -5.029  21.086  0.00  0.00    +0.292 HD
ENDBRANCH  35  54
ENDBRANCH  30  41
ENDBRANCH   1  30
TORSDOF 18
ENDMDL
MODEL 4
REMARK VINA RESULT:      -6.4      2.655      5.519
REMARK  Name = 
REMARK  18 active torsions:
REMARK  status: ('A' for Active; 'I' for Inactive)
REMARK    1  A    between atoms: C_3  and  O_54
REMARK    2  A    between atoms: C_4  and  O_53
REMARK    3  A    between atoms: C_6  and  C_7
REMARK    4  A    between atoms: C_8  and  O_20
REMARK    5  A    between atoms: C_12  and  O_19
REMARK    6  A    between atoms: C_14  and  O_18
REMARK    7  A    between atoms: O_20  and  C_21
REMARK    8  A    between atoms: C_23  and  O_36
REMARK    9  A    between atoms: C_25  and  O_35
REMARK   10  A    between atoms: C_27  and  O_34
REMARK   11  A    between atoms: C_29  and  C_32
REMARK   12  A    between atoms: C_32  and  O_33
REMARK   13  A    between atoms: O_36  and  C_37
REMARK   14  A    between atoms: C_39  and  O_52
REMARK   15  A    between atoms: C_41  and  O_51
REMARK   16  A    between atoms: C_43  and  O_50
REMARK   17  A    between atoms: C_45  and  C_48
REMARK   18  A    between atoms: C_48  and  O_49
REMARK                            x       y       z     vdW  Elec       q    Type
REMARK                         _______ _______ _______ _____ _____    ______ ____
ROOT
ATOM      1  C   UNL     1       5.839  -0.722  26.007  0.00  0.00    +0.340 C 
ATOM      2  O   UNL     1       5.721  -0.637  27.427  0.00  0.00    -0.331 OA
ATOM      3  C   UNL     1       5.055   0.457  28.046  0.00  0.00    +0.179 C 
ATOM      4  C   UNL     1       5.350   1.778  27.333  0.00  0.00    +0.177 C 
ATOM      5  C   UNL     1       5.154   1.685  25.809  0.00  0.00    +0.180 C 
ATOM      6  C   UNL     1       5.949   0.572  25.123  0.00  0.00    +0.221 C 
ENDROOT
BRANCH   5   7
ATOM      7  O   UNL     1       3.759   1.515  25.516  0.00  0.00    -0.386 OA
ATOM      8  H   UNL     1       3.256   2.277  25.864  0.00  0.00    +0.210 HD
ENDBRANCH   5   7
BRANCH   4   9
ATOM      9  O   UNL     1       6.667   2.157  27.736  0.00  0.00    -0.386 OA
ATOM     10  H   UNL     1       6.683   2.756  28.504  0.00  0.00    +0.210 HD
ENDBRANCH   4   9
BRANCH   6  11
ATOM     11  O   UNL     1       7.321   0.906  24.786  0.00  0.00    -0.337 OA
BRANCH  11  12
ATOM     12  C   UNL     1       7.584   1.398  23.450  0.00  0.00    +0.282 C 
ATOM     13  O   UNL     1       8.863   0.963  22.934  0.00  0.00    -0.341 OA
ATOM     14  C   UNL     1      10.075   1.481  23.535  0.00  0.00    +0.178 C 
ATOM     15  C   UNL     1      10.033   2.949  24.045  0.00  0.00    +0.177 C 
ATOM     16  C   UNL     1       8.631   3.430  24.430  0.00  0.00    +0.179 C 
ATOM     17  C   UNL     1       7.605   2.935  23.401  0.00  0.00    +0.201 C 
BRANCH  17  18
ATOM     18  O   UNL     1       7.944   3.429  22.091  0.00  0.00    -0.384 OA
ATOM     19  H   UNL     1       8.352   2.692  21.592  0.00  0.00    +0.210 HD
ENDBRANCH  17  18
BRANCH  16  20
ATOM     20  O   UNL     1       8.285   3.021  25.750  0.00  0.00    -0.386 OA
ATOM     21  H   UNL     1       7.303   2.972  25.813  0.00  0.00    +0.210 HD
ENDBRANCH  16  20
BRANCH  15  22
ATOM     22  O   UNL     1      10.550   3.805  23.004  0.00  0.00    -0.386 OA
ATOM     23  H   UNL     1       9.801   4.117  22.457  0.00  0.00    +0.210 HD
ENDBRANCH  15  22
BRANCH  14  24
ATOM     24  C   UNL     1      10.580   0.470  24.573  0.00  0.00    +0.190 C 
BRANCH  24  25
ATOM     25  O   UNL     1       9.819   0.530  25.775  0.00  0.00    -0.392 OA
ATOM     26  H   UNL     1       9.326   1.381  25.712  0.00  0.00    +0.210 HD
ENDBRANCH  24  25
ENDBRANCH  14  24
ENDBRANCH  11  12
ENDBRANCH   6  11
BRANCH   3  27
ATOM     27  C   UNL     1       3.567   0.187  28.329  0.00  0.00    +0.190 C 
BRANCH  27  28
ATOM     28  O   UNL     1       2.921  -0.435  27.214  0.00  0.00    -0.392 OA
ATOM     29  H   UNL     1       1.999  -0.622  27.462  0.00  0.00    +0.210 HD
ENDBRANCH  27  28
ENDBRANCH   3  27
BRANCH   1  30
ATOM     30  O   UNL     1       4.738  -1.515  25.458  0.00  0.00    -0.453 OA
BRANCH  30  41
ATOM     31  C   UNL     1       5.805  -3.596  24.770  0.00  0.00    +0.181 A 
ATOM     32  O   UNL     1       5.698  -5.030  24.746  0.00  0.00    -0.451 OA
ATOM     33  C   UNL     1       4.578  -5.634  25.308  0.00  0.00    +0.147 A 
ATOM     34  C   UNL     1       3.785  -4.973  26.255  0.00  0.00    +0.109 A 
ATOM     35  C   UNL     1       2.645  -5.571  26.826  0.00  0.00    +0.135 A 
ATOM     36  C   UNL     1       2.276  -6.851  26.450  0.00  0.00    +0.091 A 
ATOM     37  C   UNL     1       3.050  -7.531  25.525  0.00  0.00    +0.124 A 
ATOM     38  C   UNL     1       4.216  -3.646  26.607  0.00  0.00    +0.238 A 
ATOM     39  O   UNL     1       3.927  -3.159  27.704  0.00  0.00    -0.283 OA
ATOM     40  C   UNL     1       4.196  -6.938  24.949  0.00  0.00    +0.092 A 
ATOM     41  C   UNL     1       4.952  -2.879  25.546  0.00  0.00    +0.214 A 
BRANCH  31  43
ATOM     42  C   UNL     1       6.688  -2.335  22.680  0.00  0.00    +0.015 A 
ATOM     43  C   UNL     1       6.938  -3.016  23.899  0.00  0.00    +0.025 A 
ATOM     44  C   UNL     1       8.311  -3.186  24.194  0.00  0.00    +0.060 A 
ATOM     45  C   UNL     1       9.337  -2.679  23.371  0.00  0.00    +0.159 A 
ATOM     46  C   UNL     1       9.053  -2.021  22.183  0.00  0.00    +0.158 A 
ATOM     47  C   UNL     1       7.730  -1.848  21.824  0.00  0.00    +0.050 A 
BRANCH  46  48
ATOM     48  O   UNL     1      10.114  -1.593  21.433  0.00  0.00    -0.503 OA
ATOM     49  H   UNL     1      10.875  -1.420  22.015  0.00  0.00    +0.292 HD
ENDBRANCH  46  48
BRANCH  45  50
ATOM     50  O   UNL     1      10.648  -2.856  23.733  0.00  0.00    -0.503 OA
ATOM     51  H   UNL     1      11.148  -2.213  23.185  0.00  0.00    +0.292 HD
ENDBRANCH  45  50
ENDBRANCH  31  43
BRANCH  37  52
ATOM     52  O   UNL     1       2.691  -8.801  25.160  0.00  0.00    -0.507 OA
ATOM     53  H   UNL     1       3.221  -9.079  24.391  0.00  0.00    +0.292 HD
ENDBRANCH  37  52
BRANCH  35  54
ATOM     54  O   UNL     1       1.790  -4.982  27.706  0.00  0.00    -0.506 OA
ATOM     55  H   UNL     1       1.081  -5.591  27.996  0.00  0.00    +0.292 HD
ENDBRANCH  35  54
ENDBRANCH  30  41
ENDBRANCH   1  30
TORSDOF 18
ENDMDL
MODEL 5
REMARK VINA RESULT:      -6.4      1.934      2.461
REMARK  Name = 
REMARK  18 active torsions:
REMARK  status: ('A' for Active; 'I' for Inactive)
REMARK    1  A    between atoms: C_3  and  O_54
REMARK    2  A    between atoms: C_4  and  O_53
REMARK    3  A    between atoms: C_6  and  C_7
REMARK    4  A    between atoms: C_8  and  O_20
REMARK    5  A    between atoms: C_12  and  O_19
REMARK    6  A    between atoms: C_14  and  O_18
REMARK    7  A    between atoms: O_20  and  C_21
REMARK    8  A    between atoms: C_23  and  O_36
REMARK    9  A    between atoms: C_25  and  O_35
REMARK   10  A    between atoms: C_27  and  O_34
REMARK   11  A    between atoms: C_29  and  C_32
REMARK   12  A    between atoms: C_32  and  O_33
REMARK   13  A    between atoms: O_36  and  C_37
REMARK   14  A    between atoms: C_39  and  O_52
REMARK   15  A    between atoms: C_41  and  O_51
REMARK   16  A    between atoms: C_43  and  O_50
REMARK   17  A    between atoms: C_45  and  C_48
REMARK   18  A    between atoms: C_48  and  O_49
REMARK                            x       y       z     vdW  Elec       q    Type
REMARK                         _______ _______ _______ _____ _____    ______ ____
ROOT
ATOM      1  C   UNL     1       7.652  -1.008  24.190  0.00  0.00    +0.340 C 
ATOM      2  O   UNL     1       7.120  -1.645  23.028  0.00  0.00    -0.331 OA
ATOM      3  C   UNL     1       7.949  -2.416  22.167  0.00  0.00    +0.179 C 
ATOM      4  C   UNL     1       9.332  -1.783  21.992  0.00  0.00    +0.177 C 
ATOM      5  C   UNL     1       9.979  -1.398  23.335  0.00  0.00    +0.180 C 
ATOM      6  C   UNL     1       9.133  -0.484  24.222  0.00  0.00    +0.221 C 
ENDROOT
BRANCH   5   7
ATOM      7  O   UNL     1      10.309  -2.588  24.066  0.00  0.00    -0.386 OA
ATOM      8  H   UNL     1       9.558  -2.837  24.641  0.00  0.00    +0.210 HD
ENDBRANCH   5   7
BRANCH   4   9
ATOM      9  O   UNL     1       9.152  -0.691  21.090  0.00  0.00    -0.386 OA
ATOM     10  H   UNL     1       8.259  -0.301  21.121  0.00  0.00    +0.210 HD
ENDBRANCH   4   9
BRANCH   6  11
ATOM     11  O   UNL     1       9.231   0.935  23.926  0.00  0.00    -0.337 OA
BRANCH  11  12
ATOM     12  C   UNL     1       8.469   1.848  24.752  0.00  0.00    +0.282 C 
ATOM     13  O   UNL     1       7.148   2.110  24.225  0.00  0.00    -0.341 OA
ATOM     14  C   UNL     1       7.022   2.866  22.996  0.00  0.00    +0.178 C 
ATOM     15  C   UNL     1       8.067   3.991  22.753  0.00  0.00    +0.177 C 
ATOM     16  C   UNL     1       9.403   3.757  23.463  0.00  0.00    +0.179 C 
ATOM     17  C   UNL     1       9.159   3.216  24.878  0.00  0.00    +0.201 C 
BRANCH  17  18
ATOM     18  O   UNL     1       8.367   4.153  25.633  0.00  0.00    -0.384 OA
ATOM     19  H   UNL     1       7.754   3.637  26.198  0.00  0.00    +0.210 HD
ENDBRANCH  17  18
BRANCH  16  20
ATOM     20  O   UNL     1      10.246   2.890  22.711  0.00  0.00    -0.386 OA
ATOM     21  H   UNL     1      11.109   3.344  22.565  0.00  0.00    +0.210 HD
ENDBRANCH  16  20
BRANCH  15  22
ATOM     22  O   UNL     1       7.505   5.238  23.215  0.00  0.00    -0.386 OA
ATOM     23  H   UNL     1       8.054   5.571  23.954  0.00  0.00    +0.210 HD
ENDBRANCH  15  22
BRANCH  14  24
ATOM     24  C   UNL     1       6.876   1.883  21.827  0.00  0.00    +0.190 C 
BRANCH  24  25
ATOM     25  O   UNL     1       8.080   1.782  21.074  0.00  0.00    -0.392 OA
ATOM     26  H   UNL     1       8.796   1.797  21.751  0.00  0.00    +0.210 HD
ENDBRANCH  24  25
ENDBRANCH  14  24
ENDBRANCH  11  12
ENDBRANCH   6  11
BRANCH   3  27
ATOM     27  C   UNL     1       7.958  -3.916  22.507  0.00  0.00    +0.190 C 
BRANCH  27  28
ATOM     28  O   UNL     1       7.955  -4.137  23.922  0.00  0.00    -0.392 OA
ATOM     29  H   UNL     1       8.232  -5.056  24.087  0.00  0.00    +0.210 HD
ENDBRANCH  27  28
ENDBRANCH   3  27
BRANCH   1  30
ATOM     30  O   UNL     1       7.487  -1.875  25.357  0.00  0.00    -0.453 OA
BRANCH  30  41
ATOM     31  C   UNL     1       5.216  -2.184  26.190  0.00  0.00    +0.181 A 
ATOM     32  O   UNL     1       4.081  -1.544  26.798  0.00  0.00    -0.451 OA
ATOM     33  C   UNL     1       4.148  -0.187  27.095  0.00  0.00    +0.147 A 
ATOM     34  C   UNL     1       5.375   0.474  27.236  0.00  0.00    +0.109 A 
ATOM     35  C   UNL     1       5.457   1.848  27.530  0.00  0.00    +0.135 A 
ATOM     36  C   UNL     1       4.298   2.590  27.685  0.00  0.00    +0.091 A 
ATOM     37  C   UNL     1       3.072   1.958  27.563  0.00  0.00    +0.124 A 
ATOM     38  C   UNL     1       6.545  -0.347  27.064  0.00  0.00    +0.238 A 
ATOM     39  O   UNL     1       7.614  -0.041  27.600  0.00  0.00    -0.283 OA
ATOM     40  C   UNL     1       2.982   0.579  27.270  0.00  0.00    +0.092 A 
ATOM     41  C   UNL     1       6.404  -1.526  26.146  0.00  0.00    +0.214 A 
BRANCH  31  43
ATOM     42  C   UNL     1       5.219  -4.768  26.435  0.00  0.00    +0.015 A 
ATOM     43  C   UNL     1       4.953  -3.609  25.662  0.00  0.00    +0.025 A 
ATOM     44  C   UNL     1       4.510  -3.881  24.347  0.00  0.00    +0.060 A 
ATOM     45  C   UNL     1       4.305  -5.190  23.865  0.00  0.00    +0.159 A 
ATOM     46  C   UNL     1       4.580  -6.301  24.651  0.00  0.00    +0.158 A 
ATOM     47  C   UNL     1       5.044  -6.101  25.936  0.00  0.00    +0.050 A 
BRANCH  46  48
ATOM     48  O   UNL     1       4.383  -7.532  24.088  0.00  0.00    -0.503 OA
ATOM     49  H   UNL     1       4.446  -8.218  24.775  0.00  0.00    +0.292 HD
ENDBRANCH  46  48
BRANCH  45  50
ATOM     50  O   UNL     1       3.846  -5.381  22.587  0.00  0.00    -0.503 OA
ATOM     51  H   UNL     1       4.197  -6.257  22.323  0.00  0.00    +0.292 HD
ENDBRANCH  45  50
ENDBRANCH  31  43
BRANCH  37  52
ATOM     52  O   UNL     1       1.926   2.689  27.726  0.00  0.00    -0.507 OA
ATOM     53  H   UNL     1       1.164   2.086  27.803  0.00  0.00    +0.292 HD
ENDBRANCH  37  52
BRANCH  35  54
ATOM     54  O   UNL     1       6.601   2.578  27.628  0.00  0.00    -0.506 OA
ATOM     55  H   UNL     1       6.585   3.191  28.392  0.00  0.00    +0.292 HD
ENDBRANCH  35  54
ENDBRANCH  30  41
ENDBRANCH   1  30
TORSDOF 18
ENDMDL
MODEL 6
REMARK VINA RESULT:      -6.2      2.740      7.916
REMARK  Name = 
REMARK  18 active torsions:
REMARK  status: ('A' for Active; 'I' for Inactive)
REMARK    1  A    between atoms: C_3  and  O_54
REMARK    2  A    between atoms: C_4  and  O_53
REMARK    3  A    between atoms: C_6  and  C_7
REMARK    4  A    between atoms: C_8  and  O_20
REMARK    5  A    between atoms: C_12  and  O_19
REMARK    6  A    between atoms: C_14  and  O_18
REMARK    7  A    between atoms: O_20  and  C_21
REMARK    8  A    between atoms: C_23  and  O_36
REMARK    9  A    between atoms: C_25  and  O_35
REMARK   10  A    between atoms: C_27  and  O_34
REMARK   11  A    between atoms: C_29  and  C_32
REMARK   12  A    between atoms: C_32  and  O_33
REMARK   13  A    between atoms: O_36  and  C_37
REMARK   14  A    between atoms: C_39  and  O_52
REMARK   15  A    between atoms: C_41  and  O_51
REMARK   16  A    between atoms: C_43  and  O_50
REMARK   17  A    between atoms: C_45  and  C_48
REMARK   18  A    between atoms: C_48  and  O_49
REMARK                            x       y       z     vdW  Elec       q    Type
REMARK                         _______ _______ _______ _____ _____    ______ ____
ROOT
ATOM      1  C   UNL     1       4.644  -1.571  26.029  0.00  0.00    +0.340 C 
ATOM      2  O   UNL     1       3.426  -0.860  26.249  0.00  0.00    -0.331 OA
ATOM      3  C   UNL     1       2.657  -1.062  27.428  0.00  0.00    +0.179 C 
ATOM      4  C   UNL     1       2.641  -2.533  27.851  0.00  0.00    +0.177 C 
ATOM      5  C   UNL     1       4.050  -3.153  27.886  0.00  0.00    +0.180 C 
ATOM      6  C   UNL     1       4.843  -3.028  26.584  0.00  0.00    +0.221 C 
ENDROOT
BRANCH   5   7
ATOM      7  O   UNL     1       4.805  -2.565  28.954  0.00  0.00    -0.386 OA
ATOM      8  H   UNL     1       5.118  -3.267  29.559  0.00  0.00    +0.210 HD
ENDBRANCH   5   7
BRANCH   4   9
ATOM      9  O   UNL     1       1.731  -3.186  26.964  0.00  0.00    -0.386 OA
ATOM     10  H   UNL     1       0.885  -3.428  27.383  0.00  0.00    +0.210 HD
ENDBRANCH   4   9
BRANCH   6  11
ATOM     11  O   UNL     1       4.569  -4.049  25.588  0.00  0.00    -0.337 OA
BRANCH  11  12
ATOM     12  C   UNL     1       4.853  -5.424  25.941  0.00  0.00    +0.282 C 
ATOM     13  O   UNL     1       5.521  -6.148  24.882  0.00  0.00    -0.341 OA
ATOM     14  C   UNL     1       4.790  -6.444  23.666  0.00  0.00    +0.178 C 
ATOM     15  C   UNL     1       3.272  -6.741  23.815  0.00  0.00    +0.177 C 
ATOM     16  C   UNL     1       2.632  -6.089  25.044  0.00  0.00    +0.179 C 
ATOM     17  C   UNL     1       3.570  -6.211  26.252  0.00  0.00    +0.201 C 
BRANCH  17  18
ATOM     18  O   UNL     1       3.840  -7.599  26.527  0.00  0.00    -0.384 OA
ATOM     19  H   UNL     1       2.980  -8.061  26.606  0.00  0.00    +0.210 HD
ENDBRANCH  17  18
BRANCH  16  20
ATOM     20  O   UNL     1       2.283  -4.732  24.789  0.00  0.00    -0.386 OA
ATOM     21  H   UNL     1       3.019  -4.310  24.287  0.00  0.00    +0.210 HD
ENDBRANCH  16  20
BRANCH  15  22
ATOM     22  O   UNL     1       3.097  -8.172  23.902  0.00  0.00    -0.386 OA
ATOM     23  H   UNL     1       3.688  -8.515  24.603  0.00  0.00    +0.210 HD
ENDBRANCH  15  22
BRANCH  14  24
ATOM     24  C   UNL     1       5.119  -5.370  22.621  0.00  0.00    +0.190 C 
BRANCH  24  25
ATOM     25  O   UNL     1       4.214  -4.274  22.693  0.00  0.00    -0.392 OA
ATOM     26  H   UNL     1       4.063  -4.017  21.754  0.00  0.00    +0.210 HD
ENDBRANCH  24  25
ENDBRANCH  14  24
ENDBRANCH  11  12
ENDBRANCH   6  11
BRANCH   3  27
ATOM     27  C   UNL     1       2.987  -0.065  28.553  0.00  0.00    +0.190 C 
BRANCH  27  28
ATOM     28  O   UNL     1       4.365   0.321  28.529  0.00  0.00    -0.392 OA
ATOM     29  H   UNL     1       4.481   1.073  29.137  0.00  0.00    +0.210 HD
ENDBRANCH  27  28
ENDBRANCH   3  27
BRANCH   1  30
ATOM     30  O   UNL     1       5.780  -0.781  26.504  0.00  0.00    -0.453 OA
BRANCH  30  41
ATOM     31  C   UNL     1       7.671  -0.899  24.969  0.00  0.00    +0.181 A 
ATOM     32  O   UNL     1       8.572  -0.145  24.140  0.00  0.00    -0.451 OA
ATOM     33  C   UNL     1       8.439   1.239  24.082  0.00  0.00    +0.147 A 
ATOM     34  C   UNL     1       7.241   1.877  24.429  0.00  0.00    +0.109 A 
ATOM     35  C   UNL     1       7.097   3.277  24.382  0.00  0.00    +0.135 A 
ATOM     36  C   UNL     1       8.162   4.067  23.985  0.00  0.00    +0.091 A 
ATOM     37  C   UNL     1       9.354   3.460  23.624  0.00  0.00    +0.124 A 
ATOM     38  C   UNL     1       6.170   1.006  24.833  0.00  0.00    +0.238 A 
ATOM     39  O   UNL     1       4.992   1.355  24.709  0.00  0.00    -0.283 OA
ATOM     40  C   UNL     1       9.506   2.056  23.669  0.00  0.00    +0.092 A 
ATOM     41  C   UNL     1       6.569  -0.290  25.478  0.00  0.00    +0.214 A 
BRANCH  31  43
ATOM     42  C   UNL     1       8.575  -2.867  26.401  0.00  0.00    +0.015 A 
ATOM     43  C   UNL     1       8.061  -2.378  25.173  0.00  0.00    +0.025 A 
ATOM     44  C   UNL     1       8.021  -3.341  24.139  0.00  0.00    +0.060 A 
ATOM     45  C   UNL     1       8.412  -4.682  24.329  0.00  0.00    +0.159 A 
ATOM     46  C   UNL     1       8.913  -5.124  25.545  0.00  0.00    +0.158 A 
ATOM     47  C   UNL     1       9.005  -4.222  26.587  0.00  0.00    +0.050 A 
BRANCH  46  48
ATOM     48  O   UNL     1       9.299  -6.434  25.627  0.00  0.00    -0.503 OA
ATOM     49  H   UNL     1       9.085  -6.782  26.510  0.00  0.00    +0.292 HD
ENDBRANCH  46  48
BRANCH  45  50
ATOM     50  O   UNL     1       8.320  -5.572  23.289  0.00  0.00    -0.503 OA
ATOM     51  H   UNL     1       7.963  -6.392  23.692  0.00  0.00    +0.292 HD
ENDBRANCH  45  50
ENDBRANCH  31  43
BRANCH  37  52
ATOM     52  O   UNL     1      10.404   4.240  23.223  0.00  0.00    -0.507 OA
ATOM     53  H   UNL     1      10.080   4.937  22.623  0.00  0.00    +0.292 HD
ENDBRANCH  37  52
BRANCH  35  54
ATOM     54  O   UNL     1       5.992   3.979  24.754  0.00  0.00    -0.506 OA
ATOM     55  H   UNL     1       6.206   4.701  25.380  0.00  0.00    +0.292 HD
ENDBRANCH  35  54
ENDBRANCH  30  41
ENDBRANCH   1  30
TORSDOF 18
ENDMDL
MODEL 7
REMARK VINA RESULT:      -6.1      2.186      7.416
REMARK  Name = 
REMARK  18 active torsions:
REMARK  status: ('A' for Active; 'I' for Inactive)
REMARK    1  A    between atoms: C_3  and  O_54
REMARK    2  A    between atoms: C_4  and  O_53
REMARK    3  A    between atoms: C_6  and  C_7
REMARK    4  A    between atoms: C_8  and  O_20
REMARK    5  A    between atoms: C_12  and  O_19
REMARK    6  A    between atoms: C_14  and  O_18
REMARK    7  A    between atoms: O_20  and  C_21
REMARK    8  A    between atoms: C_23  and  O_36
REMARK    9  A    between atoms: C_25  and  O_35
REMARK   10  A    between atoms: C_27  and  O_34
REMARK   11  A    between atoms: C_29  and  C_32
REMARK   12  A    between atoms: C_32  and  O_33
REMARK   13  A    between atoms: O_36  and  C_37
REMARK   14  A    between atoms: C_39  and  O_52
REMARK   15  A    between atoms: C_41  and  O_51
REMARK   16  A    between atoms: C_43  and  O_50
REMARK   17  A    between atoms: C_45  and  C_48
REMARK   18  A    between atoms: C_48  and  O_49
REMARK                            x       y       z     vdW  Elec       q    Type
REMARK                         _______ _______ _______ _____ _____    ______ ____
ROOT
ATOM      1  C   UNL     1       5.821  -0.779  26.099  0.00  0.00    +0.340 C 
ATOM      2  O   UNL     1       5.573   0.361  25.276  0.00  0.00    -0.331 OA
ATOM      3  C   UNL     1       5.525   1.671  25.828  0.00  0.00    +0.179 C 
ATOM      4  C   UNL     1       4.835   1.687  27.194  0.00  0.00    +0.177 C 
ATOM      5  C   UNL     1       5.381   0.608  28.145  0.00  0.00    +0.180 C 
ATOM      6  C   UNL     1       5.341  -0.819  27.594  0.00  0.00    +0.221 C 
ENDROOT
BRANCH   5   7
ATOM      7  O   UNL     1       6.731   0.931  28.511  0.00  0.00    -0.386 OA
ATOM      8  H   UNL     1       7.311   0.164  28.335  0.00  0.00    +0.210 HD
ENDBRANCH   5   7
BRANCH   4   9
ATOM      9  O   UNL     1       3.435   1.584  26.928  0.00  0.00    -0.386 OA
ATOM     10  H   UNL     1       2.874   1.844  27.682  0.00  0.00    +0.210 HD
ENDBRANCH   4   9
BRANCH   6  11
ATOM     11  O   UNL     1       4.076  -1.513  27.758  0.00  0.00    -0.337 OA
BRANCH  11  12
ATOM     12  C   UNL     1       3.752  -2.554  26.805  0.00  0.00    +0.282 C 
ATOM     13  O   UNL     1       2.561  -2.261  26.039  0.00  0.00    -0.341 OA
ATOM     14  C   UNL     1       1.278  -2.257  26.711  0.00  0.00    +0.178 C 
ATOM     15  C   UNL     1       1.087  -3.283  27.864  0.00  0.00    +0.177 C 
ATOM     16  C   UNL     1       2.394  -3.694  28.547  0.00  0.00    +0.179 C 
ATOM     17  C   UNL     1       3.493  -3.902  27.498  0.00  0.00    +0.201 C 
BRANCH  17  18
ATOM     18  O   UNL     1       3.095  -4.922  26.562  0.00  0.00    -0.384 OA
ATOM     19  H   UNL     1       2.565  -4.490  25.859  0.00  0.00    +0.210 HD
ENDBRANCH  17  18
BRANCH  16  20
ATOM     20  O   UNL     1       2.787  -2.745  29.534  0.00  0.00    -0.386 OA
ATOM     21  H   UNL     1       3.674  -3.002  29.877  0.00  0.00    +0.210 HD
ENDBRANCH  16  20
BRANCH  15  22
ATOM     22  O   UNL     1       0.453  -4.461  27.322  0.00  0.00    -0.386 OA
ATOM     23  H   UNL     1      -0.512  -4.300  27.274  0.00  0.00    +0.210 HD
ENDBRANCH  15  22
BRANCH  14  24
ATOM     24  C   UNL     1       0.926  -0.813  27.092  0.00  0.00    +0.190 C 
BRANCH  24  25
ATOM     25  O   UNL     1       1.584  -0.412  28.289  0.00  0.00    -0.392 OA
ATOM     26  H   UNL     1       1.329  -1.096  28.951  0.00  0.00    +0.210 HD
ENDBRANCH  24  25
ENDBRANCH  14  24
ENDBRANCH  11  12
ENDBRANCH   6  11
BRANCH   3  27
ATOM     27  C   UNL     1       6.873   2.410  25.771  0.00  0.00    +0.190 C 
BRANCH  27  28
ATOM     28  O   UNL     1       7.953   1.572  26.193  0.00  0.00    -0.392 OA
ATOM     29  H   UNL     1       8.784   1.957  25.864  0.00  0.00    +0.210 HD
ENDBRANCH  27  28
ENDBRANCH   3  27
BRANCH   1  30
ATOM     30  O   UNL     1       7.250  -1.091  26.107  0.00  0.00    -0.453 OA
BRANCH  30  41
ATOM     31  C   UNL     1       8.253  -1.728  23.978  0.00  0.00    +0.181 A 
ATOM     32  O   UNL     1       8.283  -2.714  22.932  0.00  0.00    -0.451 OA
ATOM     33  C   UNL     1       7.452  -3.825  23.026  0.00  0.00    +0.147 A 
ATOM     34  C   UNL     1       6.925  -4.247  24.253  0.00  0.00    +0.109 A 
ATOM     35  C   UNL     1       6.077  -5.366  24.360  0.00  0.00    +0.135 A 
ATOM     36  C   UNL     1       5.737  -6.085  23.227  0.00  0.00    +0.091 A 
ATOM     37  C   UNL     1       6.255  -5.696  22.003  0.00  0.00    +0.124 A 
ATOM     38  C   UNL     1       7.312  -3.463  25.396  0.00  0.00    +0.238 A 
ATOM     39  O   UNL     1       7.326  -3.959  26.526  0.00  0.00    -0.283 OA
ATOM     40  C   UNL     1       7.107  -4.575  21.887  0.00  0.00    +0.092 A 
ATOM     41  C   UNL     1       7.612  -2.014  25.141  0.00  0.00    +0.214 A 
BRANCH  31  43
ATOM     42  C   UNL     1      10.176  -0.025  24.355  0.00  0.00    +0.015 A 
ATOM     43  C   UNL     1       9.005  -0.419  23.659  0.00  0.00    +0.025 A 
ATOM     44  C   UNL     1       8.547   0.529  22.715  0.00  0.00    +0.060 A 
ATOM     45  C   UNL     1       9.224   1.737  22.456  0.00  0.00    +0.159 A 
ATOM     46  C   UNL     1      10.367   2.091  23.160  0.00  0.00    +0.158 A 
ATOM     47  C   UNL     1      10.848   1.219  24.117  0.00  0.00    +0.050 A 
BRANCH  46  48
ATOM     48  O   UNL     1      10.938   3.298  22.865  0.00  0.00    -0.503 OA
ATOM     49  H   UNL     1      10.894   3.879  23.645  0.00  0.00    +0.292 HD
ENDBRANCH  46  48
BRANCH  45  50
ATOM     50  O   UNL     1       8.740   2.600  21.506  0.00  0.00    -0.503 OA
ATOM     51  H   UNL     1       8.865   3.493  21.891  0.00  0.00    +0.292 HD
ENDBRANCH  45  50
ENDBRANCH  31  43
BRANCH  37  52
ATOM     52  O   UNL     1       5.927  -6.412  20.883  0.00  0.00    -0.507 OA
ATOM     53  H   UNL     1       4.976  -6.306  20.697  0.00  0.00    +0.292 HD
ENDBRANCH  37  52
BRANCH  35  54
ATOM     54  O   UNL     1       5.479  -5.809  25.499  0.00  0.00    -0.506 OA
ATOM     55  H   UNL     1       4.538  -6.040  25.357  0.00  0.00    +0.292 HD
ENDBRANCH  35  54
ENDBRANCH  30  41
ENDBRANCH   1  30
TORSDOF 18
ENDMDL
MODEL 8
REMARK VINA RESULT:      -6.0      2.463      7.518
REMARK  Name = 
REMARK  18 active torsions:
REMARK  status: ('A' for Active; 'I' for Inactive)
REMARK    1  A    between atoms: C_3  and  O_54
REMARK    2  A    between atoms: C_4  and  O_53
REMARK    3  A    between atoms: C_6  and  C_7
REMARK    4  A    between atoms: C_8  and  O_20
REMARK    5  A    between atoms: C_12  and  O_19
REMARK    6  A    between atoms: C_14  and  O_18
REMARK    7  A    between atoms: O_20  and  C_21
REMARK    8  A    between atoms: C_23  and  O_36
REMARK    9  A    between atoms: C_25  and  O_35
REMARK   10  A    between atoms: C_27  and  O_34
REMARK   11  A    between atoms: C_29  and  C_32
REMARK   12  A    between atoms: C_32  and  O_33
REMARK   13  A    between atoms: O_36  and  C_37
REMARK   14  A    between atoms: C_39  and  O_52
REMARK   15  A    between atoms: C_41  and  O_51
REMARK   16  A    between atoms: C_43  and  O_50
REMARK   17  A    between atoms: C_45  and  C_48
REMARK   18  A    between atoms: C_48  and  O_49
REMARK                            x       y       z     vdW  Elec       q    Type
REMARK                         _______ _______ _______ _____ _____    ______ ____
ROOT
ATOM      1  C   UNL     1       5.859  -0.437  25.954  0.00  0.00    +0.340 C 
ATOM      2  O   UNL     1       4.731   0.334  25.541  0.00  0.00    -0.331 OA
ATOM      3  C   UNL     1       3.706   0.690  26.460  0.00  0.00    +0.179 C 
ATOM      4  C   UNL     1       3.399  -0.447  27.437  0.00  0.00    +0.177 C 
ATOM      5  C   UNL     1       4.668  -1.030  28.083  0.00  0.00    +0.180 C 
ATOM      6  C   UNL     1       5.734  -1.510  27.096  0.00  0.00    +0.221 C 
ENDROOT
BRANCH   5   7
ATOM      7  O   UNL     1       5.249  -0.056  28.963  0.00  0.00    -0.386 OA
ATOM      8  H   UNL     1       4.605   0.662  29.127  0.00  0.00    +0.210 HD
ENDBRANCH   5   7
BRANCH   4   9
ATOM      9  O   UNL     1       2.621  -1.395  26.705  0.00  0.00    -0.386 OA
ATOM     10  H   UNL     1       2.209  -1.025  25.903  0.00  0.00    +0.210 HD
ENDBRANCH   4   9
BRANCH   6  11
ATOM     11  O   UNL     1       5.545  -2.855  26.582  0.00  0.00    -0.337 OA
BRANCH  11  12
ATOM     12  C   UNL     1       6.386  -3.903  27.120  0.00  0.00    +0.282 C 
ATOM     13  O   UNL     1       6.650  -4.955  26.164  0.00  0.00    -0.341 OA
ATOM     14  C   UNL     1       5.561  -5.820  25.755  0.00  0.00    +0.178 C 
ATOM     15  C   UNL     1       4.491  -6.156  26.831  0.00  0.00    +0.177 C 
ATOM     16  C   UNL     1       4.355  -5.091  27.922  0.00  0.00    +0.179 C 
ATOM     17  C   UNL     1       5.742  -4.585  28.339  0.00  0.00    +0.201 C 
BRANCH  17  18
ATOM     18  O   UNL     1       6.539  -5.680  28.829  0.00  0.00    -0.384 OA
ATOM     19  H   UNL     1       6.315  -5.811  29.774  0.00  0.00    +0.210 HD
ENDBRANCH  17  18
BRANCH  16  20
ATOM     20  O   UNL     1       3.513  -4.021  27.502  0.00  0.00    -0.386 OA
ATOM     21  H   UNL     1       2.648  -4.398  27.218  0.00  0.00    +0.210 HD
ENDBRANCH  16  20
BRANCH  15  22
ATOM     22  O   UNL     1       4.848  -7.412  27.448  0.00  0.00    -0.386 OA
ATOM     23  H   UNL     1       4.116  -7.688  28.037  0.00  0.00    +0.210 HD
ENDBRANCH  15  22
BRANCH  14  24
ATOM     24  C   UNL     1       4.981  -5.291  24.437  0.00  0.00    +0.190 C 
BRANCH  24  25
ATOM     25  O   UNL     1       5.426  -6.058  23.324  0.00  0.00    -0.392 OA
ATOM     26  H   UNL     1       4.721  -6.734  23.193  0.00  0.00    +0.210 HD
ENDBRANCH  24  25
ENDBRANCH  14  24
ENDBRANCH  11  12
ENDBRANCH   6  11
BRANCH   3  27
ATOM     27  C   UNL     1       3.918   2.068  27.110  0.00  0.00    +0.190 C 
BRANCH  27  28
ATOM     28  O   UNL     1       5.269   2.244  27.549  0.00  0.00    -0.392 OA
ATOM     29  H   UNL     1       5.273   2.265  28.522  0.00  0.00    +0.210 HD
ENDBRANCH  27  28
ENDBRANCH   3  27
BRANCH   1  30
ATOM     30  O   UNL     1       6.963   0.448  26.328  0.00  0.00    -0.453 OA
BRANCH  30  41
ATOM     31  C   UNL     1       8.383   0.273  24.353  0.00  0.00    +0.181 A 
ATOM     32  O   UNL     1       9.270   0.977  23.467  0.00  0.00    -0.451 OA
ATOM     33  C   UNL     1       9.527   2.324  23.698  0.00  0.00    +0.147 A 
ATOM     34  C   UNL     1       8.660   3.118  24.459  0.00  0.00    +0.109 A 
ATOM     35  C   UNL     1       8.914   4.481  24.706  0.00  0.00    +0.135 A 
ATOM     36  C   UNL     1      10.054   5.075  24.192  0.00  0.00    +0.091 A 
ATOM     37  C   UNL     1      10.922   4.315  23.426  0.00  0.00    +0.124 A 
ATOM     38  C   UNL     1       7.492   2.448  24.967  0.00  0.00    +0.238 A 
ATOM     39  O   UNL     1       6.463   3.082  25.223  0.00  0.00    -0.283 OA
ATOM     40  C   UNL     1      10.673   2.947  23.173  0.00  0.00    +0.092 A 
ATOM     41  C   UNL     1       7.629   0.978  25.237  0.00  0.00    +0.214 A 
BRANCH  31  43
ATOM     42  C   UNL     1       9.141  -2.127  24.988  0.00  0.00    +0.015 A 
ATOM     43  C   UNL     1       8.369  -1.259  24.175  0.00  0.00    +0.025 A 
ATOM     44  C   UNL     1       7.659  -1.914  23.142  0.00  0.00    +0.060 A 
ATOM     45  C   UNL     1       7.681  -3.313  22.969  0.00  0.00    +0.159 A 
ATOM     46  C   UNL     1       8.452  -4.131  23.783  0.00  0.00    +0.158 A 
ATOM     47  C   UNL     1       9.192  -3.546  24.793  0.00  0.00    +0.050 A 
BRANCH  46  48
ATOM     48  O   UNL     1       8.438  -5.473  23.520  0.00  0.00    -0.503 OA
ATOM     49  H   UNL     1       7.528  -5.810  23.598  0.00  0.00    +0.292 HD
ENDBRANCH  46  48
BRANCH  45  50
ATOM     50  O   UNL     1       6.946  -3.886  21.963  0.00  0.00    -0.503 OA
ATOM     51  H   UNL     1       7.596  -4.400  21.438  0.00  0.00    +0.292 HD
ENDBRANCH  45  50
ENDBRANCH  31  43
BRANCH  37  52
ATOM     52  O   UNL     1      12.045   4.903  22.910  0.00  0.00    -0.507 OA
ATOM     53  H   UNL     1      12.753   4.238  22.830  0.00  0.00    +0.292 HD
ENDBRANCH  37  52
BRANCH  35  54
ATOM     54  O   UNL     1       8.157   5.308  25.477  0.00  0.00    -0.506 OA
ATOM     55  H   UNL     1       8.648   5.639  26.257  0.00  0.00    +0.292 HD
ENDBRANCH  35  54
ENDBRANCH  30  41
ENDBRANCH   1  30
TORSDOF 18
ENDMDL
MODEL 9
REMARK VINA RESULT:      -6.0      2.336      7.567
REMARK  Name = 
REMARK  18 active torsions:
REMARK  status: ('A' for Active; 'I' for Inactive)
REMARK    1  A    between atoms: C_3  and  O_54
REMARK    2  A    between atoms: C_4  and  O_53
REMARK    3  A    between atoms: C_6  and  C_7
REMARK    4  A    between atoms: C_8  and  O_20
REMARK    5  A    between atoms: C_12  and  O_19
REMARK    6  A    between atoms: C_14  and  O_18
REMARK    7  A    between atoms: O_20  and  C_21
REMARK    8  A    between atoms: C_23  and  O_36
REMARK    9  A    between atoms: C_25  and  O_35
REMARK   10  A    between atoms: C_27  and  O_34
REMARK   11  A    between atoms: C_29  and  C_32
REMARK   12  A    between atoms: C_32  and  O_33
REMARK   13  A    between atoms: O_36  and  C_37
REMARK   14  A    between atoms: C_39  and  O_52
REMARK   15  A    between atoms: C_41  and  O_51
REMARK   16  A    between atoms: C_43  and  O_50
REMARK   17  A    between atoms: C_45  and  C_48
REMARK   18  A    between atoms: C_48  and  O_49
REMARK                            x       y       z     vdW  Elec       q    Type
REMARK                         _______ _______ _______ _____ _____    ______ ____
ROOT
ATOM      1  C   UNL     1       5.815  -0.805  26.151  0.00  0.00    +0.340 C 
ATOM      2  O   UNL     1       5.598   0.358  25.351  0.00  0.00    -0.331 OA
ATOM      3  C   UNL     1       5.572   1.656  25.931  0.00  0.00    +0.179 C 
ATOM      4  C   UNL     1       4.871   1.657  27.292  0.00  0.00    +0.177 C 
ATOM      5  C   UNL     1       5.388   0.546  28.223  0.00  0.00    +0.180 C 
ATOM      6  C   UNL     1       5.322  -0.867  27.641  0.00  0.00    +0.221 C 
ENDROOT
BRANCH   5   7
ATOM      7  O   UNL     1       6.741   0.833  28.607  0.00  0.00    -0.386 OA
ATOM      8  H   UNL     1       7.137   0.044  29.027  0.00  0.00    +0.210 HD
ENDBRANCH   5   7
BRANCH   4   9
ATOM      9  O   UNL     1       3.472   1.589  27.013  0.00  0.00    -0.386 OA
ATOM     10  H   UNL     1       3.073   2.454  26.808  0.00  0.00    +0.210 HD
ENDBRANCH   4   9
BRANCH   6  11
ATOM     11  O   UNL     1       4.042  -1.538  27.780  0.00  0.00    -0.337 OA
BRANCH  11  12
ATOM     12  C   UNL     1       3.354  -1.416  29.049  0.00  0.00    +0.282 C 
ATOM     13  O   UNL     1       3.804  -2.383  30.025  0.00  0.00    -0.341 OA
ATOM     14  C   UNL     1       3.501  -3.785  29.815  0.00  0.00    +0.178 C 
ATOM     15  C   UNL     1       2.143  -4.114  29.134  0.00  0.00    +0.177 C 
ATOM     16  C   UNL     1       1.616  -2.995  28.232  0.00  0.00    +0.179 C 
ATOM     17  C   UNL     1       1.839  -1.632  28.900  0.00  0.00    +0.201 C 
BRANCH  17  18
ATOM     18  O   UNL     1       1.161  -1.590  30.170  0.00  0.00    -0.384 OA
ATOM     19  H   UNL     1       1.272  -2.465  30.597  0.00  0.00    +0.210 HD
ENDBRANCH  17  18
BRANCH  16  20
ATOM     20  O   UNL     1       2.212  -3.046  26.939  0.00  0.00    -0.386 OA
ATOM     21  H   UNL     1       2.646  -2.178  26.762  0.00  0.00    +0.210 HD
ENDBRANCH  16  20
BRANCH  15  22
ATOM     22  O   UNL     1       1.170  -4.377  30.168  0.00  0.00    -0.386 OA
ATOM     23  H   UNL     1       0.308  -4.564  29.743  0.00  0.00    +0.210 HD
ENDBRANCH  15  22
BRANCH  14  24
ATOM     24  C   UNL     1       4.713  -4.456  29.155  0.00  0.00    +0.190 C 
BRANCH  24  25
ATOM     25  O   UNL     1       4.639  -4.389  27.735  0.00  0.00    -0.392 OA
ATOM     26  H   UNL     1       4.741  -3.431  27.528  0.00  0.00    +0.210 HD
ENDBRANCH  24  25
ENDBRANCH  14  24
ENDBRANCH  11  12
ENDBRANCH   6  11
BRANCH   3  27
ATOM     27  C   UNL     1       6.936   2.368  25.901  0.00  0.00    +0.190 C 
BRANCH  27  28
ATOM     28  O   UNL     1       7.996   1.497  26.310  0.00  0.00    -0.392 OA
ATOM     29  H   UNL     1       8.798   1.741  25.816  0.00  0.00    +0.210 HD
ENDBRANCH  27  28
ENDBRANCH   3  27
BRANCH   1  30
ATOM     30  O   UNL     1       7.238  -1.147  26.163  0.00  0.00    -0.453 OA
BRANCH  30  41
ATOM     31  C   UNL     1       8.220  -1.780  24.023  0.00  0.00    +0.181 A 
ATOM     32  O   UNL     1       8.235  -2.760  22.971  0.00  0.00    -0.451 OA
ATOM     33  C   UNL     1       7.396  -3.866  23.065  0.00  0.00    +0.147 A 
ATOM     34  C   UNL     1       6.876  -4.290  24.295  0.00  0.00    +0.109 A 
ATOM     35  C   UNL     1       6.021  -5.403  24.402  0.00  0.00    +0.135 A 
ATOM     36  C   UNL     1       5.667  -6.114  23.267  0.00  0.00    +0.091 A 
ATOM     37  C   UNL     1       6.178  -5.722  22.041  0.00  0.00    +0.124 A 
ATOM     38  C   UNL     1       7.277  -3.515  25.439  0.00  0.00    +0.238 A 
ATOM     39  O   UNL     1       7.296  -4.017  26.566  0.00  0.00    -0.283 OA
ATOM     40  C   UNL     1       7.037  -4.607  21.926  0.00  0.00    +0.092 A 
ATOM     41  C   UNL     1       7.586  -2.067  25.189  0.00  0.00    +0.214 A 
BRANCH  31  43
ATOM     42  C   UNL     1      10.159  -0.094  24.392  0.00  0.00    +0.015 A 
ATOM     43  C   UNL     1       8.978  -0.474  23.705  0.00  0.00    +0.025 A 
ATOM     44  C   UNL     1       8.518   0.484  22.772  0.00  0.00    +0.060 A 
ATOM     45  C   UNL     1       9.203   1.689  22.515  0.00  0.00    +0.159 A 
ATOM     46  C   UNL     1      10.355   2.029  23.210  0.00  0.00    +0.158 A 
ATOM     47  C   UNL     1      10.839   1.147  24.156  0.00  0.00    +0.050 A 
BRANCH  46  48
ATOM     48  O   UNL     1      10.933   3.234  22.917  0.00  0.00    -0.503 OA
ATOM     49  H   UNL     1      11.666   3.402  23.534  0.00  0.00    +0.292 HD
ENDBRANCH  46  48
BRANCH  45  50
ATOM     50  O   UNL     1       8.716   2.561  21.575  0.00  0.00    -0.503 OA
ATOM     51  H   UNL     1       7.761   2.646  21.783  0.00  0.00    +0.292 HD
ENDBRANCH  45  50
ENDBRANCH  31  43
BRANCH  37  52
ATOM     52  O   UNL     1       5.836  -6.429  20.920  0.00  0.00    -0.507 OA
ATOM     53  H   UNL     1       5.820  -7.381  21.130  0.00  0.00    +0.292 HD
ENDBRANCH  37  52
BRANCH  35  54
ATOM     54  O   UNL     1       5.428  -5.848  25.543  0.00  0.00    -0.506 OA
ATOM     55  H   UNL     1       4.831  -6.607  25.379  0.00  0.00    +0.292 HD
ENDBRANCH  35  54
ENDBRANCH  30  41
ENDBRANCH   1  30
TORSDOF 18
ENDMDL
