MODEL 1
REMARK VINA RESULT:      -7.0      0.000      0.000
REMARK  Name = 
REMARK  17 active torsions:
REMARK  status: ('A' for Active; 'I' for Inactive)
REMARK    1  A    between atoms: C_1  and  C_2
REMARK    2  A    between atoms: C_4  and  O_53
REMARK    3  A    between atoms: C_6  and  O_52
REMARK    4  A    between atoms: C_8  and  O_51
REMARK    5  A    between atoms: C_10  and  O_13
REMARK    6  A    between atoms: O_13  and  C_14
REMARK    7  A    between atoms: C_16  and  O_50
REMARK    8  A    between atoms: C_18  and  O_49
REMARK    9  A    between atoms: C_20  and  C_47
REMARK   10  A    between atoms: C_23  and  O_25
REMARK   11  A    between atoms: O_25  and  C_26
REMARK   12  A    between atoms: C_27  and  C_39
REMARK   13  A    between atoms: C_31  and  O_38
REMARK   14  A    between atoms: C_33  and  O_37
REMARK   15  A    between atoms: C_41  and  O_46
REMARK   16  A    between atoms: C_42  and  O_45
REMARK   17  A    between atoms: C_47  and  O_48
REMARK                            x       y       z     vdW  Elec       q    Type
REMARK                         _______ _______ _______ _____ _____    ______ ____
ROOT
ATOM      1  C   UNL     1       7.844   0.998  22.592  0.00  0.00    +0.221 C 
ATOM      2  C   UNL     1       7.325  -0.425  22.951  0.00  0.00    +0.340 C 
ATOM      3  O   UNL     1       8.369  -1.101  23.695  0.00  0.00    -0.331 OA
ATOM      4  C   UNL     1       9.491  -1.395  22.826  0.00  0.00    +0.179 C 
ATOM      5  C   UNL     1      10.200  -0.073  22.484  0.00  0.00    +0.177 C 
ATOM      6  C   UNL     1       9.177   0.840  21.812  0.00  0.00    +0.180 C 
ENDROOT
BRANCH   6   7
ATOM      7  O   UNL     1       9.719   2.117  21.480  0.00  0.00    -0.386 OA
ATOM      8  H   UNL     1       9.203   2.424  20.711  0.00  0.00    +0.210 HD
ENDBRANCH   6   7
BRANCH   5   9
ATOM      9  O   UNL     1      10.773   0.522  23.652  0.00  0.00    -0.386 OA
ATOM     10  H   UNL     1      10.278   1.333  23.846  0.00  0.00    +0.210 HD
ENDBRANCH   5   9
BRANCH   4  11
ATOM     11  C   UNL     1      10.460  -2.398  23.455  0.00  0.00    +0.190 C 
BRANCH  11  12
ATOM     12  O   UNL     1       9.739  -3.424  24.143  0.00  0.00    -0.392 OA
ATOM     13  H   UNL     1       9.657  -4.181  23.535  0.00  0.00    +0.210 HD
ENDBRANCH  11  12
ENDBRANCH   4  11
BRANCH   2  14
ATOM     14  O   UNL     1       6.071  -0.365  23.667  0.00  0.00    -0.453 OA
BRANCH  14  15
ATOM     15  C   UNL     1       5.760  -1.423  24.535  0.00  0.00    +0.214 A 
ATOM     16  C   UNL     1       5.555  -2.833  24.024  0.00  0.00    +0.238 A 
ATOM     17  O   UNL     1       5.284  -3.076  22.857  0.00  0.00    -0.283 OA
ATOM     18  C   UNL     1       5.575  -3.938  24.999  0.00  0.00    +0.109 A 
ATOM     19  C   UNL     1       5.444  -3.599  26.332  0.00  0.00    +0.147 A 
ATOM     20  C   UNL     1       5.400  -4.584  27.325  0.00  0.00    +0.092 A 
ATOM     21  C   UNL     1       5.481  -5.924  26.956  0.00  0.00    +0.124 A 
ATOM     22  C   UNL     1       5.593  -6.284  25.619  0.00  0.00    +0.091 A 
ATOM     23  O   UNL     1       5.301  -2.306  26.744  0.00  0.00    -0.451 OA
ATOM     24  C   UNL     1       5.643  -5.291  24.642  0.00  0.00    +0.135 A 
ATOM     25  C   UNL     1       5.558  -1.246  25.871  0.00  0.00    +0.181 A 
BRANCH  25  26
ATOM     26  C   UNL     1       5.491   0.050  26.638  0.00  0.00    +0.025 A 
ATOM     27  C   UNL     1       4.219   0.634  26.878  0.00  0.00    +0.015 A 
ATOM     28  C   UNL     1       4.070   1.924  27.404  0.00  0.00    +0.050 A 
ATOM     29  C   UNL     1       5.200   2.645  27.729  0.00  0.00    +0.158 A 
ATOM     30  C   UNL     1       6.462   2.088  27.553  0.00  0.00    +0.159 A 
ATOM     31  C   UNL     1       6.615   0.805  27.008  0.00  0.00    +0.060 A 
BRANCH  30  32
ATOM     32  O   UNL     1       7.538   2.854  27.914  0.00  0.00    -0.503 OA
ATOM     33  H   UNL     1       8.355   2.358  27.707  0.00  0.00    +0.292 HD
ENDBRANCH  30  32
BRANCH  29  34
ATOM     34  O   UNL     1       5.062   3.921  28.197  0.00  0.00    -0.503 OA
ATOM     35  H   UNL     1       4.100   4.026  28.341  0.00  0.00    +0.292 HD
ENDBRANCH  29  34
ENDBRANCH  25  26
BRANCH  24  36
ATOM     36  O   UNL     1       5.764  -5.666  23.333  0.00  0.00    -0.506 OA
ATOM     37  H   UNL     1       6.429  -5.120  22.884  0.00  0.00    +0.292 HD
ENDBRANCH  24  36
BRANCH  21  38
ATOM     38  O   UNL     1       5.447  -6.925  27.877  0.00  0.00    -0.507 OA
ATOM     39  H   UNL     1       4.938  -7.674  27.524  0.00  0.00    +0.292 HD
ENDBRANCH  21  38
ENDBRANCH  14  15
ENDBRANCH   2  14
BRANCH   1  40
ATOM     40  O   UNL     1       6.912   1.854  21.874  0.00  0.00    -0.337 OA
BRANCH  40  44
ATOM     41  C   UNL     1       7.155   6.051  22.057  0.00  0.00    +0.041 C 
ATOM     42  C   UNL     1       7.671   5.156  23.182  0.00  0.00    +0.149 C 
ATOM     43  O   UNL     1       7.808   3.809  22.755  0.00  0.00    -0.343 OA
ATOM     44  C   UNL     1       6.605   3.099  22.506  0.00  0.00    +0.282 C 
ATOM     45  C   UNL     1       5.893   2.890  23.850  0.00  0.00    +0.201 C 
ATOM     46  C   UNL     1       5.635   4.275  24.490  0.00  0.00    +0.179 C 
ATOM     47  C   UNL     1       6.900   5.160  24.508  0.00  0.00    +0.174 C 
BRANCH  47  48
ATOM     48  O   UNL     1       7.782   4.628  25.519  0.00  0.00    -0.387 OA
ATOM     49  H   UNL     1       7.233   4.316  26.268  0.00  0.00    +0.210 HD
ENDBRANCH  47  48
BRANCH  46  50
ATOM     50  O   UNL     1       4.527   4.906  23.830  0.00  0.00    -0.386 OA
ATOM     51  H   UNL     1       4.395   5.811  24.155  0.00  0.00    +0.210 HD
ENDBRANCH  46  50
BRANCH  45  52
ATOM     52  O   UNL     1       4.654   2.178  23.688  0.00  0.00    -0.384 OA
ATOM     53  H   UNL     1       4.805   1.518  22.979  0.00  0.00    +0.210 HD
ENDBRANCH  45  52
ENDBRANCH  40  44
ENDBRANCH   1  40
TORSDOF 16
ENDMDL
MODEL 2
REMARK VINA RESULT:      -6.7      1.879      4.884
REMARK  Name = 
REMARK  17 active torsions:
REMARK  status: ('A' for Active; 'I' for Inactive)
REMARK    1  A    between atoms: C_1  and  C_2
REMARK    2  A    between atoms: C_4  and  O_53
REMARK    3  A    between atoms: C_6  and  O_52
REMARK    4  A    between atoms: C_8  and  O_51
REMARK    5  A    between atoms: C_10  and  O_13
REMARK    6  A    between atoms: O_13  and  C_14
REMARK    7  A    between atoms: C_16  and  O_50
REMARK    8  A    between atoms: C_18  and  O_49
REMARK    9  A    between atoms: C_20  and  C_47
REMARK   10  A    between atoms: C_23  and  O_25
REMARK   11  A    between atoms: O_25  and  C_26
REMARK   12  A    between atoms: C_27  and  C_39
REMARK   13  A    between atoms: C_31  and  O_38
REMARK   14  A    between atoms: C_33  and  O_37
REMARK   15  A    between atoms: C_41  and  O_46
REMARK   16  A    between atoms: C_42  and  O_45
REMARK   17  A    between atoms: C_47  and  O_48
REMARK                            x       y       z     vdW  Elec       q    Type
REMARK                         _______ _______ _______ _____ _____    ______ ____
ROOT
ATOM      1  C   UNL     1       6.574   2.171  26.230  0.00  0.00    +0.221 C 
ATOM      2  C   UNL     1       6.077   0.698  26.148  0.00  0.00    +0.340 C 
ATOM      3  O   UNL     1       4.941   0.565  27.039  0.00  0.00    -0.331 OA
ATOM      4  C   UNL     1       5.376   0.665  28.418  0.00  0.00    +0.179 C 
ATOM      5  C   UNL     1       5.782   2.123  28.696  0.00  0.00    +0.177 C 
ATOM      6  C   UNL     1       6.895   2.487  27.715  0.00  0.00    +0.180 C 
ENDROOT
BRANCH   6   7
ATOM      7  O   UNL     1       7.329   3.838  27.859  0.00  0.00    -0.386 OA
ATOM      8  H   UNL     1       7.942   3.992  27.116  0.00  0.00    +0.210 HD
ENDBRANCH   6   7
BRANCH   5   9
ATOM      9  O   UNL     1       4.657   3.000  28.590  0.00  0.00    -0.386 OA
ATOM     10  H   UNL     1       3.942   2.634  29.132  0.00  0.00    +0.210 HD
ENDBRANCH   5   9
BRANCH   4  11
ATOM     11  C   UNL     1       4.299   0.192  29.397  0.00  0.00    +0.190 C 
BRANCH  11  12
ATOM     12  O   UNL     1       3.001   0.572  28.933  0.00  0.00    -0.392 OA
ATOM     13  H   UNL     1       2.700  -0.116  28.313  0.00  0.00    +0.210 HD
ENDBRANCH  11  12
ENDBRANCH   4  11
BRANCH   2  14
ATOM     14  O   UNL     1       5.772   0.318  24.787  0.00  0.00    -0.453 OA
BRANCH  14  15
ATOM     15  C   UNL     1       6.112  -0.980  24.376  0.00  0.00    +0.214 A 
ATOM     16  C   UNL     1       5.178  -2.150  24.597  0.00  0.00    +0.238 A 
ATOM     17  O   UNL     1       4.286  -2.131  25.432  0.00  0.00    -0.283 OA
ATOM     18  C   UNL     1       5.432  -3.395  23.850  0.00  0.00    +0.109 A 
ATOM     19  C   UNL     1       6.676  -3.531  23.263  0.00  0.00    +0.147 A 
ATOM     20  C   UNL     1       7.027  -4.700  22.579  0.00  0.00    +0.092 A 
ATOM     21  C   UNL     1       6.107  -5.742  22.500  0.00  0.00    +0.124 A 
ATOM     22  C   UNL     1       4.859  -5.632  23.100  0.00  0.00    +0.091 A 
ATOM     23  O   UNL     1       7.636  -2.566  23.362  0.00  0.00    -0.451 OA
ATOM     24  C   UNL     1       4.521  -4.457  23.772  0.00  0.00    +0.135 A 
ATOM     25  C   UNL     1       7.317  -1.285  23.819  0.00  0.00    +0.181 A 
BRANCH  25  26
ATOM     26  C   UNL     1       8.520  -0.392  23.656  0.00  0.00    +0.025 A 
ATOM     27  C   UNL     1       9.454  -0.306  24.723  0.00  0.00    +0.015 A 
ATOM     28  C   UNL     1      10.488   0.638  24.744  0.00  0.00    +0.050 A 
ATOM     29  C   UNL     1      10.625   1.501  23.676  0.00  0.00    +0.158 A 
ATOM     30  C   UNL     1       9.758   1.416  22.592  0.00  0.00    +0.159 A 
ATOM     31  C   UNL     1       8.710   0.485  22.577  0.00  0.00    +0.060 A 
BRANCH  30  32
ATOM     32  O   UNL     1       9.963   2.291  21.559  0.00  0.00    -0.503 OA
ATOM     33  H   UNL     1       9.964   3.201  21.918  0.00  0.00    +0.292 HD
ENDBRANCH  30  32
BRANCH  29  34
ATOM     34  O   UNL     1      11.601   2.455  23.713  0.00  0.00    -0.503 OA
ATOM     35  H   UNL     1      12.126   2.299  22.902  0.00  0.00    +0.292 HD
ENDBRANCH  29  34
ENDBRANCH  25  26
BRANCH  24  36
ATOM     36  O   UNL     1       3.285  -4.365  24.348  0.00  0.00    -0.506 OA
ATOM     37  H   UNL     1       3.362  -4.351  25.315  0.00  0.00    +0.292 HD
ENDBRANCH  24  36
BRANCH  21  38
ATOM     38  O   UNL     1       6.390  -6.901  21.844  0.00  0.00    -0.507 OA
ATOM     39  H   UNL     1       5.621  -7.169  21.313  0.00  0.00    +0.292 HD
ENDBRANCH  21  38
ENDBRANCH  14  15
ENDBRANCH   2  14
BRANCH   1  40
ATOM     40  O   UNL     1       7.691   2.515  25.365  0.00  0.00    -0.337 OA
BRANCH  40  44
ATOM     41  C   UNL     1       8.961   6.210  23.801  0.00  0.00    +0.041 C 
ATOM     42  C   UNL     1       7.652   6.060  24.574  0.00  0.00    +0.149 C 
ATOM     43  O   UNL     1       7.610   4.836  25.294  0.00  0.00    -0.343 OA
ATOM     44  C   UNL     1       7.492   3.653  24.522  0.00  0.00    +0.282 C 
ATOM     45  C   UNL     1       6.096   3.643  23.881  0.00  0.00    +0.201 C 
ATOM     46  C   UNL     1       5.941   4.921  23.023  0.00  0.00    +0.179 C 
ATOM     47  C   UNL     1       6.341   6.199  23.792  0.00  0.00    +0.174 C 
BRANCH  47  48
ATOM     48  O   UNL     1       5.295   6.467  24.750  0.00  0.00    -0.387 OA
ATOM     49  H   UNL     1       5.261   5.720  25.382  0.00  0.00    +0.210 HD
ENDBRANCH  47  48
BRANCH  46  50
ATOM     50  O   UNL     1       6.670   4.763  21.796  0.00  0.00    -0.386 OA
ATOM     51  H   UNL     1       6.718   3.830  21.535  0.00  0.00    +0.210 HD
ENDBRANCH  46  50
BRANCH  45  52
ATOM     52  O   UNL     1       5.893   2.472  23.071  0.00  0.00    -0.384 OA
ATOM     53  H   UNL     1       5.975   2.763  22.139  0.00  0.00    +0.210 HD
ENDBRANCH  45  52
ENDBRANCH  40  44
ENDBRANCH   1  40
TORSDOF 16
ENDMDL
MODEL 3
REMARK VINA RESULT:      -6.5      2.143      8.312
REMARK  Name = 
REMARK  17 active torsions:
REMARK  status: ('A' for Active; 'I' for Inactive)
REMARK    1  A    between atoms: C_1  and  C_2
REMARK    2  A    between atoms: C_4  and  O_53
REMARK    3  A    between atoms: C_6  and  O_52
REMARK    4  A    between atoms: C_8  and  O_51
REMARK    5  A    between atoms: C_10  and  O_13
REMARK    6  A    between atoms: O_13  and  C_14
REMARK    7  A    between atoms: C_16  and  O_50
REMARK    8  A    between atoms: C_18  and  O_49
REMARK    9  A    between atoms: C_20  and  C_47
REMARK   10  A    between atoms: C_23  and  O_25
REMARK   11  A    between atoms: O_25  and  C_26
REMARK   12  A    between atoms: C_27  and  C_39
REMARK   13  A    between atoms: C_31  and  O_38
REMARK   14  A    between atoms: C_33  and  O_37
REMARK   15  A    between atoms: C_41  and  O_46
REMARK   16  A    between atoms: C_42  and  O_45
REMARK   17  A    between atoms: C_47  and  O_48
REMARK                            x       y       z     vdW  Elec       q    Type
REMARK                         _______ _______ _______ _____ _____    ______ ____
ROOT
ATOM      1  C   UNL     1       4.329  -1.747  26.212  0.00  0.00    +0.221 C 
ATOM      2  C   UNL     1       5.065  -0.593  25.469  0.00  0.00    +0.340 C 
ATOM      3  O   UNL     1       5.759   0.200  26.464  0.00  0.00    -0.331 OA
ATOM      4  C   UNL     1       4.804   0.922  27.280  0.00  0.00    +0.179 C 
ATOM      5  C   UNL     1       4.075  -0.088  28.184  0.00  0.00    +0.177 C 
ATOM      6  C   UNL     1       3.397  -1.113  27.278  0.00  0.00    +0.180 C 
ENDROOT
BRANCH   6   7
ATOM      7  O   UNL     1       2.714  -2.126  28.015  0.00  0.00    -0.386 OA
ATOM      8  H   UNL     1       3.415  -2.635  28.464  0.00  0.00    +0.210 HD
ENDBRANCH   6   7
BRANCH   5   9
ATOM      9  O   UNL     1       4.980  -0.696  29.110  0.00  0.00    -0.386 OA
ATOM     10  H   UNL     1       5.626  -1.209  28.601  0.00  0.00    +0.210 HD
ENDBRANCH   5   9
BRANCH   4  11
ATOM     11  C   UNL     1       5.469   2.026  28.105  0.00  0.00    +0.190 C 
BRANCH  11  12
ATOM     12  O   UNL     1       6.777   1.622  28.517  0.00  0.00    -0.392 OA
ATOM     13  H   UNL     1       7.406   2.290  28.191  0.00  0.00    +0.210 HD
ENDBRANCH  11  12
ENDBRANCH   4  11
BRANCH   2  14
ATOM     14  O   UNL     1       5.945  -1.103  24.441  0.00  0.00    -0.453 OA
BRANCH  14  15
ATOM     15  C   UNL     1       7.122  -0.389  24.172  0.00  0.00    +0.214 A 
ATOM     16  C   UNL     1       7.091   0.946  23.459  0.00  0.00    +0.238 A 
ATOM     17  O   UNL     1       6.147   1.303  22.770  0.00  0.00    -0.283 OA
ATOM     18  C   UNL     1       8.297   1.793  23.513  0.00  0.00    +0.109 A 
ATOM     19  C   UNL     1       9.471   1.186  23.915  0.00  0.00    +0.147 A 
ATOM     20  C   UNL     1      10.676   1.897  23.946  0.00  0.00    +0.092 A 
ATOM     21  C   UNL     1      10.686   3.233  23.558  0.00  0.00    +0.124 A 
ATOM     22  C   UNL     1       9.519   3.856  23.133  0.00  0.00    +0.091 A 
ATOM     23  O   UNL     1       9.530  -0.136  24.248  0.00  0.00    -0.451 OA
ATOM     24  C   UNL     1       8.324   3.136  23.114  0.00  0.00    +0.135 A 
ATOM     25  C   UNL     1       8.361  -0.869  24.468  0.00  0.00    +0.181 A 
BRANCH  25  26
ATOM     26  C   UNL     1       8.730  -2.236  24.987  0.00  0.00    +0.025 A 
ATOM     27  C   UNL     1       9.672  -3.010  24.259  0.00  0.00    +0.015 A 
ATOM     28  C   UNL     1       9.927  -4.356  24.551  0.00  0.00    +0.050 A 
ATOM     29  C   UNL     1       9.259  -4.948  25.603  0.00  0.00    +0.158 A 
ATOM     30  C   UNL     1       8.363  -4.209  26.368  0.00  0.00    +0.159 A 
ATOM     31  C   UNL     1       8.092  -2.867  26.066  0.00  0.00    +0.060 A 
BRANCH  30  32
ATOM     32  O   UNL     1       7.750  -4.855  27.408  0.00  0.00    -0.503 OA
ATOM     33  H   UNL     1       7.829  -5.819  27.265  0.00  0.00    +0.292 HD
ENDBRANCH  30  32
BRANCH  29  34
ATOM     34  O   UNL     1       9.467  -6.272  25.862  0.00  0.00    -0.503 OA
ATOM     35  H   UNL     1       8.859  -6.738  25.254  0.00  0.00    +0.292 HD
ENDBRANCH  29  34
ENDBRANCH  25  26
BRANCH  24  36
ATOM     36  O   UNL     1       7.185   3.769  22.702  0.00  0.00    -0.506 OA
ATOM     37  H   UNL     1       7.307   4.732  22.722  0.00  0.00    +0.292 HD
ENDBRANCH  24  36
BRANCH  21  38
ATOM     38  O   UNL     1      11.826   3.977  23.572  0.00  0.00    -0.507 OA
ATOM     39  H   UNL     1      11.599   4.921  23.526  0.00  0.00    +0.292 HD
ENDBRANCH  21  38
ENDBRANCH  14  15
ENDBRANCH   2  14
BRANCH   1  40
ATOM     40  O   UNL     1       3.604  -2.686  25.370  0.00  0.00    -0.337 OA
BRANCH  40  44
ATOM     41  C   UNL     1       6.482  -4.896  23.239  0.00  0.00    +0.041 C 
ATOM     42  C   UNL     1       4.998  -5.253  23.211  0.00  0.00    +0.149 C 
ATOM     43  O   UNL     1       4.196  -4.186  23.696  0.00  0.00    -0.343 OA
ATOM     44  C   UNL     1       4.283  -3.912  25.085  0.00  0.00    +0.282 C 
ATOM     45  C   UNL     1       3.655  -5.093  25.840  0.00  0.00    +0.201 C 
ATOM     46  C   UNL     1       4.412  -6.384  25.448  0.00  0.00    +0.179 C 
ATOM     47  C   UNL     1       4.559  -6.540  23.920  0.00  0.00    +0.174 C 
BRANCH  47  48
ATOM     48  O   UNL     1       3.262  -6.897  23.398  0.00  0.00    -0.387 OA
ATOM     49  H   UNL     1       3.091  -7.835  23.622  0.00  0.00    +0.210 HD
ENDBRANCH  47  48
BRANCH  46  50
ATOM     50  O   UNL     1       5.674  -6.423  26.133  0.00  0.00    -0.386 OA
ATOM     51  H   UNL     1       6.304  -7.000  25.673  0.00  0.00    +0.210 HD
ENDBRANCH  46  50
BRANCH  45  52
ATOM     52  O   UNL     1       3.705  -4.899  27.264  0.00  0.00    -0.384 OA
ATOM     53  H   UNL     1       4.327  -4.157  27.420  0.00  0.00    +0.210 HD
ENDBRANCH  45  52
ENDBRANCH  40  44
ENDBRANCH   1  40
TORSDOF 16
ENDMDL
MODEL 4
REMARK VINA RESULT:      -6.5      2.041      7.333
REMARK  Name = 
REMARK  17 active torsions:
REMARK  status: ('A' for Active; 'I' for Inactive)
REMARK    1  A    between atoms: C_1  and  C_2
REMARK    2  A    between atoms: C_4  and  O_53
REMARK    3  A    between atoms: C_6  and  O_52
REMARK    4  A    between atoms: C_8  and  O_51
REMARK    5  A    between atoms: C_10  and  O_13
REMARK    6  A    between atoms: O_13  and  C_14
REMARK    7  A    between atoms: C_16  and  O_50
REMARK    8  A    between atoms: C_18  and  O_49
REMARK    9  A    between atoms: C_20  and  C_47
REMARK   10  A    between atoms: C_23  and  O_25
REMARK   11  A    between atoms: O_25  and  C_26
REMARK   12  A    between atoms: C_27  and  C_39
REMARK   13  A    between atoms: C_31  and  O_38
REMARK   14  A    between atoms: C_33  and  O_37
REMARK   15  A    between atoms: C_41  and  O_46
REMARK   16  A    between atoms: C_42  and  O_45
REMARK   17  A    between atoms: C_47  and  O_48
REMARK                            x       y       z     vdW  Elec       q    Type
REMARK                         _______ _______ _______ _____ _____    ______ ____
ROOT
ATOM      1  C   UNL     1       6.840  -3.221  25.417  0.00  0.00    +0.221 C 
ATOM      2  C   UNL     1       7.049  -1.732  25.015  0.00  0.00    +0.340 C 
ATOM      3  O   UNL     1       7.886  -1.707  23.832  0.00  0.00    -0.331 OA
ATOM      4  C   UNL     1       9.233  -2.125  24.166  0.00  0.00    +0.179 C 
ATOM      5  C   UNL     1       9.213  -3.635  24.464  0.00  0.00    +0.177 C 
ATOM      6  C   UNL     1       8.238  -3.865  25.617  0.00  0.00    +0.180 C 
ENDROOT
BRANCH   6   7
ATOM      7  O   UNL     1       8.113  -5.244  25.959  0.00  0.00    -0.386 OA
ATOM      8  H   UNL     1       8.759  -5.392  26.674  0.00  0.00    +0.210 HD
ENDBRANCH   6   7
BRANCH   5   9
ATOM      9  O   UNL     1       8.861  -4.386  23.298  0.00  0.00    -0.386 OA
ATOM     10  H   UNL     1       9.330  -5.233  23.338  0.00  0.00    +0.210 HD
ENDBRANCH   5   9
BRANCH   4  11
ATOM     11  C   UNL     1      10.231  -1.792  23.055  0.00  0.00    +0.190 C 
BRANCH  11  12
ATOM     12  O   UNL     1       9.608  -1.908  21.773  0.00  0.00    -0.392 OA
ATOM     13  H   UNL     1       8.645  -1.855  21.910  0.00  0.00    +0.210 HD
ENDBRANCH  11  12
ENDBRANCH   4  11
BRANCH   2  14
ATOM     14  O   UNL     1       5.786  -1.054  24.827  0.00  0.00    -0.453 OA
BRANCH  14  15
ATOM     15  C   UNL     1       5.506   0.050  25.647  0.00  0.00    +0.214 A 
ATOM     16  C   UNL     1       4.363   0.028  26.640  0.00  0.00    +0.238 A 
ATOM     17  O   UNL     1       3.424  -0.748  26.545  0.00  0.00    -0.283 OA
ATOM     18  C   UNL     1       4.335   1.059  27.693  0.00  0.00    +0.109 A 
ATOM     19  C   UNL     1       5.148   2.162  27.512  0.00  0.00    +0.147 A 
ATOM     20  C   UNL     1       5.149   3.216  28.432  0.00  0.00    +0.092 A 
ATOM     21  C   UNL     1       4.310   3.150  29.540  0.00  0.00    +0.124 A 
ATOM     22  C   UNL     1       3.471   2.058  29.730  0.00  0.00    +0.091 A 
ATOM     23  O   UNL     1       5.946   2.306  26.414  0.00  0.00    -0.451 OA
ATOM     24  C   UNL     1       3.487   1.012  28.807  0.00  0.00    +0.135 A 
ATOM     25  C   UNL     1       6.189   1.225  25.562  0.00  0.00    +0.181 A 
BRANCH  25  26
ATOM     26  C   UNL     1       7.232   1.624  24.549  0.00  0.00    +0.025 A 
ATOM     27  C   UNL     1       6.830   1.826  23.202  0.00  0.00    +0.015 A 
ATOM     28  C   UNL     1       7.749   2.004  22.160  0.00  0.00    +0.050 A 
ATOM     29  C   UNL     1       9.097   2.011  22.455  0.00  0.00    +0.158 A 
ATOM     30  C   UNL     1       9.527   1.862  23.769  0.00  0.00    +0.159 A 
ATOM     31  C   UNL     1       8.610   1.665  24.811  0.00  0.00    +0.060 A 
BRANCH  30  32
ATOM     32  O   UNL     1      10.878   1.897  23.992  0.00  0.00    -0.503 OA
ATOM     33  H   UNL     1      11.298   1.186  23.468  0.00  0.00    +0.292 HD
ENDBRANCH  30  32
BRANCH  29  34
ATOM     34  O   UNL     1      10.000   2.135  21.438  0.00  0.00    -0.503 OA
ATOM     35  H   UNL     1      10.456   2.981  21.619  0.00  0.00    +0.292 HD
ENDBRANCH  29  34
ENDBRANCH  25  26
BRANCH  24  36
ATOM     36  O   UNL     1       2.661  -0.057  29.016  0.00  0.00    -0.506 OA
ATOM     37  H   UNL     1       1.979   0.165  29.671  0.00  0.00    +0.292 HD
ENDBRANCH  24  36
BRANCH  21  38
ATOM     38  O   UNL     1       4.270   4.142  30.471  0.00  0.00    -0.507 OA
ATOM     39  H   UNL     1       4.863   3.920  31.208  0.00  0.00    +0.292 HD
ENDBRANCH  21  38
ENDBRANCH  14  15
ENDBRANCH   2  14
BRANCH   1  40
ATOM     40  O   UNL     1       5.982  -3.457  26.568  0.00  0.00    -0.337 OA
BRANCH  40  44
ATOM     41  C   UNL     1       3.809  -6.823  27.853  0.00  0.00    +0.041 C 
ATOM     42  C   UNL     1       4.576  -6.806  26.533  0.00  0.00    +0.149 C 
ATOM     43  O   UNL     1       5.501  -5.729  26.482  0.00  0.00    -0.343 OA
ATOM     44  C   UNL     1       4.948  -4.426  26.380  0.00  0.00    +0.282 C 
ATOM     45  C   UNL     1       4.298  -4.296  24.994  0.00  0.00    +0.201 C 
ATOM     46  C   UNL     1       3.225  -5.401  24.850  0.00  0.00    +0.179 C 
ATOM     47  C   UNL     1       3.761  -6.797  25.234  0.00  0.00    +0.174 C 
BRANCH  47  48
ATOM     48  O   UNL     1       4.640  -7.225  24.172  0.00  0.00    -0.387 OA
ATOM     49  H   UNL     1       4.397  -6.737  23.359  0.00  0.00    +0.210 HD
ENDBRANCH  47  48
BRANCH  46  50
ATOM     50  O   UNL     1       2.056  -5.032  25.599  0.00  0.00    -0.386 OA
ATOM     51  H   UNL     1       2.227  -4.254  26.153  0.00  0.00    +0.210 HD
ENDBRANCH  46  50
BRANCH  45  52
ATOM     52  O   UNL     1       3.706  -2.999  24.807  0.00  0.00    -0.384 OA
ATOM     53  H   UNL     1       3.233  -3.032  23.949  0.00  0.00    +0.210 HD
ENDBRANCH  45  52
ENDBRANCH  40  44
ENDBRANCH   1  40
TORSDOF 16
ENDMDL
MODEL 5
REMARK VINA RESULT:      -6.4      2.734      7.583
REMARK  Name = 
REMARK  17 active torsions:
REMARK  status: ('A' for Active; 'I' for Inactive)
REMARK    1  A    between atoms: C_1  and  C_2
REMARK    2  A    between atoms: C_4  and  O_53
REMARK    3  A    between atoms: C_6  and  O_52
REMARK    4  A    between atoms: C_8  and  O_51
REMARK    5  A    between atoms: C_10  and  O_13
REMARK    6  A    between atoms: O_13  and  C_14
REMARK    7  A    between atoms: C_16  and  O_50
REMARK    8  A    between atoms: C_18  and  O_49
REMARK    9  A    between atoms: C_20  and  C_47
REMARK   10  A    between atoms: C_23  and  O_25
REMARK   11  A    between atoms: O_25  and  C_26
REMARK   12  A    between atoms: C_27  and  C_39
REMARK   13  A    between atoms: C_31  and  O_38
REMARK   14  A    between atoms: C_33  and  O_37
REMARK   15  A    between atoms: C_41  and  O_46
REMARK   16  A    between atoms: C_42  and  O_45
REMARK   17  A    between atoms: C_47  and  O_48
REMARK                            x       y       z     vdW  Elec       q    Type
REMARK                         _______ _______ _______ _____ _____    ______ ____
ROOT
ATOM      1  C   UNL     1       4.619   2.370  25.117  0.00  0.00    +0.221 C 
ATOM      2  C   UNL     1       6.019   1.717  24.925  0.00  0.00    +0.340 C 
ATOM      3  O   UNL     1       5.908   0.319  25.291  0.00  0.00    -0.331 OA
ATOM      4  C   UNL     1       5.704   0.193  26.721  0.00  0.00    +0.179 C 
ATOM      5  C   UNL     1       4.285   0.684  27.055  0.00  0.00    +0.177 C 
ATOM      6  C   UNL     1       4.176   2.133  26.585  0.00  0.00    +0.180 C 
ENDROOT
BRANCH   6   7
ATOM      7  O   UNL     1       2.880   2.685  26.815  0.00  0.00    -0.386 OA
ATOM      8  H   UNL     1       2.758   2.662  27.782  0.00  0.00    +0.210 HD
ENDBRANCH   6   7
BRANCH   5   9
ATOM      9  O   UNL     1       3.295  -0.157  26.456  0.00  0.00    -0.386 OA
ATOM     10  H   UNL     1       2.623  -0.350  27.128  0.00  0.00    +0.210 HD
ENDBRANCH   5   9
BRANCH   4  11
ATOM     11  C   UNL     1       5.926  -1.241  27.209  0.00  0.00    +0.190 C 
BRANCH  11  12
ATOM     12  O   UNL     1       5.704  -2.170  26.146  0.00  0.00    -0.392 OA
ATOM     13  H   UNL     1       5.918  -3.058  26.484  0.00  0.00    +0.210 HD
ENDBRANCH  11  12
ENDBRANCH   4  11
BRANCH   2  14
ATOM     14  O   UNL     1       6.513   1.910  23.580  0.00  0.00    -0.453 OA
BRANCH  14  15
ATOM     15  C   UNL     1       7.819   2.400  23.425  0.00  0.00    +0.214 A 
ATOM     16  C   UNL     1       8.089   3.868  23.178  0.00  0.00    +0.238 A 
ATOM     17  O   UNL     1       7.238   4.630  22.743  0.00  0.00    -0.283 OA
ATOM     18  C   UNL     1       9.464   4.365  23.367  0.00  0.00    +0.109 A 
ATOM     19  C   UNL     1      10.469   3.419  23.426  0.00  0.00    +0.147 A 
ATOM     20  C   UNL     1      11.810   3.799  23.551  0.00  0.00    +0.092 A 
ATOM     21  C   UNL     1      12.130   5.152  23.606  0.00  0.00    +0.124 A 
ATOM     22  C   UNL     1      11.135   6.119  23.528  0.00  0.00    +0.091 A 
ATOM     23  O   UNL     1      10.218   2.082  23.316  0.00  0.00    -0.451 OA
ATOM     24  C   UNL     1       9.802   5.724  23.411  0.00  0.00    +0.135 A 
ATOM     25  C   UNL     1       8.914   1.590  23.418  0.00  0.00    +0.181 A 
BRANCH  25  26
ATOM     26  C   UNL     1       8.958   0.083  23.436  0.00  0.00    +0.025 A 
ATOM     27  C   UNL     1       8.839  -0.616  22.206  0.00  0.00    +0.015 A 
ATOM     28  C   UNL     1       8.672  -2.005  22.143  0.00  0.00    +0.050 A 
ATOM     29  C   UNL     1       8.649  -2.728  23.318  0.00  0.00    +0.158 A 
ATOM     30  C   UNL     1       8.810  -2.083  24.540  0.00  0.00    +0.159 A 
ATOM     31  C   UNL     1       8.958  -0.691  24.607  0.00  0.00    +0.060 A 
BRANCH  30  32
ATOM     32  O   UNL     1       8.796  -2.864  25.664  0.00  0.00    -0.503 OA
ATOM     33  H   UNL     1       8.121  -3.563  25.549  0.00  0.00    +0.292 HD
ENDBRANCH  30  32
BRANCH  29  34
ATOM     34  O   UNL     1       8.439  -4.076  23.266  0.00  0.00    -0.503 OA
ATOM     35  H   UNL     1       7.498  -4.166  23.011  0.00  0.00    +0.292 HD
ENDBRANCH  29  34
ENDBRANCH  25  26
BRANCH  24  36
ATOM     36  O   UNL     1       8.837   6.690  23.346  0.00  0.00    -0.506 OA
ATOM     37  H   UNL     1       9.241   7.564  23.218  0.00  0.00    +0.292 HD
ENDBRANCH  24  36
BRANCH  21  38
ATOM     38  O   UNL     1      13.415   5.582  23.731  0.00  0.00    -0.507 OA
ATOM     39  H   UNL     1      13.462   6.531  23.524  0.00  0.00    +0.292 HD
ENDBRANCH  21  38
ENDBRANCH  14  15
ENDBRANCH   2  14
BRANCH   1  40
ATOM     40  O   UNL     1       4.516   3.775  24.755  0.00  0.00    -0.337 OA
BRANCH  40  44
ATOM     41  C   UNL     1       0.934   5.745  23.758  0.00  0.00    +0.041 C 
ATOM     42  C   UNL     1       1.078   4.227  23.674  0.00  0.00    +0.149 C 
ATOM     43  O   UNL     1       2.222   3.772  24.382  0.00  0.00    -0.343 OA
ATOM     44  C   UNL     1       3.483   4.099  23.821  0.00  0.00    +0.282 C 
ATOM     45  C   UNL     1       3.638   3.308  22.513  0.00  0.00    +0.201 C 
ATOM     46  C   UNL     1       2.465   3.678  21.574  0.00  0.00    +0.179 C 
ATOM     47  C   UNL     1       1.095   3.587  22.280  0.00  0.00    +0.174 C 
BRANCH  47  48
ATOM     48  O   UNL     1       0.790   2.186  22.446  0.00  0.00    -0.387 OA
ATOM     49  H   UNL     1       1.634   1.700  22.546  0.00  0.00    +0.210 HD
ENDBRANCH  47  48
BRANCH  46  50
ATOM     50  O   UNL     1       2.706   4.971  20.997  0.00  0.00    -0.386 OA
ATOM     51  H   UNL     1       3.534   5.353  21.328  0.00  0.00    +0.210 HD
ENDBRANCH  46  50
BRANCH  45  52
ATOM     52  O   UNL     1       4.895   3.585  21.872  0.00  0.00    -0.384 OA
ATOM     53  H   UNL     1       5.497   2.851  22.117  0.00  0.00    +0.210 HD
ENDBRANCH  45  52
ENDBRANCH  40  44
ENDBRANCH   1  40
TORSDOF 16
ENDMDL
MODEL 6
REMARK VINA RESULT:      -6.3      1.885      5.019
REMARK  Name = 
REMARK  17 active torsions:
REMARK  status: ('A' for Active; 'I' for Inactive)
REMARK    1  A    between atoms: C_1  and  C_2
REMARK    2  A    between atoms: C_4  and  O_53
REMARK    3  A    between atoms: C_6  and  O_52
REMARK    4  A    between atoms: C_8  and  O_51
REMARK    5  A    between atoms: C_10  and  O_13
REMARK    6  A    between atoms: O_13  and  C_14
REMARK    7  A    between atoms: C_16  and  O_50
REMARK    8  A    between atoms: C_18  and  O_49
REMARK    9  A    between atoms: C_20  and  C_47
REMARK   10  A    between atoms: C_23  and  O_25
REMARK   11  A    between atoms: O_25  and  C_26
REMARK   12  A    between atoms: C_27  and  C_39
REMARK   13  A    between atoms: C_31  and  O_38
REMARK   14  A    between atoms: C_33  and  O_37
REMARK   15  A    between atoms: C_41  and  O_46
REMARK   16  A    between atoms: C_42  and  O_45
REMARK   17  A    between atoms: C_47  and  O_48
REMARK                            x       y       z     vdW  Elec       q    Type
REMARK                         _______ _______ _______ _____ _____    ______ ____
ROOT
ATOM      1  C   UNL     1       6.440   0.575  26.358  0.00  0.00    +0.221 C 
ATOM      2  C   UNL     1       6.964  -0.609  27.222  0.00  0.00    +0.340 C 
ATOM      3  O   UNL     1       5.873  -1.548  27.391  0.00  0.00    -0.331 OA
ATOM      4  C   UNL     1       4.850  -0.975  28.244  0.00  0.00    +0.179 C 
ATOM      5  C   UNL     1       4.139   0.145  27.466  0.00  0.00    +0.177 C 
ATOM      6  C   UNL     1       5.195   1.173  27.066  0.00  0.00    +0.180 C 
ENDROOT
BRANCH   6   7
ATOM      7  O   UNL     1       4.651   2.248  26.303  0.00  0.00    -0.386 OA
ATOM      8  H   UNL     1       4.328   1.841  25.477  0.00  0.00    +0.210 HD
ENDBRANCH   6   7
BRANCH   5   9
ATOM      9  O   UNL     1       3.438  -0.379  26.334  0.00  0.00    -0.386 OA
ATOM     10  H   UNL     1       3.651   0.175  25.569  0.00  0.00    +0.210 HD
ENDBRANCH   5   9
BRANCH   4  11
ATOM     11  C   UNL     1       3.855  -2.028  28.736  0.00  0.00    +0.190 C 
BRANCH  11  12
ATOM     12  O   UNL     1       3.711  -3.071  27.768  0.00  0.00    -0.392 OA
ATOM     13  H   UNL     1       4.170  -2.782  26.959  0.00  0.00    +0.210 HD
ENDBRANCH  11  12
ENDBRANCH   4  11
BRANCH   2  14
ATOM     14  O   UNL     1       8.140  -1.211  26.635  0.00  0.00    -0.453 OA
BRANCH  14  15
ATOM     15  C   UNL     1       7.958  -2.097  25.562  0.00  0.00    +0.214 A 
ATOM     16  C   UNL     1       7.394  -3.486  25.770  0.00  0.00    +0.238 A 
ATOM     17  O   UNL     1       7.409  -4.047  26.856  0.00  0.00    -0.283 OA
ATOM     18  C   UNL     1       6.910  -4.226  24.590  0.00  0.00    +0.109 A 
ATOM     19  C   UNL     1       7.303  -3.755  23.351  0.00  0.00    +0.147 A 
ATOM     20  C   UNL     1       6.937  -4.422  22.178  0.00  0.00    +0.092 A 
ATOM     21  C   UNL     1       6.173  -5.582  22.266  0.00  0.00    +0.124 A 
ATOM     22  C   UNL     1       5.784  -6.081  23.503  0.00  0.00    +0.091 A 
ATOM     23  O   UNL     1       8.103  -2.658  23.210  0.00  0.00    -0.451 OA
ATOM     24  C   UNL     1       6.151  -5.401  24.664  0.00  0.00    +0.135 A 
ATOM     25  C   UNL     1       8.332  -1.799  24.287  0.00  0.00    +0.181 A 
BRANCH  25  26
ATOM     26  C   UNL     1       9.097  -0.594  23.800  0.00  0.00    +0.025 A 
ATOM     27  C   UNL     1      10.050   0.003  24.666  0.00  0.00    +0.015 A 
ATOM     28  C   UNL     1      10.662   1.231  24.381  0.00  0.00    +0.050 A 
ATOM     29  C   UNL     1      10.348   1.873  23.201  0.00  0.00    +0.158 A 
ATOM     30  C   UNL     1       9.454   1.296  22.305  0.00  0.00    +0.159 A 
ATOM     31  C   UNL     1       8.826   0.077  22.597  0.00  0.00    +0.060 A 
BRANCH  30  32
ATOM     32  O   UNL     1       9.203   1.980  21.145  0.00  0.00    -0.503 OA
ATOM     33  H   UNL     1       9.122   1.334  20.416  0.00  0.00    +0.292 HD
ENDBRANCH  30  32
BRANCH  29  34
ATOM     34  O   UNL     1      10.904   3.093  22.939  0.00  0.00    -0.503 OA
ATOM     35  H   UNL     1      10.663   3.642  23.713  0.00  0.00    +0.292 HD
ENDBRANCH  29  34
ENDBRANCH  25  26
BRANCH  24  36
ATOM     36  O   UNL     1       5.751  -5.903  25.871  0.00  0.00    -0.506 OA
ATOM     37  H   UNL     1       4.929  -6.411  25.771  0.00  0.00    +0.292 HD
ENDBRANCH  24  36
BRANCH  21  38
ATOM     38  O   UNL     1       5.783  -6.272  21.159  0.00  0.00    -0.507 OA
ATOM     39  H   UNL     1       4.945  -5.908  20.828  0.00  0.00    +0.292 HD
ENDBRANCH  21  38
ENDBRANCH  14  15
ENDBRANCH   2  14
BRANCH   1  40
ATOM     40  O   UNL     1       7.412   1.610  26.039  0.00  0.00    -0.337 OA
BRANCH  40  44
ATOM     41  C   UNL     1       4.730   3.225  23.227  0.00  0.00    +0.041 C 
ATOM     42  C   UNL     1       6.242   3.250  23.016  0.00  0.00    +0.149 C 
ATOM     43  O   UNL     1       6.906   2.353  23.896  0.00  0.00    -0.343 OA
ATOM     44  C   UNL     1       6.916   2.708  25.270  0.00  0.00    +0.282 C 
ATOM     45  C   UNL     1       7.799   3.954  25.430  0.00  0.00    +0.201 C 
ATOM     46  C   UNL     1       7.225   5.081  24.537  0.00  0.00    +0.179 C 
ATOM     47  C   UNL     1       6.952   4.607  23.094  0.00  0.00    +0.174 C 
BRANCH  47  48
ATOM     48  O   UNL     1       8.232   4.460  22.441  0.00  0.00    -0.387 OA
ATOM     49  H   UNL     1       8.501   3.521  22.506  0.00  0.00    +0.210 HD
ENDBRANCH  47  48
BRANCH  46  50
ATOM     50  O   UNL     1       6.062   5.641  25.166  0.00  0.00    -0.386 OA
ATOM     51  H   UNL     1       5.557   4.960  25.638  0.00  0.00    +0.210 HD
ENDBRANCH  46  50
BRANCH  45  52
ATOM     52  O   UNL     1       7.861   4.387  26.800  0.00  0.00    -0.384 OA
ATOM     53  H   UNL     1       7.651   5.345  26.797  0.00  0.00    +0.210 HD
ENDBRANCH  45  52
ENDBRANCH  40  44
ENDBRANCH   1  40
TORSDOF 16
ENDMDL
MODEL 7
REMARK VINA RESULT:      -6.2      2.126      7.405
REMARK  Name = 
REMARK  17 active torsions:
REMARK  status: ('A' for Active; 'I' for Inactive)
REMARK    1  A    between atoms: C_1  and  C_2
REMARK    2  A    between atoms: C_4  and  O_53
REMARK    3  A    between atoms: C_6  and  O_52
REMARK    4  A    between atoms: C_8  and  O_51
REMARK    5  A    between atoms: C_10  and  O_13
REMARK    6  A    between atoms: O_13  and  C_14
REMARK    7  A    between atoms: C_16  and  O_50
REMARK    8  A    between atoms: C_18  and  O_49
REMARK    9  A    between atoms: C_20  and  C_47
REMARK   10  A    between atoms: C_23  and  O_25
REMARK   11  A    between atoms: O_25  and  C_26
REMARK   12  A    between atoms: C_27  and  C_39
REMARK   13  A    between atoms: C_31  and  O_38
REMARK   14  A    between atoms: C_33  and  O_37
REMARK   15  A    between atoms: C_41  and  O_46
REMARK   16  A    between atoms: C_42  and  O_45
REMARK   17  A    between atoms: C_47  and  O_48
REMARK                            x       y       z     vdW  Elec       q    Type
REMARK                         _______ _______ _______ _____ _____    ______ ____
ROOT
ATOM      1  C   UNL     1       7.124  -2.995  25.632  0.00  0.00    +0.221 C 
ATOM      2  C   UNL     1       7.201  -1.548  25.066  0.00  0.00    +0.340 C 
ATOM      3  O   UNL     1       7.956  -1.597  23.830  0.00  0.00    -0.331 OA
ATOM      4  C   UNL     1       9.348  -1.890  24.108  0.00  0.00    +0.179 C 
ATOM      5  C   UNL     1       9.455  -3.356  24.561  0.00  0.00    +0.177 C 
ATOM      6  C   UNL     1       8.575  -3.523  25.798  0.00  0.00    +0.180 C 
ENDROOT
BRANCH   6   7
ATOM      7  O   UNL     1       8.569  -4.863  26.288  0.00  0.00    -0.386 OA
ATOM      8  H   UNL     1       9.437  -5.232  26.040  0.00  0.00    +0.210 HD
ENDBRANCH   6   7
BRANCH   5   9
ATOM      9  O   UNL     1       9.084  -4.249  23.507  0.00  0.00    -0.386 OA
ATOM     10  H   UNL     1       9.824  -4.857  23.357  0.00  0.00    +0.210 HD
ENDBRANCH   5   9
BRANCH   4  11
ATOM     11  C   UNL     1      10.247  -1.615  22.901  0.00  0.00    +0.190 C 
BRANCH  11  12
ATOM     12  O   UNL     1       9.550  -1.896  21.685  0.00  0.00    -0.392 OA
ATOM     13  H   UNL     1       9.846  -2.771  21.374  0.00  0.00    +0.210 HD
ENDBRANCH  11  12
ENDBRANCH   4  11
BRANCH   2  14
ATOM     14  O   UNL     1       5.883  -0.975  24.898  0.00  0.00    -0.453 OA
BRANCH  14  15
ATOM     15  C   UNL     1       5.562   0.163  25.653  0.00  0.00    +0.214 A 
ATOM     16  C   UNL     1       4.405   0.165  26.629  0.00  0.00    +0.238 A 
ATOM     17  O   UNL     1       3.488  -0.640  26.563  0.00  0.00    -0.283 OA
ATOM     18  C   UNL     1       4.334   1.249  27.624  0.00  0.00    +0.109 A 
ATOM     19  C   UNL     1       5.122   2.362  27.396  0.00  0.00    +0.147 A 
ATOM     20  C   UNL     1       5.081   3.463  28.258  0.00  0.00    +0.092 A 
ATOM     21  C   UNL     1       4.226   3.435  29.355  0.00  0.00    +0.124 A 
ATOM     22  C   UNL     1       3.412   2.334  29.591  0.00  0.00    +0.091 A 
ATOM     23  O   UNL     1       5.932   2.467  26.303  0.00  0.00    -0.451 OA
ATOM     24  C   UNL     1       3.469   1.240  28.727  0.00  0.00    +0.135 A 
ATOM     25  C   UNL     1       6.217   1.349  25.515  0.00  0.00    +0.181 A 
BRANCH  25  26
ATOM     26  C   UNL     1       7.265   1.720  24.497  0.00  0.00    +0.025 A 
ATOM     27  C   UNL     1       6.882   1.826  23.133  0.00  0.00    +0.015 A 
ATOM     28  C   UNL     1       7.815   1.971  22.098  0.00  0.00    +0.050 A 
ATOM     29  C   UNL     1       9.157   2.041  22.415  0.00  0.00    +0.158 A 
ATOM     30  C   UNL     1       9.566   1.988  23.743  0.00  0.00    +0.159 A 
ATOM     31  C   UNL     1       8.636   1.824  24.780  0.00  0.00    +0.060 A 
BRANCH  30  32
ATOM     32  O   UNL     1      10.910   2.082  23.986  0.00  0.00    -0.503 OA
ATOM     33  H   UNL     1      11.210   1.249  24.402  0.00  0.00    +0.292 HD
ENDBRANCH  30  32
BRANCH  29  34
ATOM     34  O   UNL     1      10.074   2.133  21.408  0.00  0.00    -0.503 OA
ATOM     35  H   UNL     1      10.925   1.900  21.831  0.00  0.00    +0.292 HD
ENDBRANCH  29  34
ENDBRANCH  25  26
BRANCH  24  36
ATOM     36  O   UNL     1       2.668   0.163  28.981  0.00  0.00    -0.506 OA
ATOM     37  H   UNL     1       3.098  -0.438  29.610  0.00  0.00    +0.292 HD
ENDBRANCH  24  36
BRANCH  21  38
ATOM     38  O   UNL     1       4.146   4.475  30.230  0.00  0.00    -0.507 OA
ATOM     39  H   UNL     1       3.293   4.442  30.696  0.00  0.00    +0.292 HD
ENDBRANCH  21  38
ENDBRANCH  14  15
ENDBRANCH   2  14
BRANCH   1  40
ATOM     40  O   UNL     1       6.360  -3.160  26.859  0.00  0.00    -0.337 OA
BRANCH  40  44
ATOM     41  C   UNL     1       3.293  -5.466  25.135  0.00  0.00    +0.041 C 
ATOM     42  C   UNL     1       3.145  -4.812  26.506  0.00  0.00    +0.149 C 
ATOM     43  O   UNL     1       4.136  -3.816  26.718  0.00  0.00    -0.343 OA
ATOM     44  C   UNL     1       5.467  -4.276  26.886  0.00  0.00    +0.282 C 
ATOM     45  C   UNL     1       5.542  -5.027  28.224  0.00  0.00    +0.201 C 
ATOM     46  C   UNL     1       4.520  -6.188  28.193  0.00  0.00    +0.179 C 
ATOM     47  C   UNL     1       3.120  -5.728  27.736  0.00  0.00    +0.174 C 
BRANCH  47  48
ATOM     48  O   UNL     1       2.540  -4.974  28.821  0.00  0.00    -0.387 OA
ATOM     49  H   UNL     1       2.954  -4.087  28.832  0.00  0.00    +0.210 HD
ENDBRANCH  47  48
BRANCH  46  50
ATOM     50  O   UNL     1       5.041  -7.260  27.391  0.00  0.00    -0.386 OA
ATOM     51  H   UNL     1       4.327  -7.828  27.060  0.00  0.00    +0.210 HD
ENDBRANCH  46  50
BRANCH  45  52
ATOM     52  O   UNL     1       6.865  -5.534  28.474  0.00  0.00    -0.384 OA
ATOM     53  H   UNL     1       7.291  -4.901  29.089  0.00  0.00    +0.210 HD
ENDBRANCH  45  52
ENDBRANCH  40  44
ENDBRANCH   1  40
TORSDOF 16
ENDMDL
MODEL 8
REMARK VINA RESULT:      -6.2      2.550      7.586
REMARK  Name = 
REMARK  17 active torsions:
REMARK  status: ('A' for Active; 'I' for Inactive)
REMARK    1  A    between atoms: C_1  and  C_2
REMARK    2  A    between atoms: C_4  and  O_53
REMARK    3  A    between atoms: C_6  and  O_52
REMARK    4  A    between atoms: C_8  and  O_51
REMARK    5  A    between atoms: C_10  and  O_13
REMARK    6  A    between atoms: O_13  and  C_14
REMARK    7  A    between atoms: C_16  and  O_50
REMARK    8  A    between atoms: C_18  and  O_49
REMARK    9  A    between atoms: C_20  and  C_47
REMARK   10  A    between atoms: C_23  and  O_25
REMARK   11  A    between atoms: O_25  and  C_26
REMARK   12  A    between atoms: C_27  and  C_39
REMARK   13  A    between atoms: C_31  and  O_38
REMARK   14  A    between atoms: C_33  and  O_37
REMARK   15  A    between atoms: C_41  and  O_46
REMARK   16  A    between atoms: C_42  and  O_45
REMARK   17  A    between atoms: C_47  and  O_48
REMARK                            x       y       z     vdW  Elec       q    Type
REMARK                         _______ _______ _______ _____ _____    ______ ____
ROOT
ATOM      1  C   UNL     1       6.142  -5.011  27.045  0.00  0.00    +0.221 C 
ATOM      2  C   UNL     1       5.882  -3.476  27.073  0.00  0.00    +0.340 C 
ATOM      3  O   UNL     1       4.960  -3.204  28.157  0.00  0.00    -0.331 OA
ATOM      4  C   UNL     1       3.648  -3.731  27.840  0.00  0.00    +0.179 C 
ATOM      5  C   UNL     1       3.712  -5.267  27.904  0.00  0.00    +0.177 C 
ATOM      6  C   UNL     1       4.772  -5.727  26.906  0.00  0.00    +0.180 C 
ENDROOT
BRANCH   6   7
ATOM      7  O   UNL     1       4.943  -7.143  26.904  0.00  0.00    -0.386 OA
ATOM      8  H   UNL     1       5.774  -7.303  27.390  0.00  0.00    +0.210 HD
ENDBRANCH   6   7
BRANCH   5   9
ATOM      9  O   UNL     1       3.988  -5.716  29.233  0.00  0.00    -0.386 OA
ATOM     10  H   UNL     1       3.534  -6.563  29.362  0.00  0.00    +0.210 HD
ENDBRANCH   5   9
BRANCH   4  11
ATOM     11  C   UNL     1       2.566  -3.180  28.771  0.00  0.00    +0.190 C 
BRANCH  11  12
ATOM     12  O   UNL     1       3.118  -2.884  30.057  0.00  0.00    -0.392 OA
ATOM     13  H   UNL     1       3.103  -1.916  30.165  0.00  0.00    +0.210 HD
ENDBRANCH  11  12
ENDBRANCH   4  11
BRANCH   2  14
ATOM     14  O   UNL     1       7.118  -2.733  27.183  0.00  0.00    -0.453 OA
BRANCH  14  15
ATOM     15  C   UNL     1       7.395  -1.772  26.200  0.00  0.00    +0.214 A 
ATOM     16  C   UNL     1       8.577  -1.914  25.265  0.00  0.00    +0.238 A 
ATOM     17  O   UNL     1       9.536  -2.627  25.520  0.00  0.00    -0.283 OA
ATOM     18  C   UNL     1       8.613  -1.072  24.055  0.00  0.00    +0.109 A 
ATOM     19  C   UNL     1       7.759   0.013  24.021  0.00  0.00    +0.147 A 
ATOM     20  C   UNL     1       7.761   0.898  22.937  0.00  0.00    +0.092 A 
ATOM     21  C   UNL     1       8.646   0.681  21.885  0.00  0.00    +0.124 A 
ATOM     22  C   UNL     1       9.526  -0.393  21.911  0.00  0.00    +0.091 A 
ATOM     23  O   UNL     1       6.914   0.307  25.051  0.00  0.00    -0.451 OA
ATOM     24  C   UNL     1       9.507  -1.271  22.994  0.00  0.00    +0.135 A 
ATOM     25  C   UNL     1       6.671  -0.626  26.063  0.00  0.00    +0.181 A 
BRANCH  25  26
ATOM     26  C   UNL     1       5.576  -0.104  26.959  0.00  0.00    +0.025 A 
ATOM     27  C   UNL     1       5.913   0.308  28.276  0.00  0.00    +0.015 A 
ATOM     28  C   UNL     1       4.943   0.618  29.238  0.00  0.00    +0.050 A 
ATOM     29  C   UNL     1       3.610   0.547  28.889  0.00  0.00    +0.158 A 
ATOM     30  C   UNL     1       3.244   0.193  27.595  0.00  0.00    +0.159 A 
ATOM     31  C   UNL     1       4.211  -0.137  26.635  0.00  0.00    +0.060 A 
BRANCH  30  32
ATOM     32  O   UNL     1       1.904   0.161  27.312  0.00  0.00    -0.503 OA
ATOM     33  H   UNL     1       1.731  -0.594  26.715  0.00  0.00    +0.292 HD
ENDBRANCH  30  32
BRANCH  29  34
ATOM     34  O   UNL     1       2.660   0.801  29.836  0.00  0.00    -0.503 OA
ATOM     35  H   UNL     1       1.842   0.963  29.323  0.00  0.00    +0.292 HD
ENDBRANCH  29  34
ENDBRANCH  25  26
BRANCH  24  36
ATOM     36  O   UNL     1      10.375  -2.328  22.996  0.00  0.00    -0.506 OA
ATOM     37  H   UNL     1      10.324  -2.808  22.154  0.00  0.00    +0.292 HD
ENDBRANCH  24  36
BRANCH  21  38
ATOM     38  O   UNL     1       8.691   1.506  20.803  0.00  0.00    -0.507 OA
ATOM     39  H   UNL     1       7.798   1.839  20.611  0.00  0.00    +0.292 HD
ENDBRANCH  21  38
ENDBRANCH  14  15
ENDBRANCH   2  14
BRANCH   1  40
ATOM     40  O   UNL     1       7.086  -5.480  26.042  0.00  0.00    -0.337 OA
BRANCH  40  44
ATOM     41  C   UNL     1       4.504  -3.861  23.140  0.00  0.00    +0.041 C 
ATOM     42  C   UNL     1       5.071  -5.274  23.027  0.00  0.00    +0.149 C 
ATOM     43  O   UNL     1       5.610  -5.720  24.263  0.00  0.00    -0.343 OA
ATOM     44  C   UNL     1       6.804  -5.087  24.696  0.00  0.00    +0.282 C 
ATOM     45  C   UNL     1       7.932  -5.501  23.739  0.00  0.00    +0.201 C 
ATOM     46  C   UNL     1       7.535  -5.084  22.303  0.00  0.00    +0.179 C 
ATOM     47  C   UNL     1       6.109  -5.541  21.930  0.00  0.00    +0.174 C 
BRANCH  47  48
ATOM     48  O   UNL     1       6.157  -6.969  21.722  0.00  0.00    -0.387 OA
ATOM     49  H   UNL     1       5.517  -7.388  22.334  0.00  0.00    +0.210 HD
ENDBRANCH  47  48
BRANCH  46  50
ATOM     50  O   UNL     1       7.720  -3.668  22.150  0.00  0.00    -0.386 OA
ATOM     51  H   UNL     1       6.986  -3.174  22.546  0.00  0.00    +0.210 HD
ENDBRANCH  46  50
BRANCH  45  52
ATOM     52  O   UNL     1       9.185  -4.897  24.106  0.00  0.00    -0.384 OA
ATOM     53  H   UNL     1       9.736  -4.891  23.295  0.00  0.00    +0.210 HD
ENDBRANCH  45  52
ENDBRANCH  40  44
ENDBRANCH   1  40
TORSDOF 16
ENDMDL
MODEL 9
REMARK VINA RESULT:      -6.1      2.064      2.676
REMARK  Name = 
REMARK  17 active torsions:
REMARK  status: ('A' for Active; 'I' for Inactive)
REMARK    1  A    between atoms: C_1  and  C_2
REMARK    2  A    between atoms: C_4  and  O_53
REMARK    3  A    between atoms: C_6  and  O_52
REMARK    4  A    between atoms: C_8  and  O_51
REMARK    5  A    between atoms: C_10  and  O_13
REMARK    6  A    between atoms: O_13  and  C_14
REMARK    7  A    between atoms: C_16  and  O_50
REMARK    8  A    between atoms: C_18  and  O_49
REMARK    9  A    between atoms: C_20  and  C_47
REMARK   10  A    between atoms: C_23  and  O_25
REMARK   11  A    between atoms: O_25  and  C_26
REMARK   12  A    between atoms: C_27  and  C_39
REMARK   13  A    between atoms: C_31  and  O_38
REMARK   14  A    between atoms: C_33  and  O_37
REMARK   15  A    between atoms: C_41  and  O_46
REMARK   16  A    between atoms: C_42  and  O_45
REMARK   17  A    between atoms: C_47  and  O_48
REMARK                            x       y       z     vdW  Elec       q    Type
REMARK                         _______ _______ _______ _____ _____    ______ ____
ROOT
ATOM      1  C   UNL     1       7.184   2.573  24.573  0.00  0.00    +0.221 C 
ATOM      2  C   UNL     1       6.798   1.327  23.724  0.00  0.00    +0.340 C 
ATOM      3  O   UNL     1       8.023   0.647  23.356  0.00  0.00    -0.331 OA
ATOM      4  C   UNL     1       8.770   1.445  22.405  0.00  0.00    +0.179 C 
ATOM      5  C   UNL     1       9.339   2.671  23.140  0.00  0.00    +0.177 C 
ATOM      6  C   UNL     1       8.162   3.440  23.736  0.00  0.00    +0.180 C 
ENDROOT
BRANCH   6   7
ATOM      7  O   UNL     1       8.577   4.587  24.476  0.00  0.00    -0.386 OA
ATOM      8  H   UNL     1       8.003   5.313  24.168  0.00  0.00    +0.210 HD
ENDBRANCH   6   7
BRANCH   5   9
ATOM      9  O   UNL     1      10.290   2.279  24.135  0.00  0.00    -0.386 OA
ATOM     10  H   UNL     1      11.104   2.013  23.680  0.00  0.00    +0.210 HD
ENDBRANCH   5   9
BRANCH   4  11
ATOM     11  C   UNL     1       9.881   0.641  21.724  0.00  0.00    +0.190 C 
BRANCH  11  12
ATOM     12  O   UNL     1       9.342  -0.531  21.107  0.00  0.00    -0.392 OA
ATOM     13  H   UNL     1       9.575  -0.497  20.162  0.00  0.00    +0.210 HD
ENDBRANCH  11  12
ENDBRANCH   4  11
BRANCH   2  14
ATOM     14  O   UNL     1       5.869   0.473  24.430  0.00  0.00    -0.453 OA
BRANCH  14  15
ATOM     15  C   UNL     1       6.330  -0.780  24.863  0.00  0.00    +0.214 A 
ATOM     16  C   UNL     1       6.482  -1.941  23.904  0.00  0.00    +0.238 A 
ATOM     17  O   UNL     1       5.897  -1.991  22.833  0.00  0.00    -0.283 OA
ATOM     18  C   UNL     1       7.282  -3.102  24.337  0.00  0.00    +0.109 A 
ATOM     19  C   UNL     1       7.555  -3.206  25.688  0.00  0.00    +0.147 A 
ATOM     20  C   UNL     1       8.261  -4.300  26.198  0.00  0.00    +0.092 A 
ATOM     21  C   UNL     1       8.685  -5.300  25.328  0.00  0.00    +0.124 A 
ATOM     22  C   UNL     1       8.403  -5.223  23.970  0.00  0.00    +0.091 A 
ATOM     23  O   UNL     1       7.112  -2.285  26.593  0.00  0.00    -0.451 OA
ATOM     24  C   UNL     1       7.704  -4.122  23.475  0.00  0.00    +0.135 A 
ATOM     25  C   UNL     1       6.604  -1.055  26.168  0.00  0.00    +0.181 A 
BRANCH  25  26
ATOM     26  C   UNL     1       6.360  -0.182  27.374  0.00  0.00    +0.025 A 
ATOM     27  C   UNL     1       5.120  -0.295  28.056  0.00  0.00    +0.015 A 
ATOM     28  C   UNL     1       4.728   0.603  29.057  0.00  0.00    +0.050 A 
ATOM     29  C   UNL     1       5.588   1.621  29.415  0.00  0.00    +0.158 A 
ATOM     30  C   UNL     1       6.831   1.735  28.802  0.00  0.00    +0.159 A 
ATOM     31  C   UNL     1       7.219   0.849  27.786  0.00  0.00    +0.060 A 
BRANCH  30  32
ATOM     32  O   UNL     1       7.642   2.756  29.219  0.00  0.00    -0.503 OA
ATOM     33  H   UNL     1       8.534   2.618  28.842  0.00  0.00    +0.292 HD
ENDBRANCH  30  32
BRANCH  29  34
ATOM     34  O   UNL     1       5.192   2.528  30.355  0.00  0.00    -0.503 OA
ATOM     35  H   UNL     1       5.993   3.060  30.534  0.00  0.00    +0.292 HD
ENDBRANCH  29  34
ENDBRANCH  25  26
BRANCH  24  36
ATOM     36  O   UNL     1       7.444  -4.061  22.134  0.00  0.00    -0.506 OA
ATOM     37  H   UNL     1       7.079  -4.904  21.821  0.00  0.00    +0.292 HD
ENDBRANCH  24  36
BRANCH  21  38
ATOM     38  O   UNL     1       9.379  -6.387  25.765  0.00  0.00    -0.507 OA
ATOM     39  H   UNL     1       9.208  -7.140  25.175  0.00  0.00    +0.292 HD
ENDBRANCH  21  38
ENDBRANCH  14  15
ENDBRANCH   2  14
BRANCH   1  40
ATOM     40  O   UNL     1       6.075   3.368  25.078  0.00  0.00    -0.337 OA
BRANCH  40  44
ATOM     41  C   UNL     1       6.055   6.534  22.307  0.00  0.00    +0.041 C 
ATOM     42  C   UNL     1       5.114   6.500  23.509  0.00  0.00    +0.149 C 
ATOM     43  O   UNL     1       5.536   5.546  24.473  0.00  0.00    -0.343 OA
ATOM     44  C   UNL     1       5.406   4.181  24.111  0.00  0.00    +0.282 C 
ATOM     45  C   UNL     1       3.908   3.852  24.037  0.00  0.00    +0.201 C 
ATOM     46  C   UNL     1       3.248   4.798  23.005  0.00  0.00    +0.179 C 
ATOM     47  C   UNL     1       3.620   6.277  23.240  0.00  0.00    +0.174 C 
BRANCH  47  48
ATOM     48  O   UNL     1       2.903   6.720  24.412  0.00  0.00    -0.387 OA
ATOM     49  H   UNL     1       3.389   7.476  24.800  0.00  0.00    +0.210 HD
ENDBRANCH  47  48
BRANCH  46  50
ATOM     50  O   UNL     1       3.565   4.351  21.678  0.00  0.00    -0.386 OA
ATOM     51  H   UNL     1       3.732   5.102  21.087  0.00  0.00    +0.210 HD
ENDBRANCH  46  50
BRANCH  45  52
ATOM     52  O   UNL     1       3.684   2.479  23.668  0.00  0.00    -0.384 OA
ATOM     53  H   UNL     1       4.554   2.031  23.735  0.00  0.00    +0.210 HD
ENDBRANCH  45  52
ENDBRANCH  40  44
ENDBRANCH   1  40
TORSDOF 16
ENDMDL
