MODEL 1
REMARK VINA RESULT:      -7.5      0.000      0.000
REMARK  Name = 
REMARK  18 active torsions:
REMARK  status: ('A' for Active; 'I' for Inactive)
REMARK    1  A    between atoms: C_3  and  O_37
REMARK    2  A    between atoms: C_4  and  O_36
REMARK    3  A    between atoms: C_6  and  C_7
REMARK    4  A    between atoms: C_8  and  O_20
REMARK    5  A    between atoms: C_12  and  O_19
REMARK    6  A    between atoms: C_14  and  O_18
REMARK    7  A    between atoms: O_20  and  C_21
REMARK    8  A    between atoms: C_22  and  O_35
REMARK    9  A    between atoms: C_24  and  O_34
REMARK   10  A    between atoms: C_26  and  O_33
REMARK   11  A    between atoms: C_28  and  C_31
REMARK   12  A    between atoms: C_31  and  O_32
REMARK   13  A    between atoms: O_37  and  C_38
REMARK   14  A    between atoms: C_39  and  O_52
REMARK   15  A    between atoms: C_41  and  O_51
REMARK   16  A    between atoms: C_43  and  O_50
REMARK   17  A    between atoms: C_45  and  C_48
REMARK   18  A    between atoms: C_48  and  O_49
REMARK                            x       y       z     vdW  Elec       q    Type
REMARK                         _______ _______ _______ _____ _____    ______ ____
ROOT
ATOM      1  C   UNL     1       8.931   2.026  24.021  0.00  0.00    +0.181 A 
ATOM      2  O   UNL     1      10.178   2.331  23.469  0.00  0.00    -0.451 OA
ATOM      3  C   UNL     1      10.701   3.584  23.634  0.00  0.00    +0.147 A 
ATOM      4  C   UNL     1       9.920   4.663  24.015  0.00  0.00    +0.109 A 
ATOM      5  C   UNL     1      10.483   5.946  24.040  0.00  0.00    +0.135 A 
ATOM      6  C   UNL     1      11.833   6.138  23.743  0.00  0.00    +0.091 A 
ATOM      7  C   UNL     1      12.615   5.033  23.417  0.00  0.00    +0.124 A 
ATOM      8  C   UNL     1       8.541   4.396  24.426  0.00  0.00    +0.238 A 
ATOM      9  O   UNL     1       7.773   5.338  24.635  0.00  0.00    -0.283 OA
ATOM     10  C   UNL     1      12.058   3.758  23.358  0.00  0.00    +0.092 A 
ATOM     11  C   UNL     1       8.141   2.963  24.605  0.00  0.00    +0.214 A 
ENDROOT
BRANCH   1  13
ATOM     12  C   UNL     1       9.560  -0.372  24.333  0.00  0.00    +0.015 A 
ATOM     13  C   UNL     1       8.622   0.568  23.880  0.00  0.00    +0.025 A 
ATOM     14  C   UNL     1       7.451   0.065  23.282  0.00  0.00    +0.060 A 
ATOM     15  C   UNL     1       7.264  -1.309  23.110  0.00  0.00    +0.159 A 
ATOM     16  C   UNL     1       8.272  -2.218  23.418  0.00  0.00    +0.165 A 
ATOM     17  C   UNL     1       9.389  -1.742  24.105  0.00  0.00    +0.050 A 
BRANCH  15  18
ATOM     18  O   UNL     1       6.068  -1.743  22.610  0.00  0.00    -0.503 OA
ATOM     19  H   UNL     1       6.264  -2.063  21.707  0.00  0.00    +0.292 HD
ENDBRANCH  15  18
BRANCH  16  20
ATOM     20  O   UNL     1       8.101  -3.507  22.951  0.00  0.00    -0.457 OA
BRANCH  20  21
ATOM     21  C   UNL     1       7.891  -4.486  23.987  0.00  0.00    +0.339 C 
ATOM     22  O   UNL     1       7.163  -5.638  23.554  0.00  0.00    -0.331 OA
ATOM     23  C   UNL     1       5.741  -5.642  23.695  0.00  0.00    +0.179 C 
ATOM     24  C   UNL     1       5.340  -5.335  25.140  0.00  0.00    +0.177 C 
ATOM     25  C   UNL     1       5.913  -4.004  25.643  0.00  0.00    +0.180 C 
ATOM     26  C   UNL     1       7.416  -3.884  25.340  0.00  0.00    +0.214 C 
BRANCH  26  27
ATOM     27  O   UNL     1       8.097  -4.616  26.395  0.00  0.00    -0.383 OA
ATOM     28  H   UNL     1       7.858  -5.559  26.266  0.00  0.00    +0.210 HD
ENDBRANCH  26  27
BRANCH  25  29
ATOM     29  O   UNL     1       5.160  -2.879  25.206  0.00  0.00    -0.386 OA
ATOM     30  H   UNL     1       4.253  -3.188  24.990  0.00  0.00    +0.210 HD
ENDBRANCH  25  29
BRANCH  24  31
ATOM     31  O   UNL     1       5.883  -6.396  25.959  0.00  0.00    -0.386 OA
ATOM     32  H   UNL     1       6.840  -6.448  25.768  0.00  0.00    +0.210 HD
ENDBRANCH  24  31
BRANCH  23  33
ATOM     33  C   UNL     1       4.989  -4.845  22.610  0.00  0.00    +0.190 C 
BRANCH  33  34
ATOM     34  O   UNL     1       5.769  -4.584  21.450  0.00  0.00    -0.392 OA
ATOM     35  H   UNL     1       6.379  -5.342  21.357  0.00  0.00    +0.210 HD
ENDBRANCH  33  34
ENDBRANCH  23  33
ENDBRANCH  20  21
ENDBRANCH  16  20
ENDBRANCH   1  13
BRANCH   7  36
ATOM     36  O   UNL     1      13.943   5.160  23.135  0.00  0.00    -0.507 OA
ATOM     37  H   UNL     1      14.211   4.438  22.543  0.00  0.00    +0.292 HD
ENDBRANCH   7  36
BRANCH   5  38
ATOM     38  O   UNL     1       9.765   7.075  24.348  0.00  0.00    -0.506 OA
ATOM     39  H   UNL     1       9.363   7.418  23.516  0.00  0.00    +0.292 HD
ENDBRANCH   5  38
BRANCH  11  40
ATOM     40  O   UNL     1       6.993   2.729  25.357  0.00  0.00    -0.453 OA
BRANCH  40  41
ATOM     41  C   UNL     1       7.268   2.311  26.706  0.00  0.00    +0.340 C 
ATOM     42  O   UNL     1       6.904   0.947  26.890  0.00  0.00    -0.331 OA
ATOM     43  C   UNL     1       5.853   0.552  27.775  0.00  0.00    +0.179 C 
ATOM     44  C   UNL     1       5.184   1.623  28.661  0.00  0.00    +0.177 C 
ATOM     45  C   UNL     1       5.314   3.041  28.100  0.00  0.00    +0.180 C 
ATOM     46  C   UNL     1       6.781   3.300  27.772  0.00  0.00    +0.214 C 
BRANCH  46  47
ATOM     47  O   UNL     1       7.568   3.159  28.985  0.00  0.00    -0.383 OA
ATOM     48  H   UNL     1       7.117   3.620  29.719  0.00  0.00    +0.210 HD
ENDBRANCH  46  47
BRANCH  45  49
ATOM     49  O   UNL     1       4.477   3.286  26.976  0.00  0.00    -0.386 OA
ATOM     50  H   UNL     1       4.693   4.158  26.581  0.00  0.00    +0.210 HD
ENDBRANCH  45  49
BRANCH  44  51
ATOM     51  O   UNL     1       5.774   1.552  29.978  0.00  0.00    -0.386 OA
ATOM     52  H   UNL     1       6.470   2.239  30.037  0.00  0.00    +0.210 HD
ENDBRANCH  44  51
BRANCH  43  53
ATOM     53  C   UNL     1       4.813  -0.198  26.936  0.00  0.00    +0.190 C 
BRANCH  53  54
ATOM     54  O   UNL     1       4.783   0.337  25.615  0.00  0.00    -0.392 OA
ATOM     55  H   UNL     1       3.974  -0.028  25.200  0.00  0.00    +0.210 HD
ENDBRANCH  53  54
ENDBRANCH  43  53
ENDBRANCH  40  41
ENDBRANCH  11  40
TORSDOF 18
ENDMDL
MODEL 2
REMARK VINA RESULT:      -7.4      1.066      2.055
REMARK  Name = 
REMARK  18 active torsions:
REMARK  status: ('A' for Active; 'I' for Inactive)
REMARK    1  A    between atoms: C_3  and  O_37
REMARK    2  A    between atoms: C_4  and  O_36
REMARK    3  A    between atoms: C_6  and  C_7
REMARK    4  A    between atoms: C_8  and  O_20
REMARK    5  A    between atoms: C_12  and  O_19
REMARK    6  A    between atoms: C_14  and  O_18
REMARK    7  A    between atoms: O_20  and  C_21
REMARK    8  A    between atoms: C_22  and  O_35
REMARK    9  A    between atoms: C_24  and  O_34
REMARK   10  A    between atoms: C_26  and  O_33
REMARK   11  A    between atoms: C_28  and  C_31
REMARK   12  A    between atoms: C_31  and  O_32
REMARK   13  A    between atoms: O_37  and  C_38
REMARK   14  A    between atoms: C_39  and  O_52
REMARK   15  A    between atoms: C_41  and  O_51
REMARK   16  A    between atoms: C_43  and  O_50
REMARK   17  A    between atoms: C_45  and  C_48
REMARK   18  A    between atoms: C_48  and  O_49
REMARK                            x       y       z     vdW  Elec       q    Type
REMARK                         _______ _______ _______ _____ _____    ______ ____
ROOT
ATOM      1  C   UNL     1       9.103   2.177  23.504  0.00  0.00    +0.181 A 
ATOM      2  O   UNL     1      10.354   2.553  23.010  0.00  0.00    -0.451 OA
ATOM      3  C   UNL     1      10.905   3.743  23.402  0.00  0.00    +0.147 A 
ATOM      4  C   UNL     1      10.147   4.748  23.983  0.00  0.00    +0.109 A 
ATOM      5  C   UNL     1      10.738   5.991  24.243  0.00  0.00    +0.135 A 
ATOM      6  C   UNL     1      12.091   6.209  23.977  0.00  0.00    +0.091 A 
ATOM      7  C   UNL     1      12.847   5.169  23.445  0.00  0.00    +0.124 A 
ATOM      8  C   UNL     1       8.765   4.437  24.347  0.00  0.00    +0.238 A 
ATOM      9  O   UNL     1       8.018   5.338  24.733  0.00  0.00    -0.283 OA
ATOM     10  C   UNL     1      12.264   3.938  23.153  0.00  0.00    +0.092 A 
ATOM     11  C   UNL     1       8.335   3.004  24.258  0.00  0.00    +0.214 A 
ENDROOT
BRANCH   1  13
ATOM     12  C   UNL     1       7.462   0.495  22.653  0.00  0.00    +0.015 A 
ATOM     13  C   UNL     1       8.763   0.777  23.097  0.00  0.00    +0.025 A 
ATOM     14  C   UNL     1       9.663  -0.304  23.163  0.00  0.00    +0.060 A 
ATOM     15  C   UNL     1       9.253  -1.602  22.845  0.00  0.00    +0.159 A 
ATOM     16  C   UNL     1       7.921  -1.888  22.562  0.00  0.00    +0.165 A 
ATOM     17  C   UNL     1       7.047  -0.815  22.391  0.00  0.00    +0.050 A 
BRANCH  15  18
ATOM     18  O   UNL     1      10.194  -2.594  22.837  0.00  0.00    -0.503 OA
ATOM     19  H   UNL     1       9.709  -3.414  23.055  0.00  0.00    +0.292 HD
ENDBRANCH  15  18
BRANCH  16  20
ATOM     20  O   UNL     1       7.571  -3.225  22.542  0.00  0.00    -0.457 OA
BRANCH  20  21
ATOM     21  C   UNL     1       6.393  -3.536  23.312  0.00  0.00    +0.339 C 
ATOM     22  O   UNL     1       6.660  -3.817  24.688  0.00  0.00    -0.331 OA
ATOM     23  C   UNL     1       6.892  -5.173  25.077  0.00  0.00    +0.179 C 
ATOM     24  C   UNL     1       5.741  -6.072  24.616  0.00  0.00    +0.177 C 
ATOM     25  C   UNL     1       5.501  -5.996  23.104  0.00  0.00    +0.180 C 
ATOM     26  C   UNL     1       5.430  -4.539  22.615  0.00  0.00    +0.214 C 
BRANCH  26  27
ATOM     27  O   UNL     1       4.075  -4.090  22.889  0.00  0.00    -0.383 OA
ATOM     28  H   UNL     1       4.093  -3.112  22.803  0.00  0.00    +0.210 HD
ENDBRANCH  26  27
BRANCH  25  29
ATOM     29  O   UNL     1       6.411  -6.795  22.358  0.00  0.00    -0.386 OA
ATOM     30  H   UNL     1       6.020  -6.949  21.471  0.00  0.00    +0.210 HD
ENDBRANCH  25  29
BRANCH  24  31
ATOM     31  O   UNL     1       4.549  -5.603  25.287  0.00  0.00    -0.386 OA
ATOM     32  H   UNL     1       3.994  -6.387  25.472  0.00  0.00    +0.210 HD
ENDBRANCH  24  31
BRANCH  23  33
ATOM     33  C   UNL     1       8.310  -5.692  24.768  0.00  0.00    +0.190 C 
BRANCH  33  34
ATOM     34  O   UNL     1       9.257  -4.659  24.527  0.00  0.00    -0.392 OA
ATOM     35  H   UNL     1      10.010  -5.082  24.071  0.00  0.00    +0.210 HD
ENDBRANCH  33  34
ENDBRANCH  23  33
ENDBRANCH  20  21
ENDBRANCH  16  20
ENDBRANCH   1  13
BRANCH   7  36
ATOM     36  O   UNL     1      14.177   5.319  23.182  0.00  0.00    -0.507 OA
ATOM     37  H   UNL     1      14.564   5.921  23.839  0.00  0.00    +0.292 HD
ENDBRANCH   7  36
BRANCH   5  38
ATOM     38  O   UNL     1      10.045   7.057  24.761  0.00  0.00    -0.506 OA
ATOM     39  H   UNL     1       9.203   6.717  25.145  0.00  0.00    +0.292 HD
ENDBRANCH   5  38
BRANCH  11  40
ATOM     40  O   UNL     1       7.185   2.656  24.962  0.00  0.00    -0.453 OA
BRANCH  40  41
ATOM     41  C   UNL     1       7.455   2.113  26.266  0.00  0.00    +0.340 C 
ATOM     42  O   UNL     1       7.271   0.701  26.267  0.00  0.00    -0.331 OA
ATOM     43  C   UNL     1       6.245   0.066  27.034  0.00  0.00    +0.179 C 
ATOM     44  C   UNL     1       5.399   0.923  27.999  0.00  0.00    +0.177 C 
ATOM     45  C   UNL     1       5.361   2.404  27.617  0.00  0.00    +0.180 C 
ATOM     46  C   UNL     1       6.792   2.889  27.411  0.00  0.00    +0.214 C 
BRANCH  46  47
ATOM     47  O   UNL     1       7.537   2.701  28.644  0.00  0.00    -0.383 OA
ATOM     48  H   UNL     1       7.828   1.771  28.708  0.00  0.00    +0.210 HD
ENDBRANCH  46  47
BRANCH  45  49
ATOM     49  O   UNL     1       4.548   2.679  26.481  0.00  0.00    -0.386 OA
ATOM     50  H   UNL     1       3.618   2.432  26.668  0.00  0.00    +0.210 HD
ENDBRANCH  45  49
BRANCH  44  51
ATOM     51  O   UNL     1       5.935   0.765  29.331  0.00  0.00    -0.386 OA
ATOM     52  H   UNL     1       6.097  -0.189  29.482  0.00  0.00    +0.210 HD
ENDBRANCH  44  51
BRANCH  43  53
ATOM     53  C   UNL     1       5.354  -0.701  26.051  0.00  0.00    +0.190 C 
BRANCH  53  54
ATOM     54  O   UNL     1       4.936   0.167  25.000  0.00  0.00    -0.392 OA
ATOM     55  H   UNL     1       5.143  -0.305  24.168  0.00  0.00    +0.210 HD
ENDBRANCH  53  54
ENDBRANCH  43  53
ENDBRANCH  40  41
ENDBRANCH  11  40
TORSDOF 18
ENDMDL
MODEL 3
REMARK VINA RESULT:      -7.4      1.730      3.224
REMARK  Name = 
REMARK  18 active torsions:
REMARK  status: ('A' for Active; 'I' for Inactive)
REMARK    1  A    between atoms: C_3  and  O_37
REMARK    2  A    between atoms: C_4  and  O_36
REMARK    3  A    between atoms: C_6  and  C_7
REMARK    4  A    between atoms: C_8  and  O_20
REMARK    5  A    between atoms: C_12  and  O_19
REMARK    6  A    between atoms: C_14  and  O_18
REMARK    7  A    between atoms: O_20  and  C_21
REMARK    8  A    between atoms: C_22  and  O_35
REMARK    9  A    between atoms: C_24  and  O_34
REMARK   10  A    between atoms: C_26  and  O_33
REMARK   11  A    between atoms: C_28  and  C_31
REMARK   12  A    between atoms: C_31  and  O_32
REMARK   13  A    between atoms: O_37  and  C_38
REMARK   14  A    between atoms: C_39  and  O_52
REMARK   15  A    between atoms: C_41  and  O_51
REMARK   16  A    between atoms: C_43  and  O_50
REMARK   17  A    between atoms: C_45  and  C_48
REMARK   18  A    between atoms: C_48  and  O_49
REMARK                            x       y       z     vdW  Elec       q    Type
REMARK                         _______ _______ _______ _____ _____    ______ ____
ROOT
ATOM      1  C   UNL     1       9.560   1.941  23.998  0.00  0.00    +0.181 A 
ATOM      2  O   UNL     1      10.698   2.394  23.327  0.00  0.00    -0.451 OA
ATOM      3  C   UNL     1      11.131   3.677  23.523  0.00  0.00    +0.147 A 
ATOM      4  C   UNL     1      10.316   4.653  24.075  0.00  0.00    +0.109 A 
ATOM      5  C   UNL     1      10.769   5.977  24.130  0.00  0.00    +0.135 A 
ATOM      6  C   UNL     1      12.050   6.312  23.690  0.00  0.00    +0.091 A 
ATOM      7  C   UNL     1      12.874   5.308  23.190  0.00  0.00    +0.124 A 
ATOM      8  C   UNL     1       9.027   4.233  24.626  0.00  0.00    +0.238 A 
ATOM      9  O   UNL     1       8.216   5.084  24.996  0.00  0.00    -0.283 OA
ATOM     10  C   UNL     1      12.423   3.993  23.101  0.00  0.00    +0.092 A 
ATOM     11  C   UNL     1       8.774   2.761  24.742  0.00  0.00    +0.214 A 
ENDROOT
BRANCH   1  13
ATOM     12  C   UNL     1       9.204  -0.010  22.477  0.00  0.00    +0.015 A 
ATOM     13  C   UNL     1       9.359   0.473  23.785  0.00  0.00    +0.025 A 
ATOM     14  C   UNL     1       9.276  -0.470  24.828  0.00  0.00    +0.060 A 
ATOM     15  C   UNL     1       9.004  -1.815  24.561  0.00  0.00    +0.159 A 
ATOM     16  C   UNL     1       8.695  -2.247  23.275  0.00  0.00    +0.165 A 
ATOM     17  C   UNL     1       8.876  -1.347  22.225  0.00  0.00    +0.050 A 
BRANCH  15  18
ATOM     18  O   UNL     1       9.029  -2.700  25.603  0.00  0.00    -0.503 OA
ATOM     19  H   UNL     1       9.728  -3.346  25.380  0.00  0.00    +0.292 HD
ENDBRANCH  15  18
BRANCH  16  20
ATOM     20  O   UNL     1       8.168  -3.519  23.164  0.00  0.00    -0.457 OA
BRANCH  20  21
ATOM     21  C   UNL     1       6.782  -3.551  22.772  0.00  0.00    +0.339 C 
ATOM     22  O   UNL     1       5.872  -3.633  23.872  0.00  0.00    -0.331 OA
ATOM     23  C   UNL     1       5.452  -4.925  24.317  0.00  0.00    +0.179 C 
ATOM     24  C   UNL     1       4.876  -5.737  23.153  0.00  0.00    +0.177 C 
ATOM     25  C   UNL     1       5.861  -5.880  21.987  0.00  0.00    +0.180 C 
ATOM     26  C   UNL     1       6.479  -4.526  21.599  0.00  0.00    +0.214 C 
BRANCH  26  27
ATOM     27  O   UNL     1       5.504  -3.872  20.741  0.00  0.00    -0.383 OA
ATOM     28  H   UNL     1       5.280  -4.523  20.042  0.00  0.00    +0.210 HD
ENDBRANCH  26  27
BRANCH  25  29
ATOM     29  O   UNL     1       6.830  -6.898  22.204  0.00  0.00    -0.386 OA
ATOM     30  H   UNL     1       6.569  -7.681  21.671  0.00  0.00    +0.210 HD
ENDBRANCH  25  29
BRANCH  24  31
ATOM     31  O   UNL     1       3.714  -5.018  22.677  0.00  0.00    -0.386 OA
ATOM     32  H   UNL     1       3.058  -5.686  22.392  0.00  0.00    +0.210 HD
ENDBRANCH  24  31
BRANCH  23  33
ATOM     33  C   UNL     1       6.478  -5.661  25.200  0.00  0.00    +0.190 C 
BRANCH  33  34
ATOM     34  O   UNL     1       7.343  -4.790  25.919  0.00  0.00    -0.392 OA
ATOM     35  H   UNL     1       7.237  -5.021  26.862  0.00  0.00    +0.210 HD
ENDBRANCH  33  34
ENDBRANCH  23  33
ENDBRANCH  20  21
ENDBRANCH  16  20
ENDBRANCH   1  13
BRANCH   7  36
ATOM     36  O   UNL     1      14.142   5.575  22.762  0.00  0.00    -0.507 OA
ATOM     37  H   UNL     1      14.493   6.329  23.265  0.00  0.00    +0.292 HD
ENDBRANCH   7  36
BRANCH   5  38
ATOM     38  O   UNL     1      10.003   7.013  24.607  0.00  0.00    -0.506 OA
ATOM     39  H   UNL     1       9.173   6.633  24.978  0.00  0.00    +0.292 HD
ENDBRANCH   5  38
BRANCH  11  40
ATOM     40  O   UNL     1       7.752   2.373  25.606  0.00  0.00    -0.453 OA
BRANCH  40  41
ATOM     41  C   UNL     1       6.598   1.848  24.927  0.00  0.00    +0.340 C 
ATOM     42  O   UNL     1       6.634   2.189  23.544  0.00  0.00    -0.331 OA
ATOM     43  C   UNL     1       5.665   3.055  22.948  0.00  0.00    +0.179 C 
ATOM     44  C   UNL     1       4.465   3.525  23.796  0.00  0.00    +0.177 C 
ATOM     45  C   UNL     1       4.735   3.485  25.301  0.00  0.00    +0.180 C 
ATOM     46  C   UNL     1       5.277   2.106  25.661  0.00  0.00    +0.214 C 
BRANCH  46  47
ATOM     47  O   UNL     1       4.294   1.101  25.294  0.00  0.00    -0.383 OA
ATOM     48  H   UNL     1       3.403   1.501  25.304  0.00  0.00    +0.210 HD
ENDBRANCH  46  47
BRANCH  45  49
ATOM     49  O   UNL     1       5.602   4.520  25.751  0.00  0.00    -0.386 OA
ATOM     50  H   UNL     1       6.037   4.252  26.588  0.00  0.00    +0.210 HD
ENDBRANCH  45  49
BRANCH  44  51
ATOM     51  O   UNL     1       3.330   2.692  23.470  0.00  0.00    -0.386 OA
ATOM     52  H   UNL     1       2.515   3.194  23.680  0.00  0.00    +0.210 HD
ENDBRANCH  44  51
BRANCH  43  53
ATOM     53  C   UNL     1       6.426   4.248  22.360  0.00  0.00    +0.190 C 
BRANCH  53  54
ATOM     54  O   UNL     1       5.939   5.460  22.931  0.00  0.00    -0.392 OA
ATOM     55  H   UNL     1       6.183   6.168  22.300  0.00  0.00    +0.210 HD
ENDBRANCH  53  54
ENDBRANCH  43  53
ENDBRANCH  40  41
ENDBRANCH  11  40
TORSDOF 18
ENDMDL
MODEL 4
REMARK VINA RESULT:      -7.0      1.053      2.108
REMARK  Name = 
REMARK  18 active torsions:
REMARK  status: ('A' for Active; 'I' for Inactive)
REMARK    1  A    between atoms: C_3  and  O_37
REMARK    2  A    between atoms: C_4  and  O_36
REMARK    3  A    between atoms: C_6  and  C_7
REMARK    4  A    between atoms: C_8  and  O_20
REMARK    5  A    between atoms: C_12  and  O_19
REMARK    6  A    between atoms: C_14  and  O_18
REMARK    7  A    between atoms: O_20  and  C_21
REMARK    8  A    between atoms: C_22  and  O_35
REMARK    9  A    between atoms: C_24  and  O_34
REMARK   10  A    between atoms: C_26  and  O_33
REMARK   11  A    between atoms: C_28  and  C_31
REMARK   12  A    between atoms: C_31  and  O_32
REMARK   13  A    between atoms: O_37  and  C_38
REMARK   14  A    between atoms: C_39  and  O_52
REMARK   15  A    between atoms: C_41  and  O_51
REMARK   16  A    between atoms: C_43  and  O_50
REMARK   17  A    between atoms: C_45  and  C_48
REMARK   18  A    between atoms: C_48  and  O_49
REMARK                            x       y       z     vdW  Elec       q    Type
REMARK                         _______ _______ _______ _____ _____    ______ ____
ROOT
ATOM      1  C   UNL     1       9.003   1.520  23.903  0.00  0.00    +0.181 A 
ATOM      2  O   UNL     1      10.252   1.911  23.414  0.00  0.00    -0.451 OA
ATOM      3  C   UNL     1      10.649   3.213  23.542  0.00  0.00    +0.147 A 
ATOM      4  C   UNL     1       9.751   4.234  23.814  0.00  0.00    +0.109 A 
ATOM      5  C   UNL     1      10.195   5.562  23.804  0.00  0.00    +0.135 A 
ATOM      6  C   UNL     1      11.540   5.864  23.581  0.00  0.00    +0.091 A 
ATOM      7  C   UNL     1      12.436   4.821  23.364  0.00  0.00    +0.124 A 
ATOM      8  C   UNL     1       8.378   3.861  24.153  0.00  0.00    +0.238 A 
ATOM      9  O   UNL     1       7.517   4.737  24.262  0.00  0.00    -0.283 OA
ATOM     10  C   UNL     1      12.001   3.499  23.341  0.00  0.00    +0.092 A 
ATOM     11  C   UNL     1       8.096   2.408  24.385  0.00  0.00    +0.214 A 
ENDROOT
BRANCH   1  13
ATOM     12  C   UNL     1       8.557  -0.553  22.580  0.00  0.00    +0.015 A 
ATOM     13  C   UNL     1       8.834   0.035  23.824  0.00  0.00    +0.025 A 
ATOM     14  C   UNL     1       8.900  -0.826  24.936  0.00  0.00    +0.060 A 
ATOM     15  C   UNL     1       8.651  -2.194  24.803  0.00  0.00    +0.159 A 
ATOM     16  C   UNL     1       8.222  -2.735  23.595  0.00  0.00    +0.165 A 
ATOM     17  C   UNL     1       8.254  -1.914  22.467  0.00  0.00    +0.050 A 
BRANCH  15  18
ATOM     18  O   UNL     1       8.823  -2.994  25.899  0.00  0.00    -0.503 OA
ATOM     19  H   UNL     1       8.703  -2.406  26.671  0.00  0.00    +0.292 HD
ENDBRANCH  15  18
BRANCH  16  20
ATOM     20  O   UNL     1       7.734  -4.026  23.638  0.00  0.00    -0.457 OA
BRANCH  20  21
ATOM     21  C   UNL     1       6.463  -4.199  22.980  0.00  0.00    +0.339 C 
ATOM     22  O   UNL     1       5.484  -3.224  23.350  0.00  0.00    -0.331 OA
ATOM     23  C   UNL     1       4.606  -3.515  24.440  0.00  0.00    +0.179 C 
ATOM     24  C   UNL     1       3.894  -4.853  24.218  0.00  0.00    +0.177 C 
ATOM     25  C   UNL     1       4.872  -6.015  24.009  0.00  0.00    +0.180 C 
ATOM     26  C   UNL     1       5.951  -5.667  22.969  0.00  0.00    +0.214 C 
BRANCH  26  27
ATOM     27  O   UNL     1       5.343  -5.897  21.668  0.00  0.00    -0.383 OA
ATOM     28  H   UNL     1       4.389  -6.050  21.841  0.00  0.00    +0.210 HD
ENDBRANCH  26  27
BRANCH  25  29
ATOM     29  O   UNL     1       5.407  -6.514  25.228  0.00  0.00    -0.386 OA
ATOM     30  H   UNL     1       6.120  -5.903  25.517  0.00  0.00    +0.210 HD
ENDBRANCH  25  29
BRANCH  24  31
ATOM     31  O   UNL     1       3.100  -4.710  23.018  0.00  0.00    -0.386 OA
ATOM     32  H   UNL     1       2.264  -4.273  23.276  0.00  0.00    +0.210 HD
ENDBRANCH  24  31
BRANCH  23  33
ATOM     33  C   UNL     1       5.232  -3.315  25.835  0.00  0.00    +0.190 C 
BRANCH  33  34
ATOM     34  O   UNL     1       4.591  -4.064  26.860  0.00  0.00    -0.392 OA
ATOM     35  H   UNL     1       4.353  -4.924  26.460  0.00  0.00    +0.210 HD
ENDBRANCH  33  34
ENDBRANCH  23  33
ENDBRANCH  20  21
ENDBRANCH  16  20
ENDBRANCH   1  13
BRANCH   7  36
ATOM     36  O   UNL     1      13.764   5.056  23.159  0.00  0.00    -0.507 OA
ATOM     37  H   UNL     1      13.918   6.015  23.146  0.00  0.00    +0.292 HD
ENDBRANCH   7  36
BRANCH   5  38
ATOM     38  O   UNL     1       9.361   6.634  24.004  0.00  0.00    -0.506 OA
ATOM     39  H   UNL     1       8.433   6.326  23.880  0.00  0.00    +0.292 HD
ENDBRANCH   5  38
BRANCH  11  40
ATOM     40  O   UNL     1       6.925   2.106  25.076  0.00  0.00    -0.453 OA
BRANCH  40  41
ATOM     41  C   UNL     1       7.121   1.954  26.493  0.00  0.00    +0.340 C 
ATOM     42  O   UNL     1       6.545   0.734  26.950  0.00  0.00    -0.331 OA
ATOM     43  C   UNL     1       5.438   0.706  27.854  0.00  0.00    +0.179 C 
ATOM     44  C   UNL     1       4.940   2.034  28.463  0.00  0.00    +0.177 C 
ATOM     45  C   UNL     1       5.296   3.258  27.618  0.00  0.00    +0.180 C 
ATOM     46  C   UNL     1       6.788   3.213  27.303  0.00  0.00    +0.214 C 
BRANCH  46  47
ATOM     47  O   UNL     1       7.534   3.222  28.549  0.00  0.00    -0.383 OA
ATOM     48  H   UNL     1       7.806   2.310  28.770  0.00  0.00    +0.210 HD
ENDBRANCH  46  47
BRANCH  45  49
ATOM     49  O   UNL     1       4.517   3.378  26.433  0.00  0.00    -0.386 OA
ATOM     50  H   UNL     1       4.637   4.270  26.042  0.00  0.00    +0.210 HD
ENDBRANCH  45  49
BRANCH  44  51
ATOM     51  O   UNL     1       5.502   2.161  29.788  0.00  0.00    -0.386 OA
ATOM     52  H   UNL     1       4.880   2.686  30.332  0.00  0.00    +0.210 HD
ENDBRANCH  44  51
BRANCH  43  53
ATOM     53  C   UNL     1       4.299  -0.041  27.152  0.00  0.00    +0.190 C 
BRANCH  53  54
ATOM     54  O   UNL     1       4.180   0.415  25.806  0.00  0.00    -0.392 OA
ATOM     55  H   UNL     1       3.321   0.073  25.485  0.00  0.00    +0.210 HD
ENDBRANCH  53  54
ENDBRANCH  43  53
ENDBRANCH  40  41
ENDBRANCH  11  40
TORSDOF 18
ENDMDL
MODEL 5
REMARK VINA RESULT:      -6.9      1.078      1.671
REMARK  Name = 
REMARK  18 active torsions:
REMARK  status: ('A' for Active; 'I' for Inactive)
REMARK    1  A    between atoms: C_3  and  O_37
REMARK    2  A    between atoms: C_4  and  O_36
REMARK    3  A    between atoms: C_6  and  C_7
REMARK    4  A    between atoms: C_8  and  O_20
REMARK    5  A    between atoms: C_12  and  O_19
REMARK    6  A    between atoms: C_14  and  O_18
REMARK    7  A    between atoms: O_20  and  C_21
REMARK    8  A    between atoms: C_22  and  O_35
REMARK    9  A    between atoms: C_24  and  O_34
REMARK   10  A    between atoms: C_26  and  O_33
REMARK   11  A    between atoms: C_28  and  C_31
REMARK   12  A    between atoms: C_31  and  O_32
REMARK   13  A    between atoms: O_37  and  C_38
REMARK   14  A    between atoms: C_39  and  O_52
REMARK   15  A    between atoms: C_41  and  O_51
REMARK   16  A    between atoms: C_43  and  O_50
REMARK   17  A    between atoms: C_45  and  C_48
REMARK   18  A    between atoms: C_48  and  O_49
REMARK                            x       y       z     vdW  Elec       q    Type
REMARK                         _______ _______ _______ _____ _____    ______ ____
ROOT
ATOM      1  C   UNL     1       9.017   1.497  23.984  0.00  0.00    +0.181 A 
ATOM      2  O   UNL     1      10.262   1.953  23.544  0.00  0.00    -0.451 OA
ATOM      3  C   UNL     1      10.558   3.286  23.620  0.00  0.00    +0.147 A 
ATOM      4  C   UNL     1       9.575   4.250  23.783  0.00  0.00    +0.109 A 
ATOM      5  C   UNL     1       9.923   5.605  23.722  0.00  0.00    +0.135 A 
ATOM      6  C   UNL     1      11.254   5.994  23.558  0.00  0.00    +0.091 A 
ATOM      7  C   UNL     1      12.234   5.011  23.451  0.00  0.00    +0.124 A 
ATOM      8  C   UNL     1       8.214   3.794  24.065  0.00  0.00    +0.238 A 
ATOM      9  O   UNL     1       7.288   4.608  24.075  0.00  0.00    -0.283 OA
ATOM     10  C   UNL     1      11.895   3.660  23.479  0.00  0.00    +0.092 A 
ATOM     11  C   UNL     1       8.022   2.338  24.363  0.00  0.00    +0.214 A 
ENDROOT
BRANCH   1  13
ATOM     12  C   UNL     1       8.836  -0.672  22.755  0.00  0.00    +0.015 A 
ATOM     13  C   UNL     1       8.960   0.001  23.980  0.00  0.00    +0.025 A 
ATOM     14  C   UNL     1       8.986  -0.791  25.144  0.00  0.00    +0.060 A 
ATOM     15  C   UNL     1       8.846  -2.180  25.072  0.00  0.00    +0.159 A 
ATOM     16  C   UNL     1       8.564  -2.815  23.866  0.00  0.00    +0.165 A 
ATOM     17  C   UNL     1       8.640  -2.056  22.698  0.00  0.00    +0.050 A 
BRANCH  15  18
ATOM     18  O   UNL     1       8.974  -2.904  26.224  0.00  0.00    -0.503 OA
ATOM     19  H   UNL     1       8.139  -2.767  26.713  0.00  0.00    +0.292 HD
ENDBRANCH  15  18
BRANCH  16  20
ATOM     20  O   UNL     1       8.165  -4.135  23.946  0.00  0.00    -0.457 OA
BRANCH  20  21
ATOM     21  C   UNL     1       6.847  -4.320  24.500  0.00  0.00    +0.339 C 
ATOM     22  O   UNL     1       6.366  -5.664  24.410  0.00  0.00    -0.331 OA
ATOM     23  C   UNL     1       5.598  -6.041  23.266  0.00  0.00    +0.179 C 
ATOM     24  C   UNL     1       4.412  -5.091  23.075  0.00  0.00    +0.177 C 
ATOM     25  C   UNL     1       4.842  -3.624  22.956  0.00  0.00    +0.180 C 
ATOM     26  C   UNL     1       5.823  -3.230  24.074  0.00  0.00    +0.214 C 
BRANCH  26  27
ATOM     27  O   UNL     1       5.006  -2.933  25.238  0.00  0.00    -0.383 OA
ATOM     28  H   UNL     1       5.570  -3.123  26.019  0.00  0.00    +0.210 HD
ENDBRANCH  26  27
BRANCH  25  29
ATOM     29  O   UNL     1       5.308  -3.288  21.655  0.00  0.00    -0.386 OA
ATOM     30  H   UNL     1       4.531  -3.018  21.117  0.00  0.00    +0.210 HD
ENDBRANCH  25  29
BRANCH  24  31
ATOM     31  O   UNL     1       3.577  -5.222  24.248  0.00  0.00    -0.386 OA
ATOM     32  H   UNL     1       4.045  -4.783  24.986  0.00  0.00    +0.210 HD
ENDBRANCH  24  31
BRANCH  23  33
ATOM     33  C   UNL     1       6.432  -6.328  22.002  0.00  0.00    +0.190 C 
BRANCH  33  34
ATOM     34  O   UNL     1       5.715  -6.140  20.789  0.00  0.00    -0.392 OA
ATOM     35  H   UNL     1       5.904  -6.924  20.237  0.00  0.00    +0.210 HD
ENDBRANCH  33  34
ENDBRANCH  23  33
ENDBRANCH  20  21
ENDBRANCH  16  20
ENDBRANCH   1  13
BRANCH   7  36
ATOM     36  O   UNL     1      13.551   5.332  23.308  0.00  0.00    -0.507 OA
ATOM     37  H   UNL     1      14.014   4.590  22.883  0.00  0.00    +0.292 HD
ENDBRANCH   7  36
BRANCH   5  38
ATOM     38  O   UNL     1       9.004   6.621  23.814  0.00  0.00    -0.506 OA
ATOM     39  H   UNL     1       8.359   6.386  24.521  0.00  0.00    +0.292 HD
ENDBRANCH   5  38
BRANCH  11  40
ATOM     40  O   UNL     1       6.837   1.987  25.004  0.00  0.00    -0.453 OA
BRANCH  40  41
ATOM     41  C   UNL     1       6.976   1.849  26.429  0.00  0.00    +0.340 C 
ATOM     42  O   UNL     1       6.222   0.737  26.900  0.00  0.00    -0.331 OA
ATOM     43  C   UNL     1       5.102   0.893  27.775  0.00  0.00    +0.179 C 
ATOM     44  C   UNL     1       4.784   2.295  28.336  0.00  0.00    +0.177 C 
ATOM     45  C   UNL     1       5.331   3.431  27.471  0.00  0.00    +0.180 C 
ATOM     46  C   UNL     1       6.808   3.166  27.198  0.00  0.00    +0.214 C 
BRANCH  46  47
ATOM     47  O   UNL     1       7.519   3.103  28.463  0.00  0.00    -0.383 OA
ATOM     48  H   UNL     1       7.911   2.215  28.571  0.00  0.00    +0.210 HD
ENDBRANCH  46  47
BRANCH  45  49
ATOM     49  O   UNL     1       4.605   3.627  26.263  0.00  0.00    -0.386 OA
ATOM     50  H   UNL     1       4.719   2.852  25.674  0.00  0.00    +0.210 HD
ENDBRANCH  45  49
BRANCH  44  51
ATOM     51  O   UNL     1       5.328   2.378  29.672  0.00  0.00    -0.386 OA
ATOM     52  H   UNL     1       5.191   3.291  30.000  0.00  0.00    +0.210 HD
ENDBRANCH  44  51
BRANCH  43  53
ATOM     53  C   UNL     1       3.884   0.296  27.061  0.00  0.00    +0.190 C 
BRANCH  53  54
ATOM     54  O   UNL     1       4.299  -0.362  25.866  0.00  0.00    -0.392 OA
ATOM     55  H   UNL     1       3.747   0.015  25.150  0.00  0.00    +0.210 HD
ENDBRANCH  53  54
ENDBRANCH  43  53
ENDBRANCH  40  41
ENDBRANCH  11  40
TORSDOF 18
ENDMDL
MODEL 6
REMARK VINA RESULT:      -6.8      2.507      9.057
REMARK  Name = 
REMARK  18 active torsions:
REMARK  status: ('A' for Active; 'I' for Inactive)
REMARK    1  A    between atoms: C_3  and  O_37
REMARK    2  A    between atoms: C_4  and  O_36
REMARK    3  A    between atoms: C_6  and  C_7
REMARK    4  A    between atoms: C_8  and  O_20
REMARK    5  A    between atoms: C_12  and  O_19
REMARK    6  A    between atoms: C_14  and  O_18
REMARK    7  A    between atoms: O_20  and  C_21
REMARK    8  A    between atoms: C_22  and  O_35
REMARK    9  A    between atoms: C_24  and  O_34
REMARK   10  A    between atoms: C_26  and  O_33
REMARK   11  A    between atoms: C_28  and  C_31
REMARK   12  A    between atoms: C_31  and  O_32
REMARK   13  A    between atoms: O_37  and  C_38
REMARK   14  A    between atoms: C_39  and  O_52
REMARK   15  A    between atoms: C_41  and  O_51
REMARK   16  A    between atoms: C_43  and  O_50
REMARK   17  A    between atoms: C_45  and  C_48
REMARK   18  A    between atoms: C_48  and  O_49
REMARK                            x       y       z     vdW  Elec       q    Type
REMARK                         _______ _______ _______ _____ _____    ______ ____
ROOT
ATOM      1  C   UNL     1       6.694  -1.069  26.539  0.00  0.00    +0.181 A 
ATOM      2  O   UNL     1       5.626  -1.770  27.104  0.00  0.00    -0.451 OA
ATOM      3  C   UNL     1       5.786  -3.086  27.442  0.00  0.00    +0.147 A 
ATOM      4  C   UNL     1       6.827  -3.853  26.940  0.00  0.00    +0.109 A 
ATOM      5  C   UNL     1       6.864  -5.226  27.216  0.00  0.00    +0.135 A 
ATOM      6  C   UNL     1       5.901  -5.816  28.036  0.00  0.00    +0.091 A 
ATOM      7  C   UNL     1       4.896  -5.018  28.575  0.00  0.00    +0.124 A 
ATOM      8  C   UNL     1       7.873  -3.170  26.181  0.00  0.00    +0.238 A 
ATOM      9  O   UNL     1       8.736  -3.831  25.600  0.00  0.00    -0.283 OA
ATOM     10  C   UNL     1       4.830  -3.658  28.282  0.00  0.00    +0.092 A 
ATOM     11  C   UNL     1       7.856  -1.671  26.178  0.00  0.00    +0.214 A 
ENDROOT
BRANCH   1  13
ATOM     12  C   UNL     1       5.406   0.789  25.474  0.00  0.00    +0.015 A 
ATOM     13  C   UNL     1       6.372   0.387  26.408  0.00  0.00    +0.025 A 
ATOM     14  C   UNL     1       7.010   1.404  27.145  0.00  0.00    +0.060 A 
ATOM     15  C   UNL     1       6.719   2.751  26.913  0.00  0.00    +0.159 A 
ATOM     16  C   UNL     1       5.877   3.138  25.875  0.00  0.00    +0.165 A 
ATOM     17  C   UNL     1       5.162   2.141  25.210  0.00  0.00    +0.050 A 
BRANCH  15  18
ATOM     18  O   UNL     1       7.298   3.688  27.722  0.00  0.00    -0.503 OA
ATOM     19  H   UNL     1       8.224   3.760  27.416  0.00  0.00    +0.292 HD
ENDBRANCH  15  18
BRANCH  16  20
ATOM     20  O   UNL     1       5.878   4.481  25.551  0.00  0.00    -0.457 OA
BRANCH  20  21
ATOM     21  C   UNL     1       7.052   4.913  24.834  0.00  0.00    +0.339 C 
ATOM     22  O   UNL     1       7.018   6.288  24.445  0.00  0.00    -0.331 OA
ATOM     23  C   UNL     1       6.492   6.624  23.160  0.00  0.00    +0.179 C 
ATOM     24  C   UNL     1       7.204   5.830  22.060  0.00  0.00    +0.177 C 
ATOM     25  C   UNL     1       7.125   4.315  22.280  0.00  0.00    +0.180 C 
ATOM     26  C   UNL     1       7.509   3.930  23.719  0.00  0.00    +0.214 C 
BRANCH  26  27
ATOM     27  O   UNL     1       8.962   3.895  23.750  0.00  0.00    -0.383 OA
ATOM     28  H   UNL     1       9.200   3.184  24.383  0.00  0.00    +0.210 HD
ENDBRANCH  26  27
BRANCH  25  29
ATOM     29  O   UNL     1       5.884   3.760  21.862  0.00  0.00    -0.386 OA
ATOM     30  H   UNL     1       5.166   4.245  22.324  0.00  0.00    +0.210 HD
ENDBRANCH  25  29
BRANCH  24  31
ATOM     31  O   UNL     1       8.596   6.219  22.099  0.00  0.00    -0.386 OA
ATOM     32  H   UNL     1       8.910   6.081  23.015  0.00  0.00    +0.210 HD
ENDBRANCH  24  31
BRANCH  23  33
ATOM     33  C   UNL     1       4.952   6.636  23.083  0.00  0.00    +0.190 C 
BRANCH  33  34
ATOM     34  O   UNL     1       4.444   6.412  21.773  0.00  0.00    -0.392 OA
ATOM     35  H   UNL     1       4.775   5.534  21.501  0.00  0.00    +0.210 HD
ENDBRANCH  33  34
ENDBRANCH  23  33
ENDBRANCH  20  21
ENDBRANCH  16  20
ENDBRANCH   1  13
BRANCH   7  36
ATOM     36  O   UNL     1       3.939  -5.537  29.397  0.00  0.00    -0.507 OA
ATOM     37  H   UNL     1       3.385  -6.153  28.888  0.00  0.00    +0.292 HD
ENDBRANCH   7  36
BRANCH   5  38
ATOM     38  O   UNL     1       7.825  -6.067  26.711  0.00  0.00    -0.506 OA
ATOM     39  H   UNL     1       7.375  -6.750  26.161  0.00  0.00    +0.292 HD
ENDBRANCH   5  38
BRANCH  11  40
ATOM     40  O   UNL     1       9.039  -1.038  25.805  0.00  0.00    -0.453 OA
BRANCH  40  41
ATOM     41  C   UNL     1       8.948  -0.356  24.542  0.00  0.00    +0.340 C 
ATOM     42  O   UNL     1       7.764  -0.741  23.851  0.00  0.00    -0.331 OA
ATOM     43  C   UNL     1       7.803  -1.458  22.615  0.00  0.00    +0.179 C 
ATOM     44  C   UNL     1       9.168  -1.704  21.939  0.00  0.00    +0.177 C 
ATOM     45  C   UNL     1      10.344  -1.661  22.916  0.00  0.00    +0.180 C 
ATOM     46  C   UNL     1      10.250  -0.376  23.732  0.00  0.00    +0.214 C 
BRANCH  46  47
ATOM     47  O   UNL     1      10.299   0.761  22.830  0.00  0.00    -0.383 OA
ATOM     48  H   UNL     1      10.802   1.486  23.249  0.00  0.00    +0.210 HD
ENDBRANCH  46  47
BRANCH  45  49
ATOM     49  O   UNL     1      10.427  -2.807  23.756  0.00  0.00    -0.386 OA
ATOM     50  H   UNL     1       9.533  -3.185  23.897  0.00  0.00    +0.210 HD
ENDBRANCH  45  49
BRANCH  44  51
ATOM     51  O   UNL     1       9.343  -0.711  20.904  0.00  0.00    -0.386 OA
ATOM     52  H   UNL     1      10.088  -0.994  20.334  0.00  0.00    +0.210 HD
ENDBRANCH  44  51
BRANCH  43  53
ATOM     53  C   UNL     1       7.051  -2.776  22.833  0.00  0.00    +0.190 C 
BRANCH  53  54
ATOM     54  O   UNL     1       7.954  -3.872  22.720  0.00  0.00    -0.392 OA
ATOM     55  H   UNL     1       8.182  -3.932  21.769  0.00  0.00    +0.210 HD
ENDBRANCH  53  54
ENDBRANCH  43  53
ENDBRANCH  40  41
ENDBRANCH  11  40
TORSDOF 18
ENDMDL
MODEL 7
REMARK VINA RESULT:      -6.8      1.235      2.084
REMARK  Name = 
REMARK  18 active torsions:
REMARK  status: ('A' for Active; 'I' for Inactive)
REMARK    1  A    between atoms: C_3  and  O_37
REMARK    2  A    between atoms: C_4  and  O_36
REMARK    3  A    between atoms: C_6  and  C_7
REMARK    4  A    between atoms: C_8  and  O_20
REMARK    5  A    between atoms: C_12  and  O_19
REMARK    6  A    between atoms: C_14  and  O_18
REMARK    7  A    between atoms: O_20  and  C_21
REMARK    8  A    between atoms: C_22  and  O_35
REMARK    9  A    between atoms: C_24  and  O_34
REMARK   10  A    between atoms: C_26  and  O_33
REMARK   11  A    between atoms: C_28  and  C_31
REMARK   12  A    between atoms: C_31  and  O_32
REMARK   13  A    between atoms: O_37  and  C_38
REMARK   14  A    between atoms: C_39  and  O_52
REMARK   15  A    between atoms: C_41  and  O_51
REMARK   16  A    between atoms: C_43  and  O_50
REMARK   17  A    between atoms: C_45  and  C_48
REMARK   18  A    between atoms: C_48  and  O_49
REMARK                            x       y       z     vdW  Elec       q    Type
REMARK                         _______ _______ _______ _____ _____    ______ ____
ROOT
ATOM      1  C   UNL     1       9.224   2.017  24.349  0.00  0.00    +0.181 A 
ATOM      2  O   UNL     1      10.344   2.408  23.610  0.00  0.00    -0.451 OA
ATOM      3  C   UNL     1      10.809   3.690  23.716  0.00  0.00    +0.147 A 
ATOM      4  C   UNL     1      10.035   4.713  24.243  0.00  0.00    +0.109 A 
ATOM      5  C   UNL     1      10.515   6.028  24.205  0.00  0.00    +0.135 A 
ATOM      6  C   UNL     1      11.785   6.310  23.698  0.00  0.00    +0.091 A 
ATOM      7  C   UNL     1      12.569   5.262  23.225  0.00  0.00    +0.124 A 
ATOM      8  C   UNL     1       8.761   4.352  24.865  0.00  0.00    +0.238 A 
ATOM      9  O   UNL     1       7.982   5.240  25.217  0.00  0.00    -0.283 OA
ATOM     10  C   UNL     1      12.089   3.954  23.228  0.00  0.00    +0.092 A 
ATOM     11  C   UNL     1       8.484   2.894  25.074  0.00  0.00    +0.214 A 
ENDROOT
BRANCH   1  13
ATOM     12  C   UNL     1       9.363  -0.294  25.287  0.00  0.00    +0.015 A 
ATOM     13  C   UNL     1       8.987   0.544  24.227  0.00  0.00    +0.025 A 
ATOM     14  C   UNL     1       8.436  -0.073  23.088  0.00  0.00    +0.060 A 
ATOM     15  C   UNL     1       8.318  -1.464  23.010  0.00  0.00    +0.159 A 
ATOM     16  C   UNL     1       8.841  -2.289  24.002  0.00  0.00    +0.165 A 
ATOM     17  C   UNL     1       9.292  -1.688  25.177  0.00  0.00    +0.050 A 
BRANCH  15  18
ATOM     18  O   UNL     1       7.689  -2.000  21.921  0.00  0.00    -0.503 OA
ATOM     19  H   UNL     1       6.750  -2.087  22.179  0.00  0.00    +0.292 HD
ENDBRANCH  15  18
BRANCH  16  20
ATOM     20  O   UNL     1       8.928  -3.634  23.699  0.00  0.00    -0.457 OA
BRANCH  20  21
ATOM     21  C   UNL     1       8.002  -4.463  24.428  0.00  0.00    +0.339 C 
ATOM     22  O   UNL     1       7.752  -5.729  23.813  0.00  0.00    -0.331 OA
ATOM     23  C   UNL     1       6.654  -5.844  22.904  0.00  0.00    +0.179 C 
ATOM     24  C   UNL     1       5.357  -5.363  23.560  0.00  0.00    +0.177 C 
ATOM     25  C   UNL     1       5.457  -3.924  24.082  0.00  0.00    +0.180 C 
ATOM     26  C   UNL     1       6.731  -3.712  24.918  0.00  0.00    +0.214 C 
BRANCH  26  27
ATOM     27  O   UNL     1       6.425  -4.212  26.248  0.00  0.00    -0.383 OA
ATOM     28  H   UNL     1       7.054  -4.948  26.410  0.00  0.00    +0.210 HD
ENDBRANCH  26  27
BRANCH  25  29
ATOM     29  O   UNL     1       5.287  -2.952  23.059  0.00  0.00    -0.386 OA
ATOM     30  H   UNL     1       6.168  -2.777  22.660  0.00  0.00    +0.210 HD
ENDBRANCH  25  29
BRANCH  24  31
ATOM     31  O   UNL     1       5.109  -6.235  24.687  0.00  0.00    -0.386 OA
ATOM     32  H   UNL     1       5.980  -6.538  25.014  0.00  0.00    +0.210 HD
ENDBRANCH  24  31
BRANCH  23  33
ATOM     33  C   UNL     1       6.933  -5.290  21.493  0.00  0.00    +0.190 C 
BRANCH  33  34
ATOM     34  O   UNL     1       5.852  -4.545  20.948  0.00  0.00    -0.392 OA
ATOM     35  H   UNL     1       6.186  -4.149  20.119  0.00  0.00    +0.210 HD
ENDBRANCH  33  34
ENDBRANCH  23  33
ENDBRANCH  20  21
ENDBRANCH  16  20
ENDBRANCH   1  13
BRANCH   7  36
ATOM     36  O   UNL     1      13.823   5.477  22.735  0.00  0.00    -0.507 OA
ATOM     37  H   UNL     1      13.837   6.327  22.262  0.00  0.00    +0.292 HD
ENDBRANCH   7  36
BRANCH   5  38
ATOM     38  O   UNL     1       9.789   7.105  24.651  0.00  0.00    -0.506 OA
ATOM     39  H   UNL     1      10.415   7.746  25.060  0.00  0.00    +0.292 HD
ENDBRANCH   5  38
BRANCH  11  40
ATOM     40  O   UNL     1       7.490   2.578  25.997  0.00  0.00    -0.453 OA
BRANCH  40  41
ATOM     41  C   UNL     1       6.159   2.812  25.506  0.00  0.00    +0.340 C 
ATOM     42  O   UNL     1       5.393   3.535  26.464  0.00  0.00    -0.331 OA
ATOM     43  C   UNL     1       4.252   2.968  27.112  0.00  0.00    +0.179 C 
ATOM     44  C   UNL     1       3.751   1.580  26.659  0.00  0.00    +0.177 C 
ATOM     45  C   UNL     1       4.836   0.736  25.988  0.00  0.00    +0.180 C 
ATOM     46  C   UNL     1       5.496   1.571  24.896  0.00  0.00    +0.214 C 
BRANCH  46  47
ATOM     47  O   UNL     1       4.487   1.964  23.927  0.00  0.00    -0.383 OA
ATOM     48  H   UNL     1       4.392   2.937  23.936  0.00  0.00    +0.210 HD
ENDBRANCH  46  47
BRANCH  45  49
ATOM     49  O   UNL     1       5.798   0.216  26.900  0.00  0.00    -0.386 OA
ATOM     50  H   UNL     1       6.629   0.732  26.840  0.00  0.00    +0.210 HD
ENDBRANCH  45  49
BRANCH  44  51
ATOM     51  O   UNL     1       2.641   1.775  25.755  0.00  0.00    -0.386 OA
ATOM     52  H   UNL     1       2.063   2.471  26.130  0.00  0.00    +0.210 HD
ENDBRANCH  44  51
BRANCH  43  53
ATOM     53  C   UNL     1       4.530   2.989  28.618  0.00  0.00    +0.190 C 
BRANCH  53  54
ATOM     54  O   UNL     1       5.896   2.661  28.862  0.00  0.00    -0.392 OA
ATOM     55  H   UNL     1       5.888   1.759  29.243  0.00  0.00    +0.210 HD
ENDBRANCH  53  54
ENDBRANCH  43  53
ENDBRANCH  40  41
ENDBRANCH  11  40
TORSDOF 18
ENDMDL
MODEL 8
REMARK VINA RESULT:      -6.8      1.499      8.026
REMARK  Name = 
REMARK  18 active torsions:
REMARK  status: ('A' for Active; 'I' for Inactive)
REMARK    1  A    between atoms: C_3  and  O_37
REMARK    2  A    between atoms: C_4  and  O_36
REMARK    3  A    between atoms: C_6  and  C_7
REMARK    4  A    between atoms: C_8  and  O_20
REMARK    5  A    between atoms: C_12  and  O_19
REMARK    6  A    between atoms: C_14  and  O_18
REMARK    7  A    between atoms: O_20  and  C_21
REMARK    8  A    between atoms: C_22  and  O_35
REMARK    9  A    between atoms: C_24  and  O_34
REMARK   10  A    between atoms: C_26  and  O_33
REMARK   11  A    between atoms: C_28  and  C_31
REMARK   12  A    between atoms: C_31  and  O_32
REMARK   13  A    between atoms: O_37  and  C_38
REMARK   14  A    between atoms: C_39  and  O_52
REMARK   15  A    between atoms: C_41  and  O_51
REMARK   16  A    between atoms: C_43  and  O_50
REMARK   17  A    between atoms: C_45  and  C_48
REMARK   18  A    between atoms: C_48  and  O_49
REMARK                            x       y       z     vdW  Elec       q    Type
REMARK                         _______ _______ _______ _____ _____    ______ ____
ROOT
ATOM      1  C   UNL     1       8.112  -1.729  24.285  0.00  0.00    +0.181 A 
ATOM      2  O   UNL     1       8.041  -2.726  23.308  0.00  0.00    -0.451 OA
ATOM      3  C   UNL     1       7.271  -3.834  23.530  0.00  0.00    +0.147 A 
ATOM      4  C   UNL     1       6.836  -4.187  24.798  0.00  0.00    +0.109 A 
ATOM      5  C   UNL     1       6.163  -5.402  24.981  0.00  0.00    +0.135 A 
ATOM      6  C   UNL     1       5.874  -6.229  23.895  0.00  0.00    +0.091 A 
ATOM      7  C   UNL     1       6.270  -5.830  22.621  0.00  0.00    +0.124 A 
ATOM      8  C   UNL     1       7.063  -3.236  25.886  0.00  0.00    +0.238 A 
ATOM      9  O   UNL     1       6.822  -3.569  27.048  0.00  0.00    -0.283 OA
ATOM     10  C   UNL     1       6.968  -4.640  22.431  0.00  0.00    +0.092 A 
ATOM     11  C   UNL     1       7.555  -1.870  25.515  0.00  0.00    +0.214 A 
ENDROOT
BRANCH   1  13
ATOM     12  C   UNL     1       9.958  -0.060  24.510  0.00  0.00    +0.015 A 
ATOM     13  C   UNL     1       8.857  -0.533  23.780  0.00  0.00    +0.025 A 
ATOM     14  C   UNL     1       8.502   0.186  22.623  0.00  0.00    +0.060 A 
ATOM     15  C   UNL     1       9.192   1.344  22.255  0.00  0.00    +0.159 A 
ATOM     16  C   UNL     1      10.177   1.887  23.075  0.00  0.00    +0.165 A 
ATOM     17  C   UNL     1      10.607   1.131  24.165  0.00  0.00    +0.050 A 
BRANCH  15  18
ATOM     18  O   UNL     1       8.864   1.945  21.072  0.00  0.00    -0.503 OA
ATOM     19  H   UNL     1       9.301   2.819  21.095  0.00  0.00    +0.292 HD
ENDBRANCH  15  18
BRANCH  16  20
ATOM     20  O   UNL     1      10.593   3.168  22.768  0.00  0.00    -0.457 OA
BRANCH  20  21
ATOM     21  C   UNL     1      10.570   4.079  23.885  0.00  0.00    +0.339 C 
ATOM     22  O   UNL     1       9.551   3.788  24.846  0.00  0.00    -0.331 OA
ATOM     23  C   UNL     1       8.277   4.421  24.705  0.00  0.00    +0.179 C 
ATOM     24  C   UNL     1       8.436   5.941  24.616  0.00  0.00    +0.177 C 
ATOM     25  C   UNL     1       9.364   6.373  23.475  0.00  0.00    +0.180 C 
ATOM     26  C   UNL     1      10.680   5.577  23.483  0.00  0.00    +0.214 C 
BRANCH  26  27
ATOM     27  O   UNL     1      11.532   6.222  24.468  0.00  0.00    -0.383 OA
ATOM     28  H   UNL     1      11.997   5.497  24.938  0.00  0.00    +0.210 HD
ENDBRANCH  26  27
BRANCH  25  29
ATOM     29  O   UNL     1       8.717   6.377  22.208  0.00  0.00    -0.386 OA
ATOM     30  H   UNL     1       8.534   7.311  21.966  0.00  0.00    +0.210 HD
ENDBRANCH  25  29
BRANCH  24  31
ATOM     31  O   UNL     1       9.025   6.374  25.864  0.00  0.00    -0.386 OA
ATOM     32  H   UNL     1       9.958   6.082  25.860  0.00  0.00    +0.210 HD
ENDBRANCH  24  31
BRANCH  23  33
ATOM     33  C   UNL     1       7.361   3.782  23.643  0.00  0.00    +0.190 C 
BRANCH  33  34
ATOM     34  O   UNL     1       6.158   3.243  24.176  0.00  0.00    -0.392 OA
ATOM     35  H   UNL     1       5.514   3.237  23.441  0.00  0.00    +0.210 HD
ENDBRANCH  33  34
ENDBRANCH  23  33
ENDBRANCH  20  21
ENDBRANCH  16  20
ENDBRANCH   1  13
BRANCH   7  36
ATOM     36  O   UNL     1       5.999  -6.590  21.521  0.00  0.00    -0.507 OA
ATOM     37  H   UNL     1       5.611  -7.434  21.807  0.00  0.00    +0.292 HD
ENDBRANCH   7  36
BRANCH   5  38
ATOM     38  O   UNL     1       5.752  -5.854  26.211  0.00  0.00    -0.506 OA
ATOM     39  H   UNL     1       6.043  -5.201  26.889  0.00  0.00    +0.292 HD
ENDBRANCH   5  38
BRANCH  11  40
ATOM     40  O   UNL     1       7.393  -0.871  26.472  0.00  0.00    -0.453 OA
BRANCH  40  41
ATOM     41  C   UNL     1       6.733   0.302  25.967  0.00  0.00    +0.340 C 
ATOM     42  O   UNL     1       7.240   1.473  26.600  0.00  0.00    -0.331 OA
ATOM     43  C   UNL     1       6.431   2.292  27.447  0.00  0.00    +0.179 C 
ATOM     44  C   UNL     1       4.925   1.977  27.570  0.00  0.00    +0.177 C 
ATOM     45  C   UNL     1       4.582   0.523  27.240  0.00  0.00    +0.180 C 
ATOM     46  C   UNL     1       5.206   0.171  25.894  0.00  0.00    +0.214 C 
BRANCH  46  47
ATOM     47  O   UNL     1       4.673   1.062  24.878  0.00  0.00    -0.383 OA
ATOM     48  H   UNL     1       5.216   0.992  24.069  0.00  0.00    +0.210 HD
ENDBRANCH  46  47
BRANCH  45  49
ATOM     49  O   UNL     1       4.972  -0.397  28.253  0.00  0.00    -0.386 OA
ATOM     50  H   UNL     1       4.685  -0.070  29.132  0.00  0.00    +0.210 HD
ENDBRANCH  45  49
BRANCH  44  51
ATOM     51  O   UNL     1       4.205   2.872  26.693  0.00  0.00    -0.386 OA
ATOM     52  H   UNL     1       4.822   3.573  26.401  0.00  0.00    +0.210 HD
ENDBRANCH  44  51
BRANCH  43  53
ATOM     53  C   UNL     1       7.102   2.321  28.824  0.00  0.00    +0.190 C 
BRANCH  53  54
ATOM     54  O   UNL     1       7.742   1.072  29.076  0.00  0.00    -0.392 OA
ATOM     55  H   UNL     1       7.548   0.513  28.296  0.00  0.00    +0.210 HD
ENDBRANCH  53  54
ENDBRANCH  43  53
ENDBRANCH  40  41
ENDBRANCH  11  40
TORSDOF 18
ENDMDL
MODEL 9
REMARK VINA RESULT:      -6.3      2.523      9.414
REMARK  Name = 
REMARK  18 active torsions:
REMARK  status: ('A' for Active; 'I' for Inactive)
REMARK    1  A    between atoms: C_3  and  O_37
REMARK    2  A    between atoms: C_4  and  O_36
REMARK    3  A    between atoms: C_6  and  C_7
REMARK    4  A    between atoms: C_8  and  O_20
REMARK    5  A    between atoms: C_12  and  O_19
REMARK    6  A    between atoms: C_14  and  O_18
REMARK    7  A    between atoms: O_20  and  C_21
REMARK    8  A    between atoms: C_22  and  O_35
REMARK    9  A    between atoms: C_24  and  O_34
REMARK   10  A    between atoms: C_26  and  O_33
REMARK   11  A    between atoms: C_28  and  C_31
REMARK   12  A    between atoms: C_31  and  O_32
REMARK   13  A    between atoms: O_37  and  C_38
REMARK   14  A    between atoms: C_39  and  O_52
REMARK   15  A    between atoms: C_41  and  O_51
REMARK   16  A    between atoms: C_43  and  O_50
REMARK   17  A    between atoms: C_45  and  C_48
REMARK   18  A    between atoms: C_48  and  O_49
REMARK                            x       y       z     vdW  Elec       q    Type
REMARK                         _______ _______ _______ _____ _____    ______ ____
ROOT
ATOM      1  C   UNL     1       4.647  -2.782  26.224  0.00  0.00    +0.181 A 
ATOM      2  O   UNL     1       4.005  -3.034  27.439  0.00  0.00    -0.451 OA
ATOM      3  C   UNL     1       3.389  -4.239  27.639  0.00  0.00    +0.147 A 
ATOM      4  C   UNL     1       3.068  -5.085  26.589  0.00  0.00    +0.109 A 
ATOM      5  C   UNL     1       2.322  -6.243  26.842  0.00  0.00    +0.135 A 
ATOM      6  C   UNL     1       1.950  -6.582  28.144  0.00  0.00    +0.091 A 
ATOM      7  C   UNL     1       2.329  -5.748  29.192  0.00  0.00    +0.124 A 
ATOM      8  C   UNL     1       3.577  -4.746  25.260  0.00  0.00    +0.238 A 
ATOM      9  O   UNL     1       3.198  -5.390  24.279  0.00  0.00    -0.283 OA
ATOM     10  C   UNL     1       3.045  -4.578  28.948  0.00  0.00    +0.092 A 
ATOM     11  C   UNL     1       4.575  -3.632  25.168  0.00  0.00    +0.214 A 
ENDROOT
BRANCH   1  13
ATOM     12  C   UNL     1       4.858  -0.361  25.640  0.00  0.00    +0.015 A 
ATOM     13  C   UNL     1       5.402  -1.490  26.272  0.00  0.00    +0.025 A 
ATOM     14  C   UNL     1       6.659  -1.334  26.886  0.00  0.00    +0.060 A 
ATOM     15  C   UNL     1       7.345  -0.118  26.822  0.00  0.00    +0.159 A 
ATOM     16  C   UNL     1       6.865   0.941  26.057  0.00  0.00    +0.165 A 
ATOM     17  C   UNL     1       5.577   0.834  25.532  0.00  0.00    +0.050 A 
BRANCH  15  18
ATOM     18  O   UNL     1       8.516   0.002  27.517  0.00  0.00    -0.503 OA
ATOM     19  H   UNL     1       9.055   0.642  27.011  0.00  0.00    +0.292 HD
ENDBRANCH  15  18
BRANCH  16  20
ATOM     20  O   UNL     1       7.745   1.982  25.829  0.00  0.00    -0.457 OA
BRANCH  20  21
ATOM     21  C   UNL     1       8.708   1.723  24.789  0.00  0.00    +0.339 C 
ATOM     22  O   UNL     1       9.259   2.905  24.205  0.00  0.00    -0.331 OA
ATOM     23  C   UNL     1       8.626   3.457  23.049  0.00  0.00    +0.179 C 
ATOM     24  C   UNL     1       8.485   2.399  21.952  0.00  0.00    +0.177 C 
ATOM     25  C   UNL     1       7.722   1.155  22.424  0.00  0.00    +0.180 C 
ATOM     26  C   UNL     1       8.260   0.638  23.769  0.00  0.00    +0.214 C 
BRANCH  26  27
ATOM     27  O   UNL     1       9.434  -0.159  23.451  0.00  0.00    -0.383 OA
ATOM     28  H   UNL     1      10.006   0.413  22.896  0.00  0.00    +0.210 HD
ENDBRANCH  26  27
BRANCH  25  29
ATOM     29  O   UNL     1       6.312   1.336  22.415  0.00  0.00    -0.386 OA
ATOM     30  H   UNL     1       6.107   2.082  21.810  0.00  0.00    +0.210 HD
ENDBRANCH  25  29
BRANCH  24  31
ATOM     31  O   UNL     1       9.825   1.994  21.587  0.00  0.00    -0.386 OA
ATOM     32  H   UNL     1       9.785   1.048  21.342  0.00  0.00    +0.210 HD
ENDBRANCH  24  31
BRANCH  23  33
ATOM     33  C   UNL     1       7.356   4.280  23.348  0.00  0.00    +0.190 C 
BRANCH  33  34
ATOM     34  O   UNL     1       6.494   4.426  22.227  0.00  0.00    -0.392 OA
ATOM     35  H   UNL     1       6.305   5.382  22.153  0.00  0.00    +0.210 HD
ENDBRANCH  33  34
ENDBRANCH  23  33
ENDBRANCH  20  21
ENDBRANCH  16  20
ENDBRANCH   1  13
BRANCH   7  36
ATOM     36  O   UNL     1       2.009  -6.039  30.485  0.00  0.00    -0.507 OA
ATOM     37  H   UNL     1       1.083  -5.790  30.645  0.00  0.00    +0.292 HD
ENDBRANCH   7  36
BRANCH   5  38
ATOM     38  O   UNL     1       1.912  -7.103  25.853  0.00  0.00    -0.506 OA
ATOM     39  H   UNL     1       0.928  -7.156  25.883  0.00  0.00    +0.292 HD
ENDBRANCH   5  38
BRANCH  11  40
ATOM     40  O   UNL     1       5.336  -3.576  24.003  0.00  0.00    -0.453 OA
BRANCH  40  41
ATOM     41  C   UNL     1       6.173  -4.729  23.811  0.00  0.00    +0.340 C 
ATOM     42  O   UNL     1       6.354  -5.425  25.040  0.00  0.00    -0.331 OA
ATOM     43  C   UNL     1       7.630  -5.530  25.675  0.00  0.00    +0.179 C 
ATOM     44  C   UNL     1       8.875  -4.991  24.939  0.00  0.00    +0.177 C 
ATOM     45  C   UNL     1       8.546  -3.919  23.899  0.00  0.00    +0.180 C 
ATOM     46  C   UNL     1       7.439  -4.446  22.992  0.00  0.00    +0.214 C 
BRANCH  46  47
ATOM     47  O   UNL     1       7.899  -5.661  22.342  0.00  0.00    -0.383 OA
ATOM     48  H   UNL     1       7.756  -5.586  21.378  0.00  0.00    +0.210 HD
ENDBRANCH  46  47
BRANCH  45  49
ATOM     49  O   UNL     1       8.200  -2.662  24.468  0.00  0.00    -0.386 OA
ATOM     50  H   UNL     1       8.729  -1.948  24.051  0.00  0.00    +0.210 HD
ENDBRANCH  45  49
BRANCH  44  51
ATOM     51  O   UNL     1       9.545  -6.107  24.311  0.00  0.00    -0.386 OA
ATOM     52  H   UNL     1       8.863  -6.679  23.901  0.00  0.00    +0.210 HD
ENDBRANCH  44  51
BRANCH  43  53
ATOM     53  C   UNL     1       7.497  -4.899  27.066  0.00  0.00    +0.190 C 
BRANCH  53  54
ATOM     54  O   UNL     1       7.464  -5.922  28.059  0.00  0.00    -0.392 OA
ATOM     55  H   UNL     1       6.917  -6.641  27.681  0.00  0.00    +0.210 HD
ENDBRANCH  53  54
ENDBRANCH  43  53
ENDBRANCH  40  41
ENDBRANCH  11  40
TORSDOF 18
ENDMDL
