MODEL 1
REMARK VINA RESULT:      -7.3      0.000      0.000
REMARK  Name = 
REMARK  21 active torsions:
REMARK  status: ('A' for Active; 'I' for Inactive)
REMARK    1  A    between atoms: C_3  and  O_38
REMARK    2  A    between atoms: C_4  and  O_33
REMARK    3  A    between atoms: C_6  and  C_7
REMARK    4  A    between atoms: C_8  and  O_28
REMARK    5  A    between atoms: C_15  and  O_23
REMARK    6  A    between atoms: C_17  and  O_18
REMARK    7  A    between atoms: O_18  and  P_19
REMARK    8  A    between atoms: P_19  and  O_21
REMARK    9  A    between atoms: P_19  and  O_22
REMARK   10  A    between atoms: O_23  and  P_24
REMARK   11  A    between atoms: P_24  and  O_26
REMARK   12  A    between atoms: P_24  and  O_27
REMARK   13  A    between atoms: O_28  and  P_29
REMARK   14  A    between atoms: P_29  and  O_31
REMARK   15  A    between atoms: P_29  and  O_32
REMARK   16  A    between atoms: O_33  and  P_34
REMARK   17  A    between atoms: P_34  and  O_36
REMARK   18  A    between atoms: P_34  and  O_37
REMARK   19  A    between atoms: O_38  and  P_39
REMARK   20  A    between atoms: P_39  and  O_41
REMARK   21  A    between atoms: P_39  and  O_42
REMARK                            x       y       z     vdW  Elec       q    Type
REMARK                         _______ _______ _______ _____ _____    ______ ____
ROOT
ATOM      1  C   UNL     1       7.352  -2.810  24.210  0.00  0.00    +0.181 A 
ATOM      2  O   UNL     1       6.475  -3.712  23.604  0.00  0.00    -0.451 OA
ATOM      3  C   UNL     1       5.989  -4.760  24.360  0.00  0.00    +0.147 A 
ATOM      4  C   UNL     1       5.041  -5.621  23.780  0.00  0.00    +0.093 A 
ATOM      5  C   UNL     1       4.593  -6.719  24.517  0.00  0.00    +0.139 A 
ATOM      6  C   UNL     1       4.965  -6.840  25.853  0.00  0.00    +0.093 A 
ATOM      7  C   UNL     1       5.875  -5.987  26.444  0.00  0.00    +0.150 A 
ATOM      8  C   UNL     1       6.448  -4.995  25.659  0.00  0.00    +0.110 A 
ATOM      9  C   UNL     1       7.574  -4.207  26.147  0.00  0.00    +0.239 A 
ATOM     10  O   UNL     1       8.284  -4.588  27.075  0.00  0.00    -0.283 OA
ATOM     11  C   UNL     1       7.866  -2.946  25.444  0.00  0.00    +0.222 A 
ENDROOT
BRANCH   1  13
ATOM     12  C   UNL     1       9.030  -1.752  22.677  0.00  0.00    +0.015 A 
ATOM     13  C   UNL     1       7.786  -1.729  23.313  0.00  0.00    +0.025 A 
ATOM     14  C   UNL     1       6.954  -0.608  23.162  0.00  0.00    +0.061 A 
ATOM     15  C   UNL     1       7.425   0.526  22.510  0.00  0.00    +0.175 A 
ATOM     16  C   UNL     1       8.769   0.582  22.112  0.00  0.00    +0.174 A 
ATOM     17  C   UNL     1       9.533  -0.585  22.094  0.00  0.00    +0.051 A 
BRANCH  15  18
ATOM     18  O   UNL     1       6.631   1.599  22.210  0.00  0.00    -0.400 OA
BRANCH  18  19
ATOM     19  P   UNL     1       5.976   2.612  23.247  0.00  0.00    +0.528 P 
ATOM     20  O   UNL     1       6.648   2.805  24.563  0.00  0.00    -0.216 OA
BRANCH  19  21
ATOM     21  O   UNL     1       5.901   3.981  22.417  0.00  0.00    -0.293 OA
ATOM     22  H   UNL     1       6.735   4.473  22.487  0.00  0.00    +0.223 HD
ENDBRANCH  19  21
BRANCH  19  23
ATOM     23  O   UNL     1       4.408   2.285  23.373  0.00  0.00    -0.293 OA
ATOM     24  H   UNL     1       3.903   2.771  22.696  0.00  0.00    +0.223 HD
ENDBRANCH  19  23
ENDBRANCH  18  19
ENDBRANCH  15  18
BRANCH  16  25
ATOM     25  O   UNL     1       9.290   1.823  21.853  0.00  0.00    -0.400 OA
BRANCH  25  26
ATOM     26  P   UNL     1       9.873   2.851  22.933  0.00  0.00    +0.528 P 
ATOM     27  O   UNL     1      10.095   2.336  24.313  0.00  0.00    -0.216 OA
BRANCH  26  28
ATOM     28  O   UNL     1      11.235   3.380  22.281  0.00  0.00    -0.293 OA
ATOM     29  H   UNL     1      11.467   4.260  22.631  0.00  0.00    +0.223 HD
ENDBRANCH  26  28
BRANCH  26  30
ATOM     30  O   UNL     1       8.997   4.189  22.912  0.00  0.00    -0.293 OA
ATOM     31  H   UNL     1       9.491   4.907  22.475  0.00  0.00    +0.223 HD
ENDBRANCH  26  30
ENDBRANCH  25  26
ENDBRANCH  16  25
ENDBRANCH   1  13
BRANCH  11  32
ATOM     32  O   UNL     1       8.714  -2.029  26.024  0.00  0.00    -0.396 OA
BRANCH  32  33
ATOM     33  P   UNL     1       8.281  -0.687  26.795  0.00  0.00    +0.528 P 
ATOM     34  O   UNL     1       6.843  -0.623  27.198  0.00  0.00    -0.216 OA
BRANCH  33  35
ATOM     35  O   UNL     1       9.285  -0.394  28.001  0.00  0.00    -0.293 OA
ATOM     36  H   UNL     1       9.498  -1.241  28.468  0.00  0.00    +0.223 HD
ENDBRANCH  33  35
BRANCH  33  37
ATOM     37  O   UNL     1       8.632   0.520  25.809  0.00  0.00    -0.293 OA
ATOM     38  H   UNL     1       8.337   1.356  26.217  0.00  0.00    +0.223 HD
ENDBRANCH  33  37
ENDBRANCH  32  33
ENDBRANCH  11  32
BRANCH   7  39
ATOM     39  O   UNL     1       6.187  -6.123  27.768  0.00  0.00    -0.403 OA
BRANCH  39  40
ATOM     40  P   UNL     1       5.105  -5.955  28.945  0.00  0.00    +0.528 P 
ATOM     41  O   UNL     1       4.025  -4.947  28.746  0.00  0.00    -0.216 OA
BRANCH  40  42
ATOM     42  O   UNL     1       4.519  -7.418  29.210  0.00  0.00    -0.293 OA
ATOM     43  H   UNL     1       5.217  -8.083  29.352  0.00  0.00    +0.223 HD
ENDBRANCH  40  42
BRANCH  40  44
ATOM     44  O   UNL     1       5.936  -5.725  30.291  0.00  0.00    -0.293 OA
ATOM     45  H   UNL     1       6.042  -4.775  30.468  0.00  0.00    +0.223 HD
ENDBRANCH  40  44
ENDBRANCH  39  40
ENDBRANCH   7  39
BRANCH   5  46
ATOM     46  O   UNL     1       3.842  -7.718  23.937  0.00  0.00    -0.404 OA
BRANCH  46  47
ATOM     47  P   UNL     1       2.355  -8.014  24.508  0.00  0.00    +0.528 P 
ATOM     48  O   UNL     1       1.704  -6.924  25.295  0.00  0.00    -0.216 OA
BRANCH  47  49
ATOM     49  O   UNL     1       1.489  -8.449  23.231  0.00  0.00    -0.293 OA
ATOM     50  H   UNL     1       2.050  -8.722  22.482  0.00  0.00    +0.223 HD
ENDBRANCH  47  49
BRANCH  47  51
ATOM     51  O   UNL     1       2.372  -9.376  25.331  0.00  0.00    -0.293 OA
ATOM     52  H   UNL     1       2.850 -10.036  24.788  0.00  0.00    +0.223 HD
ENDBRANCH  47  51
ENDBRANCH  46  47
ENDBRANCH   5  46
TORSDOF 21
ENDMDL
MODEL 2
REMARK VINA RESULT:      -7.1      2.502      3.617
REMARK  Name = 
REMARK  21 active torsions:
REMARK  status: ('A' for Active; 'I' for Inactive)
REMARK    1  A    between atoms: C_3  and  O_38
REMARK    2  A    between atoms: C_4  and  O_33
REMARK    3  A    between atoms: C_6  and  C_7
REMARK    4  A    between atoms: C_8  and  O_28
REMARK    5  A    between atoms: C_15  and  O_23
REMARK    6  A    between atoms: C_17  and  O_18
REMARK    7  A    between atoms: O_18  and  P_19
REMARK    8  A    between atoms: P_19  and  O_21
REMARK    9  A    between atoms: P_19  and  O_22
REMARK   10  A    between atoms: O_23  and  P_24
REMARK   11  A    between atoms: P_24  and  O_26
REMARK   12  A    between atoms: P_24  and  O_27
REMARK   13  A    between atoms: O_28  and  P_29
REMARK   14  A    between atoms: P_29  and  O_31
REMARK   15  A    between atoms: P_29  and  O_32
REMARK   16  A    between atoms: O_33  and  P_34
REMARK   17  A    between atoms: P_34  and  O_36
REMARK   18  A    between atoms: P_34  and  O_37
REMARK   19  A    between atoms: O_38  and  P_39
REMARK   20  A    between atoms: P_39  and  O_41
REMARK   21  A    between atoms: P_39  and  O_42
REMARK                            x       y       z     vdW  Elec       q    Type
REMARK                         _______ _______ _______ _____ _____    ______ ____
ROOT
ATOM      1  C   UNL     1       7.417  -0.392  22.816  0.00  0.00    +0.181 A 
ATOM      2  O   UNL     1       6.293  -1.187  22.580  0.00  0.00    -0.451 OA
ATOM      3  C   UNL     1       6.382  -2.539  22.838  0.00  0.00    +0.147 A 
ATOM      4  C   UNL     1       5.229  -3.329  22.683  0.00  0.00    +0.093 A 
ATOM      5  C   UNL     1       5.327  -4.707  22.884  0.00  0.00    +0.139 A 
ATOM      6  C   UNL     1       6.512  -5.239  23.388  0.00  0.00    +0.093 A 
ATOM      7  C   UNL     1       7.644  -4.472  23.570  0.00  0.00    +0.150 A 
ATOM      8  C   UNL     1       7.592  -3.132  23.210  0.00  0.00    +0.110 A 
ATOM      9  C   UNL     1       8.802  -2.319  23.161  0.00  0.00    +0.239 A 
ATOM     10  O   UNL     1       9.921  -2.819  23.080  0.00  0.00    -0.283 OA
ATOM     11  C   UNL     1       8.629  -0.856  23.160  0.00  0.00    +0.222 A 
ENDROOT
BRANCH   1  13
ATOM     12  C   UNL     1       8.018   1.741  21.641  0.00  0.00    +0.015 A 
ATOM     13  C   UNL     1       7.195   1.031  22.521  0.00  0.00    +0.025 A 
ATOM     14  C   UNL     1       6.175   1.708  23.208  0.00  0.00    +0.061 A 
ATOM     15  C   UNL     1       6.082   3.093  23.129  0.00  0.00    +0.175 A 
ATOM     16  C   UNL     1       7.080   3.812  22.455  0.00  0.00    +0.174 A 
ATOM     17  C   UNL     1       7.976   3.138  21.626  0.00  0.00    +0.051 A 
BRANCH  15  18
ATOM     18  O   UNL     1       5.039   3.803  23.661  0.00  0.00    -0.400 OA
BRANCH  18  19
ATOM     19  P   UNL     1       3.762   4.337  22.877  0.00  0.00    +0.528 P 
ATOM     20  O   UNL     1       2.483   4.478  23.628  0.00  0.00    -0.216 OA
BRANCH  19  21
ATOM     21  O   UNL     1       4.259   5.744  22.293  0.00  0.00    -0.293 OA
ATOM     22  H   UNL     1       5.100   6.009  22.701  0.00  0.00    +0.223 HD
ENDBRANCH  19  21
BRANCH  19  23
ATOM     23  O   UNL     1       3.610   3.513  21.507  0.00  0.00    -0.293 OA
ATOM     24  H   UNL     1       4.104   3.950  20.789  0.00  0.00    +0.223 HD
ENDBRANCH  19  23
ENDBRANCH  18  19
ENDBRANCH  15  18
BRANCH  16  25
ATOM     25  O   UNL     1       7.179   5.150  22.735  0.00  0.00    -0.400 OA
BRANCH  25  26
ATOM     26  P   UNL     1       8.272   5.844  23.676  0.00  0.00    +0.528 P 
ATOM     27  O   UNL     1       7.855   7.066  24.418  0.00  0.00    -0.216 OA
BRANCH  26  28
ATOM     28  O   UNL     1       8.731   4.682  24.676  0.00  0.00    -0.293 OA
ATOM     29  H   UNL     1       8.123   3.920  24.624  0.00  0.00    +0.223 HD
ENDBRANCH  26  28
BRANCH  26  30
ATOM     30  O   UNL     1       9.620   6.064  22.843  0.00  0.00    -0.293 OA
ATOM     31  H   UNL     1       9.476   5.836  21.906  0.00  0.00    +0.223 HD
ENDBRANCH  26  30
ENDBRANCH  25  26
ENDBRANCH  16  25
ENDBRANCH   1  13
BRANCH  11  32
ATOM     32  O   UNL     1       9.715  -0.047  23.406  0.00  0.00    -0.396 OA
BRANCH  32  33
ATOM     33  P   UNL     1      10.139   0.572  24.829  0.00  0.00    +0.528 P 
ATOM     34  O   UNL     1      11.610   0.736  25.035  0.00  0.00    -0.216 OA
BRANCH  33  35
ATOM     35  O   UNL     1       9.311   1.905  25.120  0.00  0.00    -0.293 OA
ATOM     36  H   UNL     1       9.624   2.628  24.520  0.00  0.00    +0.223 HD
ENDBRANCH  33  35
BRANCH  33  37
ATOM     37  O   UNL     1       9.532  -0.409  25.934  0.00  0.00    -0.293 OA
ATOM     38  H   UNL     1       9.036   0.120  26.586  0.00  0.00    +0.223 HD
ENDBRANCH  33  37
ENDBRANCH  32  33
ENDBRANCH  11  32
BRANCH   7  39
ATOM     39  O   UNL     1       8.775  -5.029  24.098  0.00  0.00    -0.403 OA
BRANCH  39  40
ATOM     40  P   UNL     1       9.152  -4.936  25.658  0.00  0.00    +0.528 P 
ATOM     41  O   UNL     1       9.020  -3.605  26.318  0.00  0.00    -0.216 OA
BRANCH  40  42
ATOM     42  O   UNL     1       8.273  -6.055  26.386  0.00  0.00    -0.293 OA
ATOM     43  H   UNL     1       8.095  -5.844  27.321  0.00  0.00    +0.223 HD
ENDBRANCH  40  42
BRANCH  40  44
ATOM     44  O   UNL     1      10.612  -5.567  25.808  0.00  0.00    -0.293 OA
ATOM     45  H   UNL     1      11.250  -4.889  26.087  0.00  0.00    +0.223 HD
ENDBRANCH  40  44
ENDBRANCH  39  40
ENDBRANCH   7  39
BRANCH   5  46
ATOM     46  O   UNL     1       4.303  -5.560  22.536  0.00  0.00    -0.404 OA
BRANCH  46  47
ATOM     47  P   UNL     1       3.384  -6.201  23.706  0.00  0.00    +0.528 P 
ATOM     48  O   UNL     1       3.232  -5.402  24.959  0.00  0.00    -0.216 OA
BRANCH  47  49
ATOM     49  O   UNL     1       1.976  -6.523  23.011  0.00  0.00    -0.293 OA
ATOM     50  H   UNL     1       1.262  -5.945  23.340  0.00  0.00    +0.223 HD
ENDBRANCH  47  49
BRANCH  47  51
ATOM     51  O   UNL     1       3.897  -7.672  24.030  0.00  0.00    -0.293 OA
ATOM     52  H   UNL     1       4.178  -7.680  24.969  0.00  0.00    +0.223 HD
ENDBRANCH  47  51
ENDBRANCH  46  47
ENDBRANCH   5  46
TORSDOF 21
ENDMDL
MODEL 3
REMARK VINA RESULT:      -6.6      2.583      4.518
REMARK  Name = 
REMARK  21 active torsions:
REMARK  status: ('A' for Active; 'I' for Inactive)
REMARK    1  A    between atoms: C_3  and  O_38
REMARK    2  A    between atoms: C_4  and  O_33
REMARK    3  A    between atoms: C_6  and  C_7
REMARK    4  A    between atoms: C_8  and  O_28
REMARK    5  A    between atoms: C_15  and  O_23
REMARK    6  A    between atoms: C_17  and  O_18
REMARK    7  A    between atoms: O_18  and  P_19
REMARK    8  A    between atoms: P_19  and  O_21
REMARK    9  A    between atoms: P_19  and  O_22
REMARK   10  A    between atoms: O_23  and  P_24
REMARK   11  A    between atoms: P_24  and  O_26
REMARK   12  A    between atoms: P_24  and  O_27
REMARK   13  A    between atoms: O_28  and  P_29
REMARK   14  A    between atoms: P_29  and  O_31
REMARK   15  A    between atoms: P_29  and  O_32
REMARK   16  A    between atoms: O_33  and  P_34
REMARK   17  A    between atoms: P_34  and  O_36
REMARK   18  A    between atoms: P_34  and  O_37
REMARK   19  A    between atoms: O_38  and  P_39
REMARK   20  A    between atoms: P_39  and  O_41
REMARK   21  A    between atoms: P_39  and  O_42
REMARK                            x       y       z     vdW  Elec       q    Type
REMARK                         _______ _______ _______ _____ _____    ______ ____
ROOT
ATOM      1  C   UNL     1       6.608  -0.191  24.138  0.00  0.00    +0.181 A 
ATOM      2  O   UNL     1       5.646  -1.100  23.691  0.00  0.00    -0.451 OA
ATOM      3  C   UNL     1       5.994  -2.433  23.611  0.00  0.00    +0.147 A 
ATOM      4  C   UNL     1       5.005  -3.362  23.243  0.00  0.00    +0.093 A 
ATOM      5  C   UNL     1       5.365  -4.704  23.100  0.00  0.00    +0.139 A 
ATOM      6  C   UNL     1       6.641  -5.111  23.482  0.00  0.00    +0.093 A 
ATOM      7  C   UNL     1       7.614  -4.214  23.871  0.00  0.00    +0.150 A 
ATOM      8  C   UNL     1       7.303  -2.860  23.851  0.00  0.00    +0.110 A 
ATOM      9  C   UNL     1       8.338  -1.848  24.027  0.00  0.00    +0.239 A 
ATOM     10  O   UNL     1       9.528  -2.093  23.849  0.00  0.00    -0.283 OA
ATOM     11  C   UNL     1       7.894  -0.489  24.383  0.00  0.00    +0.222 A 
ENDROOT
BRANCH   1  13
ATOM     12  C   UNL     1       5.186   1.606  25.157  0.00  0.00    +0.015 A 
ATOM     13  C   UNL     1       6.116   1.193  24.197  0.00  0.00    +0.025 A 
ATOM     14  C   UNL     1       6.536   2.097  23.209  0.00  0.00    +0.061 A 
ATOM     15  C   UNL     1       5.922   3.341  23.096  0.00  0.00    +0.175 A 
ATOM     16  C   UNL     1       4.809   3.633  23.898  0.00  0.00    +0.174 A 
ATOM     17  C   UNL     1       4.514   2.822  24.993  0.00  0.00    +0.051 A 
BRANCH  15  18
ATOM     18  O   UNL     1       6.367   4.319  22.249  0.00  0.00    -0.400 OA
BRANCH  18  19
ATOM     19  P   UNL     1       7.310   5.542  22.629  0.00  0.00    +0.528 P 
ATOM     20  O   UNL     1       8.616   5.249  23.283  0.00  0.00    -0.216 OA
BRANCH  19  21
ATOM     21  O   UNL     1       7.509   6.294  21.228  0.00  0.00    -0.293 OA
ATOM     22  H   UNL     1       6.898   7.044  21.149  0.00  0.00    +0.223 HD
ENDBRANCH  19  21
BRANCH  19  23
ATOM     23  O   UNL     1       6.441   6.646  23.408  0.00  0.00    -0.293 OA
ATOM     24  H   UNL     1       6.946   7.475  23.500  0.00  0.00    +0.223 HD
ENDBRANCH  19  23
ENDBRANCH  18  19
ENDBRANCH  15  18
BRANCH  16  25
ATOM     25  O   UNL     1       4.004   4.664  23.491  0.00  0.00    -0.400 OA
BRANCH  25  26
ATOM     26  P   UNL     1       2.702   4.544  22.567  0.00  0.00    +0.528 P 
ATOM     27  O   UNL     1       1.407   4.987  23.152  0.00  0.00    -0.216 OA
BRANCH  26  28
ATOM     28  O   UNL     1       3.069   5.383  21.255  0.00  0.00    -0.293 OA
ATOM     29  H   UNL     1       2.461   5.167  20.524  0.00  0.00    +0.223 HD
ENDBRANCH  26  28
BRANCH  26  30
ATOM     30  O   UNL     1       2.625   3.066  21.958  0.00  0.00    -0.293 OA
ATOM     31  H   UNL     1       2.646   2.406  22.676  0.00  0.00    +0.223 HD
ENDBRANCH  26  30
ENDBRANCH  25  26
ENDBRANCH  16  25
ENDBRANCH   1  13
BRANCH  11  32
ATOM     32  O   UNL     1       8.816   0.424  24.843  0.00  0.00    -0.396 OA
BRANCH  32  33
ATOM     33  P   UNL     1      10.048   1.036  24.010  0.00  0.00    +0.528 P 
ATOM     34  O   UNL     1      11.403   0.689  24.536  0.00  0.00    -0.216 OA
BRANCH  33  35
ATOM     35  O   UNL     1       9.877   0.716  22.455  0.00  0.00    -0.293 OA
ATOM     36  H   UNL     1      10.726   0.906  21.982  0.00  0.00    +0.223 HD
ENDBRANCH  33  35
BRANCH  33  37
ATOM     37  O   UNL     1       9.841   2.620  24.018  0.00  0.00    -0.293 OA
ATOM     38  H   UNL     1      10.016   2.956  24.917  0.00  0.00    +0.223 HD
ENDBRANCH  33  37
ENDBRANCH  32  33
ENDBRANCH  11  32
BRANCH   7  39
ATOM     39  O   UNL     1       8.844  -4.660  24.269  0.00  0.00    -0.403 OA
BRANCH  39  40
ATOM     40  P   UNL     1       9.223  -4.926  25.808  0.00  0.00    +0.528 P 
ATOM     41  O   UNL     1       9.119  -3.775  26.750  0.00  0.00    -0.216 OA
BRANCH  40  42
ATOM     42  O   UNL     1       8.322  -6.162  26.271  0.00  0.00    -0.293 OA
ATOM     43  H   UNL     1       8.854  -6.931  26.550  0.00  0.00    +0.223 HD
ENDBRANCH  40  42
BRANCH  40  44
ATOM     44  O   UNL     1      10.670  -5.603  25.805  0.00  0.00    -0.293 OA
ATOM     45  H   UNL     1      11.347  -4.962  26.080  0.00  0.00    +0.223 HD
ENDBRANCH  40  44
ENDBRANCH  39  40
ENDBRANCH   7  39
BRANCH   5  46
ATOM     46  O   UNL     1       4.510  -5.623  22.532  0.00  0.00    -0.404 OA
BRANCH  46  47
ATOM     47  P   UNL     1       3.465  -6.416  23.484  0.00  0.00    +0.528 P 
ATOM     48  O   UNL     1       2.777  -5.618  24.543  0.00  0.00    -0.216 OA
BRANCH  47  49
ATOM     49  O   UNL     1       2.433  -7.124  22.483  0.00  0.00    -0.293 OA
ATOM     50  H   UNL     1       1.996  -7.895  22.890  0.00  0.00    +0.223 HD
ENDBRANCH  47  49
BRANCH  47  51
ATOM     51  O   UNL     1       4.189  -7.686  24.111  0.00  0.00    -0.293 OA
ATOM     52  H   UNL     1       4.349  -8.318  23.380  0.00  0.00    +0.223 HD
ENDBRANCH  47  51
ENDBRANCH  46  47
ENDBRANCH   5  46
TORSDOF 21
ENDMDL
MODEL 4
REMARK VINA RESULT:      -6.6      2.332      4.800
REMARK  Name = 
REMARK  21 active torsions:
REMARK  status: ('A' for Active; 'I' for Inactive)
REMARK    1  A    between atoms: C_3  and  O_38
REMARK    2  A    between atoms: C_4  and  O_33
REMARK    3  A    between atoms: C_6  and  C_7
REMARK    4  A    between atoms: C_8  and  O_28
REMARK    5  A    between atoms: C_15  and  O_23
REMARK    6  A    between atoms: C_17  and  O_18
REMARK    7  A    between atoms: O_18  and  P_19
REMARK    8  A    between atoms: P_19  and  O_21
REMARK    9  A    between atoms: P_19  and  O_22
REMARK   10  A    between atoms: O_23  and  P_24
REMARK   11  A    between atoms: P_24  and  O_26
REMARK   12  A    between atoms: P_24  and  O_27
REMARK   13  A    between atoms: O_28  and  P_29
REMARK   14  A    between atoms: P_29  and  O_31
REMARK   15  A    between atoms: P_29  and  O_32
REMARK   16  A    between atoms: O_33  and  P_34
REMARK   17  A    between atoms: P_34  and  O_36
REMARK   18  A    between atoms: P_34  and  O_37
REMARK   19  A    between atoms: O_38  and  P_39
REMARK   20  A    between atoms: P_39  and  O_41
REMARK   21  A    between atoms: P_39  and  O_42
REMARK                            x       y       z     vdW  Elec       q    Type
REMARK                         _______ _______ _______ _____ _____    ______ ____
ROOT
ATOM      1  C   UNL     1       6.428  -0.418  24.983  0.00  0.00    +0.181 A 
ATOM      2  O   UNL     1       5.850  -1.009  26.109  0.00  0.00    -0.451 OA
ATOM      3  C   UNL     1       5.646  -2.373  26.101  0.00  0.00    +0.147 A 
ATOM      4  C   UNL     1       5.144  -2.984  27.263  0.00  0.00    +0.093 A 
ATOM      5  C   UNL     1       4.877  -4.354  27.240  0.00  0.00    +0.139 A 
ATOM      6  C   UNL     1       5.266  -5.105  26.134  0.00  0.00    +0.093 A 
ATOM      7  C   UNL     1       5.785  -4.523  24.995  0.00  0.00    +0.150 A 
ATOM      8  C   UNL     1       5.893  -3.139  24.958  0.00  0.00    +0.110 A 
ATOM      9  C   UNL     1       6.216  -2.444  23.717  0.00  0.00    +0.239 A 
ATOM     10  O   UNL     1       6.060  -2.966  22.616  0.00  0.00    -0.283 OA
ATOM     11  C   UNL     1       6.692  -1.055  23.831  0.00  0.00    +0.222 A 
ENDROOT
BRANCH   1  13
ATOM     12  C   UNL     1       5.539   1.893  25.379  0.00  0.00    +0.015 A 
ATOM     13  C   UNL     1       6.611   1.034  25.118  0.00  0.00    +0.025 A 
ATOM     14  C   UNL     1       7.888   1.573  24.895  0.00  0.00    +0.061 A 
ATOM     15  C   UNL     1       8.055   2.949  24.788  0.00  0.00    +0.175 A 
ATOM     16  C   UNL     1       6.925   3.781  24.787  0.00  0.00    +0.174 A 
ATOM     17  C   UNL     1       5.692   3.270  25.191  0.00  0.00    +0.051 A 
BRANCH  15  18
ATOM     18  O   UNL     1       9.282   3.549  24.706  0.00  0.00    -0.400 OA
BRANCH  18  19
ATOM     19  P   UNL     1      10.382   3.303  23.583  0.00  0.00    +0.528 P 
ATOM     20  O   UNL     1      11.379   2.217  23.799  0.00  0.00    -0.216 OA
BRANCH  19  21
ATOM     21  O   UNL     1       9.504   3.042  22.268  0.00  0.00    -0.293 OA
ATOM     22  H   UNL     1       9.033   3.849  22.003  0.00  0.00    +0.223 HD
ENDBRANCH  19  21
BRANCH  19  23
ATOM     23  O   UNL     1      11.048   4.711  23.190  0.00  0.00    -0.293 OA
ATOM     24  H   UNL     1      10.634   5.071  22.385  0.00  0.00    +0.223 HD
ENDBRANCH  19  23
ENDBRANCH  18  19
ENDBRANCH  15  18
BRANCH  16  25
ATOM     25  O   UNL     1       7.084   5.046  24.285  0.00  0.00    -0.400 OA
BRANCH  25  26
ATOM     26  P   UNL     1       6.893   5.492  22.760  0.00  0.00    +0.528 P 
ATOM     27  O   UNL     1       5.878   6.546  22.481  0.00  0.00    -0.216 OA
BRANCH  26  28
ATOM     28  O   UNL     1       8.354   5.949  22.295  0.00  0.00    -0.293 OA
ATOM     29  H   UNL     1       8.432   5.924  21.323  0.00  0.00    +0.223 HD
ENDBRANCH  26  28
BRANCH  26  30
ATOM     30  O   UNL     1       6.689   4.191  21.853  0.00  0.00    -0.293 OA
ATOM     31  H   UNL     1       7.511   3.667  21.828  0.00  0.00    +0.223 HD
ENDBRANCH  26  30
ENDBRANCH  25  26
ENDBRANCH  16  25
ENDBRANCH   1  13
BRANCH  11  32
ATOM     32  O   UNL     1       7.281  -0.451  22.742  0.00  0.00    -0.396 OA
BRANCH  32  33
ATOM     33  P   UNL     1       8.798  -0.651  22.247  0.00  0.00    +0.528 P 
ATOM     34  O   UNL     1       9.307   0.405  21.320  0.00  0.00    -0.216 OA
BRANCH  33  35
ATOM     35  O   UNL     1       9.758  -0.905  23.498  0.00  0.00    -0.293 OA
ATOM     36  H   UNL     1      10.160  -0.047  23.786  0.00  0.00    +0.223 HD
ENDBRANCH  33  35
BRANCH  33  37
ATOM     37  O   UNL     1       8.844  -2.081  21.535  0.00  0.00    -0.293 OA
ATOM     38  H   UNL     1       9.639  -2.558  21.839  0.00  0.00    +0.223 HD
ENDBRANCH  33  37
ENDBRANCH  32  33
ENDBRANCH  11  32
BRANCH   7  39
ATOM     39  O   UNL     1       6.183  -5.302  23.944  0.00  0.00    -0.403 OA
BRANCH  39  40
ATOM     40  P   UNL     1       5.153  -6.118  23.018  0.00  0.00    +0.528 P 
ATOM     41  O   UNL     1       3.904  -5.418  22.598  0.00  0.00    -0.216 OA
BRANCH  40  42
ATOM     42  O   UNL     1       6.003  -6.628  21.765  0.00  0.00    -0.293 OA
ATOM     43  H   UNL     1       6.964  -6.611  21.931  0.00  0.00    +0.223 HD
ENDBRANCH  40  42
BRANCH  40  44
ATOM     44  O   UNL     1       4.874  -7.502  23.765  0.00  0.00    -0.293 OA
ATOM     45  H   UNL     1       5.700  -7.870  24.121  0.00  0.00    +0.223 HD
ENDBRANCH  40  44
ENDBRANCH  39  40
ENDBRANCH   7  39
BRANCH   5  46
ATOM     46  O   UNL     1       4.182  -4.970  28.258  0.00  0.00    -0.404 OA
BRANCH  46  47
ATOM     47  P   UNL     1       4.951  -6.048  29.192  0.00  0.00    +0.528 P 
ATOM     48  O   UNL     1       6.370  -5.744  29.548  0.00  0.00    -0.216 OA
BRANCH  47  49
ATOM     49  O   UNL     1       4.021  -6.229  30.484  0.00  0.00    -0.293 OA
ATOM     50  H   UNL     1       3.728  -7.152  30.601  0.00  0.00    +0.223 HD
ENDBRANCH  47  49
BRANCH  47  51
ATOM     51  O   UNL     1       4.828  -7.492  28.535  0.00  0.00    -0.293 OA
ATOM     52  H   UNL     1       4.759  -8.139  29.267  0.00  0.00    +0.223 HD
ENDBRANCH  47  51
ENDBRANCH  46  47
ENDBRANCH   5  46
TORSDOF 21
ENDMDL
MODEL 5
REMARK VINA RESULT:      -6.5      2.459      9.889
REMARK  Name = 
REMARK  21 active torsions:
REMARK  status: ('A' for Active; 'I' for Inactive)
REMARK    1  A    between atoms: C_3  and  O_38
REMARK    2  A    between atoms: C_4  and  O_33
REMARK    3  A    between atoms: C_6  and  C_7
REMARK    4  A    between atoms: C_8  and  O_28
REMARK    5  A    between atoms: C_15  and  O_23
REMARK    6  A    between atoms: C_17  and  O_18
REMARK    7  A    between atoms: O_18  and  P_19
REMARK    8  A    between atoms: P_19  and  O_21
REMARK    9  A    between atoms: P_19  and  O_22
REMARK   10  A    between atoms: O_23  and  P_24
REMARK   11  A    between atoms: P_24  and  O_26
REMARK   12  A    between atoms: P_24  and  O_27
REMARK   13  A    between atoms: O_28  and  P_29
REMARK   14  A    between atoms: P_29  and  O_31
REMARK   15  A    between atoms: P_29  and  O_32
REMARK   16  A    between atoms: O_33  and  P_34
REMARK   17  A    between atoms: P_34  and  O_36
REMARK   18  A    between atoms: P_34  and  O_37
REMARK   19  A    between atoms: O_38  and  P_39
REMARK   20  A    between atoms: P_39  and  O_41
REMARK   21  A    between atoms: P_39  and  O_42
REMARK                            x       y       z     vdW  Elec       q    Type
REMARK                         _______ _______ _______ _____ _____    ______ ____
ROOT
ATOM      1  C   UNL     1       7.958  -0.586  23.926  0.00  0.00    +0.181 A 
ATOM      2  O   UNL     1       9.228  -0.068  23.661  0.00  0.00    -0.451 OA
ATOM      3  C   UNL     1       9.424   1.290  23.804  0.00  0.00    +0.147 A 
ATOM      4  C   UNL     1      10.720   1.803  23.621  0.00  0.00    +0.093 A 
ATOM      5  C   UNL     1      10.913   3.183  23.703  0.00  0.00    +0.139 A 
ATOM      6  C   UNL     1       9.862   3.994  24.124  0.00  0.00    +0.093 A 
ATOM      7  C   UNL     1       8.590   3.501  24.333  0.00  0.00    +0.150 A 
ATOM      8  C   UNL     1       8.362   2.154  24.087  0.00  0.00    +0.110 A 
ATOM      9  C   UNL     1       7.008   1.612  24.067  0.00  0.00    +0.239 A 
ATOM     10  O   UNL     1       6.021   2.327  23.909  0.00  0.00    -0.283 OA
ATOM     11  C   UNL     1       6.867   0.151  24.192  0.00  0.00    +0.222 A 
ENDROOT
BRANCH   1  13
ATOM     12  C   UNL     1       7.670  -2.632  22.506  0.00  0.00    +0.015 A 
ATOM     13  C   UNL     1       7.877  -2.044  23.757  0.00  0.00    +0.025 A 
ATOM     14  C   UNL     1       7.929  -2.855  24.901  0.00  0.00    +0.061 A 
ATOM     15  C   UNL     1       7.629  -4.210  24.808  0.00  0.00    +0.175 A 
ATOM     16  C   UNL     1       7.163  -4.730  23.591  0.00  0.00    +0.174 A 
ATOM     17  C   UNL     1       7.289  -3.975  22.425  0.00  0.00    +0.051 A 
BRANCH  15  18
ATOM     18  O   UNL     1       7.789  -5.084  25.850  0.00  0.00    -0.400 OA
BRANCH  18  19
ATOM     19  P   UNL     1       6.799  -5.282  27.079  0.00  0.00    +0.528 P 
ATOM     20  O   UNL     1       6.095  -4.084  27.617  0.00  0.00    -0.216 OA
BRANCH  19  21
ATOM     21  O   UNL     1       5.763  -6.378  26.536  0.00  0.00    -0.293 OA
ATOM     22  H   UNL     1       5.108  -6.601  27.217  0.00  0.00    +0.223 HD
ENDBRANCH  19  21
BRANCH  19  23
ATOM     23  O   UNL     1       7.541  -6.148  28.210  0.00  0.00    -0.293 OA
ATOM     24  H   UNL     1       7.226  -7.070  28.195  0.00  0.00    +0.223 HD
ENDBRANCH  19  23
ENDBRANCH  18  19
ENDBRANCH  15  18
BRANCH  16  25
ATOM     25  O   UNL     1       6.509  -5.932  23.639  0.00  0.00    -0.400 OA
BRANCH  25  26
ATOM     26  P   UNL     1       4.925  -6.155  23.562  0.00  0.00    +0.528 P 
ATOM     27  O   UNL     1       4.378  -7.382  24.205  0.00  0.00    -0.216 OA
BRANCH  26  28
ATOM     28  O   UNL     1       4.307  -4.830  24.210  0.00  0.00    -0.293 OA
ATOM     29  H   UNL     1       4.643  -4.697  25.116  0.00  0.00    +0.223 HD
ENDBRANCH  26  28
BRANCH  26  30
ATOM     30  O   UNL     1       4.444  -5.993  22.045  0.00  0.00    -0.293 OA
ATOM     31  H   UNL     1       4.296  -5.052  21.839  0.00  0.00    +0.223 HD
ENDBRANCH  26  30
ENDBRANCH  25  26
ENDBRANCH  16  25
ENDBRANCH   1  13
BRANCH  11  32
ATOM     32  O   UNL     1       5.630  -0.387  24.470  0.00  0.00    -0.396 OA
BRANCH  32  33
ATOM     33  P   UNL     1       4.940  -0.490  25.919  0.00  0.00    +0.528 P 
ATOM     34  O   UNL     1       3.943  -1.593  26.069  0.00  0.00    -0.216 OA
BRANCH  33  35
ATOM     35  O   UNL     1       6.053  -0.489  27.063  0.00  0.00    -0.293 OA
ATOM     36  H   UNL     1       5.718  -0.984  27.852  0.00  0.00    +0.223 HD
ENDBRANCH  33  35
BRANCH  33  37
ATOM     37  O   UNL     1       4.241   0.924  26.175  0.00  0.00    -0.293 OA
ATOM     38  H   UNL     1       4.735   1.611  25.689  0.00  0.00    +0.223 HD
ENDBRANCH  33  37
ENDBRANCH  32  33
ENDBRANCH  11  32
BRANCH   7  39
ATOM     39  O   UNL     1       7.596   4.327  24.777  0.00  0.00    -0.403 OA
BRANCH  39  40
ATOM     40  P   UNL     1       7.113   5.630  23.968  0.00  0.00    +0.528 P 
ATOM     41  O   UNL     1       8.168   6.556  23.463  0.00  0.00    -0.216 OA
BRANCH  40  42
ATOM     42  O   UNL     1       6.178   5.090  22.790  0.00  0.00    -0.293 OA
ATOM     43  H   UNL     1       6.122   4.116  22.771  0.00  0.00    +0.223 HD
ENDBRANCH  40  42
BRANCH  40  44
ATOM     44  O   UNL     1       6.030   6.358  24.890  0.00  0.00    -0.293 OA
ATOM     45  H   UNL     1       5.191   5.867  24.882  0.00  0.00    +0.223 HD
ENDBRANCH  40  44
ENDBRANCH  39  40
ENDBRANCH   7  39
BRANCH   5  46
ATOM     46  O   UNL     1      12.100   3.769  23.318  0.00  0.00    -0.404 OA
BRANCH  46  47
ATOM     47  P   UNL     1      12.240   5.382  23.395  0.00  0.00    +0.528 P 
ATOM     48  O   UNL     1      12.491   5.974  24.743  0.00  0.00    -0.216 OA
BRANCH  47  49
ATOM     49  O   UNL     1      13.384   5.758  22.338  0.00  0.00    -0.293 OA
ATOM     50  H   UNL     1      13.197   5.401  21.450  0.00  0.00    +0.223 HD
ENDBRANCH  47  49
BRANCH  47  51
ATOM     51  O   UNL     1      10.970   6.051  22.709  0.00  0.00    -0.293 OA
ATOM     52  H   UNL     1      10.188   5.521  22.968  0.00  0.00    +0.223 HD
ENDBRANCH  47  51
ENDBRANCH  46  47
ENDBRANCH   5  46
TORSDOF 21
ENDMDL
MODEL 6
REMARK VINA RESULT:      -6.5      3.425     10.043
REMARK  Name = 
REMARK  21 active torsions:
REMARK  status: ('A' for Active; 'I' for Inactive)
REMARK    1  A    between atoms: C_3  and  O_38
REMARK    2  A    between atoms: C_4  and  O_33
REMARK    3  A    between atoms: C_6  and  C_7
REMARK    4  A    between atoms: C_8  and  O_28
REMARK    5  A    between atoms: C_15  and  O_23
REMARK    6  A    between atoms: C_17  and  O_18
REMARK    7  A    between atoms: O_18  and  P_19
REMARK    8  A    between atoms: P_19  and  O_21
REMARK    9  A    between atoms: P_19  and  O_22
REMARK   10  A    between atoms: O_23  and  P_24
REMARK   11  A    between atoms: P_24  and  O_26
REMARK   12  A    between atoms: P_24  and  O_27
REMARK   13  A    between atoms: O_28  and  P_29
REMARK   14  A    between atoms: P_29  and  O_31
REMARK   15  A    between atoms: P_29  and  O_32
REMARK   16  A    between atoms: O_33  and  P_34
REMARK   17  A    between atoms: P_34  and  O_36
REMARK   18  A    between atoms: P_34  and  O_37
REMARK   19  A    between atoms: O_38  and  P_39
REMARK   20  A    between atoms: P_39  and  O_41
REMARK   21  A    between atoms: P_39  and  O_42
REMARK                            x       y       z     vdW  Elec       q    Type
REMARK                         _______ _______ _______ _____ _____    ______ ____
ROOT
ATOM      1  C   UNL     1       8.708   1.270  23.545  0.00  0.00    +0.181 A 
ATOM      2  O   UNL     1       9.896   1.983  23.366  0.00  0.00    -0.451 OA
ATOM      3  C   UNL     1       9.910   3.323  23.691  0.00  0.00    +0.147 A 
ATOM      4  C   UNL     1      11.125   4.025  23.593  0.00  0.00    +0.093 A 
ATOM      5  C   UNL     1      11.132   5.394  23.861  0.00  0.00    +0.139 A 
ATOM      6  C   UNL     1       9.984   5.994  24.374  0.00  0.00    +0.093 A 
ATOM      7  C   UNL     1       8.791   5.313  24.501  0.00  0.00    +0.150 A 
ATOM      8  C   UNL     1       8.744   3.992  24.075  0.00  0.00    +0.110 A 
ATOM      9  C   UNL     1       7.474   3.282  23.966  0.00  0.00    +0.239 A 
ATOM     10  O   UNL     1       6.400   3.874  23.894  0.00  0.00    -0.283 OA
ATOM     11  C   UNL     1       7.530   1.812  23.894  0.00  0.00    +0.222 A 
ENDROOT
BRANCH   1  13
ATOM     12  C   UNL     1       8.655  -0.592  21.866  0.00  0.00    +0.015 A 
ATOM     13  C   UNL     1       8.822  -0.150  23.182  0.00  0.00    +0.025 A 
ATOM     14  C   UNL     1       9.023  -1.090  24.205  0.00  0.00    +0.061 A 
ATOM     15  C   UNL     1       8.908  -2.449  23.935  0.00  0.00    +0.175 A 
ATOM     16  C   UNL     1       8.476  -2.864  22.666  0.00  0.00    +0.174 A 
ATOM     17  C   UNL     1       8.459  -1.953  21.611  0.00  0.00    +0.051 A 
BRANCH  15  18
ATOM     18  O   UNL     1       9.221  -3.421  24.846  0.00  0.00    -0.400 OA
BRANCH  18  19
ATOM     19  P   UNL     1       8.334  -3.877  26.085  0.00  0.00    +0.528 P 
ATOM     20  O   UNL     1       7.483  -2.854  26.756  0.00  0.00    -0.216 OA
BRANCH  19  21
ATOM     21  O   UNL     1       7.453  -5.071  25.480  0.00  0.00    -0.293 OA
ATOM     22  H   UNL     1       7.597  -5.892  25.977  0.00  0.00    +0.223 HD
ENDBRANCH  19  21
BRANCH  19  23
ATOM     23  O   UNL     1       9.255  -4.709  27.105  0.00  0.00    -0.293 OA
ATOM     24  H   UNL     1      10.009  -5.109  26.635  0.00  0.00    +0.223 HD
ENDBRANCH  19  23
ENDBRANCH  18  19
ENDBRANCH  15  18
BRANCH  16  25
ATOM     25  O   UNL     1       7.995  -4.142  22.560  0.00  0.00    -0.400 OA
BRANCH  25  26
ATOM     26  P   UNL     1       6.455  -4.573  22.489  0.00  0.00    +0.528 P 
ATOM     27  O   UNL     1       6.120  -5.971  22.878  0.00  0.00    -0.216 OA
BRANCH  26  28
ATOM     28  O   UNL     1       5.703  -3.512  23.420  0.00  0.00    -0.293 OA
ATOM     29  H   UNL     1       6.330  -3.079  24.029  0.00  0.00    +0.223 HD
ENDBRANCH  26  28
BRANCH  26  30
ATOM     30  O   UNL     1       5.864  -4.179  21.056  0.00  0.00    -0.293 OA
ATOM     31  H   UNL     1       6.379  -4.612  20.350  0.00  0.00    +0.223 HD
ENDBRANCH  26  30
ENDBRANCH  25  26
ENDBRANCH  16  25
ENDBRANCH   1  13
BRANCH  11  32
ATOM     32  O   UNL     1       6.379   1.082  24.083  0.00  0.00    -0.396 OA
BRANCH  32  33
ATOM     33  P   UNL     1       5.835   0.505  25.482  0.00  0.00    +0.528 P 
ATOM     34  O   UNL     1       6.758   0.686  26.643  0.00  0.00    -0.216 OA
BRANCH  33  35
ATOM     35  O   UNL     1       4.358   1.041  25.765  0.00  0.00    -0.293 OA
ATOM     36  H   UNL     1       4.088   1.664  25.044  0.00  0.00    +0.223 HD
ENDBRANCH  33  35
BRANCH  33  37
ATOM     37  O   UNL     1       5.553  -1.048  25.238  0.00  0.00    -0.293 OA
ATOM     38  H   UNL     1       6.257  -1.411  24.669  0.00  0.00    +0.223 HD
ENDBRANCH  33  37
ENDBRANCH  32  33
ENDBRANCH  11  32
BRANCH   7  39
ATOM     39  O   UNL     1       7.698   5.932  25.039  0.00  0.00    -0.403 OA
BRANCH  39  40
ATOM     40  P   UNL     1       7.436   6.027  26.623  0.00  0.00    +0.528 P 
ATOM     41  O   UNL     1       8.603   6.345  27.494  0.00  0.00    -0.216 OA
BRANCH  40  42
ATOM     42  O   UNL     1       6.247   7.079  26.805  0.00  0.00    -0.293 OA
ATOM     43  H   UNL     1       5.906   7.107  27.718  0.00  0.00    +0.223 HD
ENDBRANCH  40  42
BRANCH  40  44
ATOM     44  O   UNL     1       6.695   4.674  27.038  0.00  0.00    -0.293 OA
ATOM     45  H   UNL     1       6.584   4.095  26.265  0.00  0.00    +0.223 HD
ENDBRANCH  40  44
ENDBRANCH  39  40
ENDBRANCH   7  39
BRANCH   5  46
ATOM     46  O   UNL     1      12.227   6.179  23.572  0.00  0.00    -0.404 OA
BRANCH  46  47
ATOM     47  P   UNL     1      13.304   5.652  22.482  0.00  0.00    +0.528 P 
ATOM     48  O   UNL     1      12.770   4.864  21.331  0.00  0.00    -0.216 OA
BRANCH  47  49
ATOM     49  O   UNL     1      14.104   6.958  22.011  0.00  0.00    -0.293 OA
ATOM     50  H   UNL     1      14.613   7.361  22.739  0.00  0.00    +0.223 HD
ENDBRANCH  47  49
BRANCH  47  51
ATOM     51  O   UNL     1      14.458   4.852  23.230  0.00  0.00    -0.293 OA
ATOM     52  H   UNL     1      14.354   3.907  22.995  0.00  0.00    +0.223 HD
ENDBRANCH  47  51
ENDBRANCH  46  47
ENDBRANCH   5  46
TORSDOF 21
ENDMDL
MODEL 7
REMARK VINA RESULT:      -6.5      2.607      9.475
REMARK  Name = 
REMARK  21 active torsions:
REMARK  status: ('A' for Active; 'I' for Inactive)
REMARK    1  A    between atoms: C_3  and  O_38
REMARK    2  A    between atoms: C_4  and  O_33
REMARK    3  A    between atoms: C_6  and  C_7
REMARK    4  A    between atoms: C_8  and  O_28
REMARK    5  A    between atoms: C_15  and  O_23
REMARK    6  A    between atoms: C_17  and  O_18
REMARK    7  A    between atoms: O_18  and  P_19
REMARK    8  A    between atoms: P_19  and  O_21
REMARK    9  A    between atoms: P_19  and  O_22
REMARK   10  A    between atoms: O_23  and  P_24
REMARK   11  A    between atoms: P_24  and  O_26
REMARK   12  A    between atoms: P_24  and  O_27
REMARK   13  A    between atoms: O_28  and  P_29
REMARK   14  A    between atoms: P_29  and  O_31
REMARK   15  A    between atoms: P_29  and  O_32
REMARK   16  A    between atoms: O_33  and  P_34
REMARK   17  A    between atoms: P_34  and  O_36
REMARK   18  A    between atoms: P_34  and  O_37
REMARK   19  A    between atoms: O_38  and  P_39
REMARK   20  A    between atoms: P_39  and  O_41
REMARK   21  A    between atoms: P_39  and  O_42
REMARK                            x       y       z     vdW  Elec       q    Type
REMARK                         _______ _______ _______ _____ _____    ______ ____
ROOT
ATOM      1  C   UNL     1       6.094  -0.547  24.906  0.00  0.00    +0.181 A 
ATOM      2  O   UNL     1       5.137   0.468  24.826  0.00  0.00    -0.451 OA
ATOM      3  C   UNL     1       5.543   1.719  24.410  0.00  0.00    +0.147 A 
ATOM      4  C   UNL     1       4.570   2.720  24.247  0.00  0.00    +0.093 A 
ATOM      5  C   UNL     1       4.982   4.004  23.886  0.00  0.00    +0.139 A 
ATOM      6  C   UNL     1       6.313   4.220  23.540  0.00  0.00    +0.093 A 
ATOM      7  C   UNL     1       7.276   3.240  23.670  0.00  0.00    +0.150 A 
ATOM      8  C   UNL     1       6.892   2.011  24.189  0.00  0.00    +0.110 A 
ATOM      9  C   UNL     1       7.885   1.011  24.565  0.00  0.00    +0.239 A 
ATOM     10  O   UNL     1       9.058   1.305  24.782  0.00  0.00    -0.283 OA
ATOM     11  C   UNL     1       7.414  -0.375  24.729  0.00  0.00    +0.222 A 
ENDROOT
BRANCH   1  13
ATOM     12  C   UNL     1       4.800  -1.961  26.523  0.00  0.00    +0.015 A 
ATOM     13  C   UNL     1       5.539  -1.836  25.342  0.00  0.00    +0.025 A 
ATOM     14  C   UNL     1       5.833  -2.983  24.588  0.00  0.00    +0.061 A 
ATOM     15  C   UNL     1       5.523  -4.243  25.086  0.00  0.00    +0.175 A 
ATOM     16  C   UNL     1       5.024  -4.363  26.392  0.00  0.00    +0.174 A 
ATOM     17  C   UNL     1       4.562  -3.230  27.061  0.00  0.00    +0.051 A 
BRANCH  15  18
ATOM     18  O   UNL     1       5.657  -5.390  24.352  0.00  0.00    -0.400 OA
BRANCH  18  19
ATOM     19  P   UNL     1       4.610  -5.972  23.305  0.00  0.00    +0.528 P 
ATOM     20  O   UNL     1       3.479  -5.099  22.882  0.00  0.00    -0.216 OA
BRANCH  19  21
ATOM     21  O   UNL     1       5.533  -6.383  22.062  0.00  0.00    -0.293 OA
ATOM     22  H   UNL     1       6.144  -7.097  22.307  0.00  0.00    +0.223 HD
ENDBRANCH  19  21
BRANCH  19  23
ATOM     23  O   UNL     1       4.144  -7.430  23.791  0.00  0.00    -0.293 OA
ATOM     24  H   UNL     1       4.835  -8.091  23.598  0.00  0.00    +0.223 HD
ENDBRANCH  19  23
ENDBRANCH  18  19
ENDBRANCH  15  18
BRANCH  16  25
ATOM     25  O   UNL     1       5.112  -5.597  26.981  0.00  0.00    -0.400 OA
BRANCH  25  26
ATOM     26  P   UNL     1       6.042  -5.990  28.223  0.00  0.00    +0.528 P 
ATOM     27  O   UNL     1       5.872  -5.205  29.477  0.00  0.00    -0.216 OA
BRANCH  26  28
ATOM     28  O   UNL     1       5.748  -7.544  28.461  0.00  0.00    -0.293 OA
ATOM     29  H   UNL     1       6.576  -8.061  28.442  0.00  0.00    +0.223 HD
ENDBRANCH  26  28
BRANCH  26  30
ATOM     30  O   UNL     1       7.566  -6.050  27.740  0.00  0.00    -0.293 OA
ATOM     31  H   UNL     1       7.642  -5.722  26.825  0.00  0.00    +0.223 HD
ENDBRANCH  26  30
ENDBRANCH  25  26
ENDBRANCH  16  25
ENDBRANCH   1  13
BRANCH  11  32
ATOM     32  O   UNL     1       8.333  -1.398  24.794  0.00  0.00    -0.396 OA
BRANCH  32  33
ATOM     33  P   UNL     1       9.230  -1.952  23.580  0.00  0.00    +0.528 P 
ATOM     34  O   UNL     1       8.476  -2.269  22.329  0.00  0.00    -0.216 OA
BRANCH  33  35
ATOM     35  O   UNL     1      10.480  -0.990  23.333  0.00  0.00    -0.293 OA
ATOM     36  H   UNL     1      11.320  -1.490  23.495  0.00  0.00    +0.223 HD
ENDBRANCH  33  35
BRANCH  33  37
ATOM     37  O   UNL     1       9.959  -3.261  24.133  0.00  0.00    -0.293 OA
ATOM     38  H   UNL     1      10.158  -3.135  25.079  0.00  0.00    +0.223 HD
ENDBRANCH  33  37
ENDBRANCH  32  33
ENDBRANCH  11  32
BRANCH   7  39
ATOM     39  O   UNL     1       8.565   3.486  23.287  0.00  0.00    -0.403 OA
BRANCH  39  40
ATOM     40  P   UNL     1       9.384   4.788  23.754  0.00  0.00    +0.528 P 
ATOM     41  O   UNL     1       9.219   5.233  25.168  0.00  0.00    -0.216 OA
BRANCH  40  42
ATOM     42  O   UNL     1      10.913   4.493  23.394  0.00  0.00    -0.293 OA
ATOM     43  H   UNL     1      11.015   3.757  22.764  0.00  0.00    +0.223 HD
ENDBRANCH  40  42
BRANCH  40  44
ATOM     44  O   UNL     1       9.050   5.935  22.693  0.00  0.00    -0.293 OA
ATOM     45  H   UNL     1       8.456   5.598  22.002  0.00  0.00    +0.223 HD
ENDBRANCH  40  44
ENDBRANCH  39  40
ENDBRANCH   7  39
BRANCH   5  46
ATOM     46  O   UNL     1       4.117   5.076  23.925  0.00  0.00    -0.404 OA
BRANCH  46  47
ATOM     47  P   UNL     1       3.363   5.527  22.563  0.00  0.00    +0.528 P 
ATOM     48  O   UNL     1       2.810   4.437  21.705  0.00  0.00    -0.216 OA
BRANCH  47  49
ATOM     49  O   UNL     1       2.240   6.572  23.026  0.00  0.00    -0.293 OA
ATOM     50  H   UNL     1       2.321   7.428  22.565  0.00  0.00    +0.223 HD
ENDBRANCH  47  49
BRANCH  47  51
ATOM     51  O   UNL     1       4.324   6.477  21.723  0.00  0.00    -0.293 OA
ATOM     52  H   UNL     1       5.115   5.951  21.485  0.00  0.00    +0.223 HD
ENDBRANCH  47  51
ENDBRANCH  46  47
ENDBRANCH   5  46
TORSDOF 21
ENDMDL
MODEL 8
REMARK VINA RESULT:      -6.5      2.707      9.298
REMARK  Name = 
REMARK  21 active torsions:
REMARK  status: ('A' for Active; 'I' for Inactive)
REMARK    1  A    between atoms: C_3  and  O_38
REMARK    2  A    between atoms: C_4  and  O_33
REMARK    3  A    between atoms: C_6  and  C_7
REMARK    4  A    between atoms: C_8  and  O_28
REMARK    5  A    between atoms: C_15  and  O_23
REMARK    6  A    between atoms: C_17  and  O_18
REMARK    7  A    between atoms: O_18  and  P_19
REMARK    8  A    between atoms: P_19  and  O_21
REMARK    9  A    between atoms: P_19  and  O_22
REMARK   10  A    between atoms: O_23  and  P_24
REMARK   11  A    between atoms: P_24  and  O_26
REMARK   12  A    between atoms: P_24  and  O_27
REMARK   13  A    between atoms: O_28  and  P_29
REMARK   14  A    between atoms: P_29  and  O_31
REMARK   15  A    between atoms: P_29  and  O_32
REMARK   16  A    between atoms: O_33  and  P_34
REMARK   17  A    between atoms: P_34  and  O_36
REMARK   18  A    between atoms: P_34  and  O_37
REMARK   19  A    between atoms: O_38  and  P_39
REMARK   20  A    between atoms: P_39  and  O_41
REMARK   21  A    between atoms: P_39  and  O_42
REMARK                            x       y       z     vdW  Elec       q    Type
REMARK                         _______ _______ _______ _____ _____    ______ ____
ROOT
ATOM      1  C   UNL     1       6.134  -0.785  24.649  0.00  0.00    +0.181 A 
ATOM      2  O   UNL     1       5.301   0.334  24.571  0.00  0.00    -0.451 OA
ATOM      3  C   UNL     1       5.880   1.585  24.614  0.00  0.00    +0.147 A 
ATOM      4  C   UNL     1       5.055   2.712  24.450  0.00  0.00    +0.093 A 
ATOM      5  C   UNL     1       5.625   3.982  24.555  0.00  0.00    +0.139 A 
ATOM      6  C   UNL     1       7.009   4.101  24.653  0.00  0.00    +0.093 A 
ATOM      7  C   UNL     1       7.835   3.004  24.788  0.00  0.00    +0.150 A 
ATOM      8  C   UNL     1       7.248   1.747  24.852  0.00  0.00    +0.110 A 
ATOM      9  C   UNL     1       8.028   0.571  25.219  0.00  0.00    +0.239 A 
ATOM     10  O   UNL     1       9.099   0.658  25.815  0.00  0.00    -0.283 OA
ATOM     11  C   UNL     1       7.454  -0.745  24.890  0.00  0.00    +0.222 A 
ENDROOT
BRANCH   1  13
ATOM     12  C   UNL     1       4.658  -2.548  25.650  0.00  0.00    +0.015 A 
ATOM     13  C   UNL     1       5.405  -2.059  24.574  0.00  0.00    +0.025 A 
ATOM     14  C   UNL     1       5.535  -2.839  23.414  0.00  0.00    +0.061 A 
ATOM     15  C   UNL     1       5.052  -4.143  23.394  0.00  0.00    +0.175 A 
ATOM     16  C   UNL     1       4.543  -4.707  24.574  0.00  0.00    +0.174 A 
ATOM     17  C   UNL     1       4.246  -3.884  25.659  0.00  0.00    +0.051 A 
BRANCH  15  18
ATOM     18  O   UNL     1       5.024  -4.911  22.262  0.00  0.00    -0.400 OA
BRANCH  18  19
ATOM     19  P   UNL     1       6.269  -5.612  21.562  0.00  0.00    +0.528 P 
ATOM     20  O   UNL     1       7.617  -5.010  21.757  0.00  0.00    -0.216 OA
BRANCH  19  21
ATOM     21  O   UNL     1       6.206  -7.110  22.129  0.00  0.00    -0.293 OA
ATOM     22  H   UNL     1       5.662  -7.152  22.933  0.00  0.00    +0.223 HD
ENDBRANCH  19  21
BRANCH  19  23
ATOM     23  O   UNL     1       5.910  -5.891  20.021  0.00  0.00    -0.293 OA
ATOM     24  H   UNL     1       4.948  -5.823  19.877  0.00  0.00    +0.223 HD
ENDBRANCH  19  23
ENDBRANCH  18  19
ENDBRANCH  15  18
BRANCH  16  25
ATOM     25  O   UNL     1       4.460  -6.073  24.624  0.00  0.00    -0.400 OA
BRANCH  25  26
ATOM     26  P   UNL     1       3.197  -6.963  24.202  0.00  0.00    +0.528 P 
ATOM     27  O   UNL     1       3.155  -8.365  24.702  0.00  0.00    -0.216 OA
BRANCH  26  28
ATOM     28  O   UNL     1       1.934  -6.123  24.709  0.00  0.00    -0.293 OA
ATOM     29  H   UNL     1       1.246  -6.081  24.018  0.00  0.00    +0.223 HD
ENDBRANCH  26  28
BRANCH  26  30
ATOM     30  O   UNL     1       2.995  -6.871  22.618  0.00  0.00    -0.293 OA
ATOM     31  H   UNL     1       2.762  -5.960  22.362  0.00  0.00    +0.223 HD
ENDBRANCH  26  30
ENDBRANCH  25  26
ENDBRANCH  16  25
ENDBRANCH   1  13
BRANCH  11  32
ATOM     32  O   UNL     1       8.255  -1.864  24.942  0.00  0.00    -0.396 OA
BRANCH  32  33
ATOM     33  P   UNL     1       9.320  -2.326  23.828  0.00  0.00    +0.528 P 
ATOM     34  O   UNL     1       9.985  -3.638  24.094  0.00  0.00    -0.216 OA
BRANCH  33  35
ATOM     35  O   UNL     1       8.672  -2.233  22.372  0.00  0.00    -0.293 OA
ATOM     36  H   UNL     1       7.707  -2.024  22.451  0.00  0.00    +0.223 HD
ENDBRANCH  33  35
BRANCH  33  37
ATOM     37  O   UNL     1      10.409  -1.160  23.751  0.00  0.00    -0.293 OA
ATOM     38  H   UNL     1      11.193  -1.427  24.267  0.00  0.00    +0.223 HD
ENDBRANCH  33  37
ENDBRANCH  32  33
ENDBRANCH  11  32
BRANCH   7  39
ATOM     39  O   UNL     1       9.191   3.166  24.848  0.00  0.00    -0.403 OA
BRANCH  39  40
ATOM     40  P   UNL     1      10.139   3.104  23.552  0.00  0.00    +0.528 P 
ATOM     41  O   UNL     1      11.199   4.146  23.425  0.00  0.00    -0.216 OA
BRANCH  40  42
ATOM     42  O   UNL     1      10.747   1.626  23.527  0.00  0.00    -0.293 OA
ATOM     43  H   UNL     1      11.074   1.339  24.400  0.00  0.00    +0.223 HD
ENDBRANCH  40  42
BRANCH  40  44
ATOM     44  O   UNL     1       9.167   3.041  22.285  0.00  0.00    -0.293 OA
ATOM     45  H   UNL     1       9.545   3.540  21.541  0.00  0.00    +0.223 HD
ENDBRANCH  40  44
ENDBRANCH  39  40
ENDBRANCH   7  39
BRANCH   5  46
ATOM     46  O   UNL     1       4.847   5.117  24.627  0.00  0.00    -0.404 OA
BRANCH  46  47
ATOM     47  P   UNL     1       4.077   5.626  23.295  0.00  0.00    +0.528 P 
ATOM     48  O   UNL     1       3.804   7.091  23.192  0.00  0.00    -0.216 OA
BRANCH  47  49
ATOM     49  O   UNL     1       4.948   5.078  22.067  0.00  0.00    -0.293 OA
ATOM     50  H   UNL     1       4.785   4.132  21.893  0.00  0.00    +0.223 HD
ENDBRANCH  47  49
BRANCH  47  51
ATOM     51  O   UNL     1       2.740   4.785  23.109  0.00  0.00    -0.293 OA
ATOM     52  H   UNL     1       2.068   5.390  22.732  0.00  0.00    +0.223 HD
ENDBRANCH  47  51
ENDBRANCH  46  47
ENDBRANCH   5  46
TORSDOF 21
ENDMDL
MODEL 9
REMARK VINA RESULT:      -6.4      2.484      9.281
REMARK  Name = 
REMARK  21 active torsions:
REMARK  status: ('A' for Active; 'I' for Inactive)
REMARK    1  A    between atoms: C_3  and  O_38
REMARK    2  A    between atoms: C_4  and  O_33
REMARK    3  A    between atoms: C_6  and  C_7
REMARK    4  A    between atoms: C_8  and  O_28
REMARK    5  A    between atoms: C_15  and  O_23
REMARK    6  A    between atoms: C_17  and  O_18
REMARK    7  A    between atoms: O_18  and  P_19
REMARK    8  A    between atoms: P_19  and  O_21
REMARK    9  A    between atoms: P_19  and  O_22
REMARK   10  A    between atoms: O_23  and  P_24
REMARK   11  A    between atoms: P_24  and  O_26
REMARK   12  A    between atoms: P_24  and  O_27
REMARK   13  A    between atoms: O_28  and  P_29
REMARK   14  A    between atoms: P_29  and  O_31
REMARK   15  A    between atoms: P_29  and  O_32
REMARK   16  A    between atoms: O_33  and  P_34
REMARK   17  A    between atoms: P_34  and  O_36
REMARK   18  A    between atoms: P_34  and  O_37
REMARK   19  A    between atoms: O_38  and  P_39
REMARK   20  A    between atoms: P_39  and  O_41
REMARK   21  A    between atoms: P_39  and  O_42
REMARK                            x       y       z     vdW  Elec       q    Type
REMARK                         _______ _______ _______ _____ _____    ______ ____
ROOT
ATOM      1  C   UNL     1       5.641  -0.839  25.581  0.00  0.00    +0.181 A 
ATOM      2  O   UNL     1       4.907   0.325  25.339  0.00  0.00    -0.451 OA
ATOM      3  C   UNL     1       5.558   1.402  24.772  0.00  0.00    +0.147 A 
ATOM      4  C   UNL     1       4.806   2.545  24.449  0.00  0.00    +0.093 A 
ATOM      5  C   UNL     1       5.468   3.660  23.933  0.00  0.00    +0.139 A 
ATOM      6  C   UNL     1       6.816   3.557  23.599  0.00  0.00    +0.093 A 
ATOM      7  C   UNL     1       7.562   2.432  23.885  0.00  0.00    +0.150 A 
ATOM      8  C   UNL     1       6.938   1.386  24.552  0.00  0.00    +0.110 A 
ATOM      9  C   UNL     1       7.709   0.269  25.086  0.00  0.00    +0.239 A 
ATOM     10  O   UNL     1       8.917   0.350  25.295  0.00  0.00    -0.283 OA
ATOM     11  C   UNL     1       6.968  -0.960  25.420  0.00  0.00    +0.222 A 
ENDROOT
BRANCH   1  13
ATOM     12  C   UNL     1       4.459  -1.912  27.515  0.00  0.00    +0.015 A 
ATOM     13  C   UNL     1       4.837  -1.921  26.169  0.00  0.00    +0.025 A 
ATOM     14  C   UNL     1       4.515  -3.028  25.369  0.00  0.00    +0.061 A 
ATOM     15  C   UNL     1       3.959  -4.166  25.944  0.00  0.00    +0.175 A 
ATOM     16  C   UNL     1       3.833  -4.239  27.340  0.00  0.00    +0.174 A 
ATOM     17  C   UNL     1       3.976  -3.083  28.107  0.00  0.00    +0.051 A 
BRANCH  15  18
ATOM     18  O   UNL     1       3.498  -5.225  25.211  0.00  0.00    -0.400 OA
BRANCH  18  19
ATOM     19  P   UNL     1       4.286  -5.996  24.064  0.00  0.00    +0.528 P 
ATOM     20  O   UNL     1       4.117  -5.532  22.659  0.00  0.00    -0.216 OA
BRANCH  19  21
ATOM     21  O   UNL     1       5.813  -5.888  24.540  0.00  0.00    -0.293 OA
ATOM     22  H   UNL     1       5.869  -5.828  25.508  0.00  0.00    +0.223 HD
ENDBRANCH  19  21
BRANCH  19  23
ATOM     23  O   UNL     1       4.056  -7.576  24.247  0.00  0.00    -0.293 OA
ATOM     24  H   UNL     1       4.815  -8.074  23.890  0.00  0.00    +0.223 HD
ENDBRANCH  19  23
ENDBRANCH  18  19
ENDBRANCH  15  18
BRANCH  16  25
ATOM     25  O   UNL     1       3.672  -5.485  27.885  0.00  0.00    -0.400 OA
BRANCH  25  26
ATOM     26  P   UNL     1       4.838  -6.463  28.380  0.00  0.00    +0.528 P 
ATOM     27  O   UNL     1       5.983  -5.845  29.105  0.00  0.00    -0.216 OA
BRANCH  26  28
ATOM     28  O   UNL     1       4.089  -7.548  29.286  0.00  0.00    -0.293 OA
ATOM     29  H   UNL     1       3.423  -8.034  28.765  0.00  0.00    +0.223 HD
ENDBRANCH  26  28
BRANCH  26  30
ATOM     30  O   UNL     1       5.312  -7.378  27.156  0.00  0.00    -0.293 OA
ATOM     31  H   UNL     1       5.204  -6.896  26.315  0.00  0.00    +0.223 HD
ENDBRANCH  26  30
ENDBRANCH  25  26
ENDBRANCH  16  25
ENDBRANCH   1  13
BRANCH  11  32
ATOM     32  O   UNL     1       7.663  -2.127  25.647  0.00  0.00    -0.396 OA
BRANCH  32  33
ATOM     33  P   UNL     1       8.311  -3.083  24.528  0.00  0.00    +0.528 P 
ATOM     34  O   UNL     1       8.524  -4.500  24.951  0.00  0.00    -0.216 OA
BRANCH  33  35
ATOM     35  O   UNL     1       7.506  -2.951  23.155  0.00  0.00    -0.293 OA
ATOM     36  H   UNL     1       6.936  -3.750  23.027  0.00  0.00    +0.223 HD
ENDBRANCH  33  35
BRANCH  33  37
ATOM     37  O   UNL     1       9.704  -2.410  24.128  0.00  0.00    -0.293 OA
ATOM     38  H   UNL     1       9.739  -2.312  23.158  0.00  0.00    +0.223 HD
ENDBRANCH  33  37
ENDBRANCH  32  33
ENDBRANCH  11  32
BRANCH   7  39
ATOM     39  O   UNL     1       8.874   2.362  23.510  0.00  0.00    -0.403 OA
BRANCH  39  40
ATOM     40  P   UNL     1       9.360   1.652  22.152  0.00  0.00    +0.528 P 
ATOM     41  O   UNL     1       8.345   1.458  21.076  0.00  0.00    -0.216 OA
BRANCH  40  42
ATOM     42  O   UNL     1      10.617   2.499  21.644  0.00  0.00    -0.293 OA
ATOM     43  H   UNL     1      10.832   3.244  22.235  0.00  0.00    +0.223 HD
ENDBRANCH  40  42
BRANCH  40  44
ATOM     44  O   UNL     1      10.080   0.294  22.586  0.00  0.00    -0.293 OA
ATOM     45  H   UNL     1      10.889   0.483  23.091  0.00  0.00    +0.223 HD
ENDBRANCH  40  44
ENDBRANCH  39  40
ENDBRANCH   7  39
BRANCH   5  46
ATOM     46  O   UNL     1       4.836   4.878  23.805  0.00  0.00    -0.404 OA
BRANCH  46  47
ATOM     47  P   UNL     1       3.700   5.056  22.662  0.00  0.00    +0.528 P 
ATOM     48  O   UNL     1       2.286   5.175  23.129  0.00  0.00    -0.216 OA
BRANCH  47  49
ATOM     49  O   UNL     1       4.167   6.320  21.794  0.00  0.00    -0.293 OA
ATOM     50  H   UNL     1       5.117   6.511  21.904  0.00  0.00    +0.223 HD
ENDBRANCH  47  49
BRANCH  47  51
ATOM     51  O   UNL     1       3.848   3.890  21.590  0.00  0.00    -0.293 OA
ATOM     52  H   UNL     1       3.042   3.905  21.034  0.00  0.00    +0.223 HD
ENDBRANCH  47  51
ENDBRANCH  46  47
ENDBRANCH   5  46
TORSDOF 21
ENDMDL
