MODEL 1
REMARK VINA RESULT:      -7.0      0.000      0.000
REMARK  Name = 
REMARK  22 active torsions:
REMARK  status: ('A' for Active; 'I' for Inactive)
REMARK    1  A    between atoms: C_3  and  O_50
REMARK    2  A    between atoms: C_4  and  O_49
REMARK    3  A    between atoms: C_6  and  C_7
REMARK    4  A    between atoms: C_8  and  O_31
REMARK    5  A    between atoms: C_12  and  O_30
REMARK    6  A    between atoms: C_14  and  O_18
REMARK    7  A    between atoms: O_18  and  C_19
REMARK    8  A    between atoms: C_20  and  O_29
REMARK    9  A    between atoms: C_21  and  O_28
REMARK   10  A    between atoms: C_22  and  O_27
REMARK   11  A    between atoms: C_23  and  C_25
REMARK   12  A    between atoms: C_25  and  O_26
REMARK   13  A    between atoms: O_31  and  C_32
REMARK   14  A    between atoms: C_33  and  O_48
REMARK   15  A    between atoms: C_34  and  O_47
REMARK   16  A    between atoms: C_35  and  O_46
REMARK   17  A    between atoms: C_36  and  C_38
REMARK   18  A    between atoms: C_38  and  O_39
REMARK   19  A    between atoms: O_39  and  C_40
REMARK   20  A    between atoms: C_40  and  C_42
REMARK   21  A    between atoms: C_42  and  C_43
REMARK   22  A    between atoms: C_43  and  O_45
REMARK                            x       y       z     vdW  Elec       q    Type
REMARK                         _______ _______ _______ _____ _____    ______ ____
ROOT
ATOM      1  C   UNL     1       6.698   0.937  23.629  0.00  0.00    +0.181 A 
ATOM      2  O   UNL     1       6.158  -0.339  23.637  0.00  0.00    -0.451 OA
ATOM      3  C   UNL     1       6.979  -1.431  23.665  0.00  0.00    +0.147 A 
ATOM      4  C   UNL     1       8.354  -1.352  23.583  0.00  0.00    +0.109 A 
ATOM      5  C   UNL     1       9.091  -2.550  23.587  0.00  0.00    +0.135 A 
ATOM      6  C   UNL     1       8.457  -3.797  23.767  0.00  0.00    +0.092 A 
ATOM      7  C   UNL     1       7.076  -3.851  23.955  0.00  0.00    +0.131 A 
ATOM      8  C   UNL     1       8.951  -0.001  23.535  0.00  0.00    +0.238 A 
ATOM      9  O   UNL     1      10.171   0.130  23.464  0.00  0.00    -0.283 OA
ATOM     10  C   UNL     1       6.345  -2.666  23.824  0.00  0.00    +0.093 A 
ATOM     11  C   UNL     1       8.028   1.188  23.617  0.00  0.00    +0.214 A 
ENDROOT
BRANCH   1  13
ATOM     12  C   UNL     1       4.887   2.148  24.956  0.00  0.00    +0.015 A 
ATOM     13  C   UNL     1       5.645   1.991  23.786  0.00  0.00    +0.025 A 
ATOM     14  C   UNL     1       5.284   2.788  22.689  0.00  0.00    +0.060 A 
ATOM     15  C   UNL     1       4.097   3.511  22.713  0.00  0.00    +0.159 A 
ATOM     16  C   UNL     1       3.244   3.443  23.806  0.00  0.00    +0.158 A 
ATOM     17  C   UNL     1       3.654   2.804  24.956  0.00  0.00    +0.050 A 
BRANCH  16  18
ATOM     18  O   UNL     1       2.006   4.008  23.701  0.00  0.00    -0.503 OA
ATOM     19  H   UNL     1       1.356   3.314  23.912  0.00  0.00    +0.292 HD
ENDBRANCH  16  18
BRANCH  15  20
ATOM     20  O   UNL     1       3.743   4.247  21.621  0.00  0.00    -0.503 OA
ATOM     21  H   UNL     1       4.495   4.856  21.486  0.00  0.00    +0.292 HD
ENDBRANCH  15  20
ENDBRANCH   1  13
BRANCH   5  22
ATOM     22  O   UNL     1      10.454  -2.576  23.455  0.00  0.00    -0.506 OA
ATOM     23  H   UNL     1      10.849  -2.795  24.326  0.00  0.00    +0.292 HD
ENDBRANCH   5  22
BRANCH  11  24
ATOM     24  O   UNL     1       8.542   2.459  23.428  0.00  0.00    -0.453 OA
BRANCH  24  25
ATOM     25  C   UNL     1       9.263   3.159  24.464  0.00  0.00    +0.340 C 
ATOM     26  O   UNL     1       8.425   3.423  25.609  0.00  0.00    -0.330 OA
ATOM     27  C   UNL     1       7.403   4.439  25.538  0.00  0.00    +0.191 C 
ATOM     28  C   UNL     1       7.482   5.499  24.398  0.00  0.00    +0.178 C 
ATOM     29  C   UNL     1       8.475   5.153  23.280  0.00  0.00    +0.180 C 
ATOM     30  C   UNL     1       9.729   4.520  23.922  0.00  0.00    +0.214 C 
BRANCH  30  31
ATOM     31  O   UNL     1      10.850   4.432  23.061  0.00  0.00    -0.383 OA
ATOM     32  H   UNL     1      10.637   3.857  22.298  0.00  0.00    +0.210 HD
ENDBRANCH  30  31
BRANCH  29  33
ATOM     33  O   UNL     1       8.774   6.308  22.496  0.00  0.00    -0.386 OA
ATOM     34  H   UNL     1       9.550   6.740  22.899  0.00  0.00    +0.210 HD
ENDBRANCH  29  33
BRANCH  28  35
ATOM     35  O   UNL     1       7.731   6.833  24.851  0.00  0.00    -0.386 OA
ATOM     36  H   UNL     1       8.479   7.221  24.342  0.00  0.00    +0.210 HD
ENDBRANCH  28  35
BRANCH  27  37
ATOM     37  C   UNL     1       7.222   5.046  26.955  0.00  0.00    +0.266 C 
BRANCH  37  38
ATOM     38  O   UNL     1       7.231   4.068  28.015  0.00  0.00    -0.462 OA
BRANCH  38  39
ATOM     39  C   UNL     1       6.049   3.732  28.584  0.00  0.00    +0.318 C 
ATOM     40  O   UNL     1       5.278   4.506  29.135  0.00  0.00    -0.250 OA
BRANCH  39  41
ATOM     41  C   UNL     1       5.833   2.248  28.553  0.00  0.00    +0.240 C 
BRANCH  41  42
ATOM     42  C   UNL     1       7.093   1.447  28.504  0.00  0.00    +0.316 C 
ATOM     43  O   UNL     1       7.685   0.998  29.486  0.00  0.00    -0.250 OA
BRANCH  42  44
ATOM     44  O   UNL     1       7.533   1.242  27.251  0.00  0.00    -0.480 OA
ATOM     45  H   UNL     1       6.879   0.860  26.630  0.00  0.00    +0.295 HD
ENDBRANCH  42  44
ENDBRANCH  41  42
ENDBRANCH  39  41
ENDBRANCH  38  39
ENDBRANCH  37  38
ENDBRANCH  27  37
ENDBRANCH  24  25
ENDBRANCH  11  24
BRANCH   7  46
ATOM     46  O   UNL     1       6.518  -5.074  24.323  0.00  0.00    -0.461 OA
BRANCH  46  47
ATOM     47  C   UNL     1       5.092  -4.989  24.532  0.00  0.00    +0.339 C 
ATOM     48  O   UNL     1       4.774  -5.105  25.928  0.00  0.00    -0.331 OA
ATOM     49  C   UNL     1       4.959  -6.449  26.414  0.00  0.00    +0.179 C 
ATOM     50  C   UNL     1       3.784  -7.236  25.843  0.00  0.00    +0.177 C 
ATOM     51  C   UNL     1       3.971  -7.331  24.322  0.00  0.00    +0.180 C 
ATOM     52  C   UNL     1       4.201  -5.946  23.685  0.00  0.00    +0.214 C 
BRANCH  50  53
ATOM     53  O   UNL     1       2.541  -6.545  26.109  0.00  0.00    -0.386 OA
ATOM     54  H   UNL     1       2.570  -6.236  27.039  0.00  0.00    +0.210 HD
ENDBRANCH  50  53
BRANCH  51  55
ATOM     55  O   UNL     1       2.798  -7.929  23.744  0.00  0.00    -0.386 OA
ATOM     56  H   UNL     1       3.110  -8.748  23.293  0.00  0.00    +0.210 HD
ENDBRANCH  51  55
BRANCH  52  57
ATOM     57  O   UNL     1       4.632  -6.017  22.323  0.00  0.00    -0.383 OA
ATOM     58  H   UNL     1       5.602  -6.084  22.308  0.00  0.00    +0.210 HD
ENDBRANCH  52  57
BRANCH  49  59
ATOM     59  C   UNL     1       4.966  -6.431  27.944  0.00  0.00    +0.190 C 
BRANCH  59  60
ATOM     60  O   UNL     1       5.485  -7.657  28.467  0.00  0.00    -0.392 OA
ATOM     61  H   UNL     1       6.445  -7.555  28.597  0.00  0.00    +0.210 HD
ENDBRANCH  59  60
ENDBRANCH  49  59
ENDBRANCH  46  47
ENDBRANCH   7  46
TORSDOF 22
ENDMDL
MODEL 2
REMARK VINA RESULT:      -6.9      2.989      9.582
REMARK  Name = 
REMARK  22 active torsions:
REMARK  status: ('A' for Active; 'I' for Inactive)
REMARK    1  A    between atoms: C_3  and  O_50
REMARK    2  A    between atoms: C_4  and  O_49
REMARK    3  A    between atoms: C_6  and  C_7
REMARK    4  A    between atoms: C_8  and  O_31
REMARK    5  A    between atoms: C_12  and  O_30
REMARK    6  A    between atoms: C_14  and  O_18
REMARK    7  A    between atoms: O_18  and  C_19
REMARK    8  A    between atoms: C_20  and  O_29
REMARK    9  A    between atoms: C_21  and  O_28
REMARK   10  A    between atoms: C_22  and  O_27
REMARK   11  A    between atoms: C_23  and  C_25
REMARK   12  A    between atoms: C_25  and  O_26
REMARK   13  A    between atoms: O_31  and  C_32
REMARK   14  A    between atoms: C_33  and  O_48
REMARK   15  A    between atoms: C_34  and  O_47
REMARK   16  A    between atoms: C_35  and  O_46
REMARK   17  A    between atoms: C_36  and  C_38
REMARK   18  A    between atoms: C_38  and  O_39
REMARK   19  A    between atoms: O_39  and  C_40
REMARK   20  A    between atoms: C_40  and  C_42
REMARK   21  A    between atoms: C_42  and  C_43
REMARK   22  A    between atoms: C_43  and  O_45
REMARK                            x       y       z     vdW  Elec       q    Type
REMARK                         _______ _______ _______ _____ _____    ______ ____
ROOT
ATOM      1  C   UNL     1       7.278  -2.793  25.390  0.00  0.00    +0.181 A 
ATOM      2  O   UNL     1       8.162  -1.750  25.616  0.00  0.00    -0.451 OA
ATOM      3  C   UNL     1       8.790  -1.144  24.564  0.00  0.00    +0.147 A 
ATOM      4  C   UNL     1       8.677  -1.575  23.259  0.00  0.00    +0.109 A 
ATOM      5  C   UNL     1       9.400  -0.889  22.267  0.00  0.00    +0.135 A 
ATOM      6  C   UNL     1      10.144   0.269  22.573  0.00  0.00    +0.092 A 
ATOM      7  C   UNL     1      10.162   0.754  23.881  0.00  0.00    +0.131 A 
ATOM      8  C   UNL     1       7.768  -2.711  23.000  0.00  0.00    +0.238 A 
ATOM      9  O   UNL     1       7.628  -3.138  21.856  0.00  0.00    -0.283 OA
ATOM     10  C   UNL     1       9.542  -0.008  24.876  0.00  0.00    +0.093 A 
ATOM     11  C   UNL     1       7.004  -3.291  24.162  0.00  0.00    +0.214 A 
ENDROOT
BRANCH   1  13
ATOM     12  C   UNL     1       6.652  -4.478  27.200  0.00  0.00    +0.015 A 
ATOM     13  C   UNL     1       6.559  -3.196  26.641  0.00  0.00    +0.025 A 
ATOM     14  C   UNL     1       5.639  -2.316  27.232  0.00  0.00    +0.060 A 
ATOM     15  C   UNL     1       4.722  -2.788  28.165  0.00  0.00    +0.159 A 
ATOM     16  C   UNL     1       4.687  -4.132  28.511  0.00  0.00    +0.158 A 
ATOM     17  C   UNL     1       5.683  -4.979  28.072  0.00  0.00    +0.050 A 
BRANCH  16  18
ATOM     18  O   UNL     1       3.649  -4.581  29.274  0.00  0.00    -0.503 OA
ATOM     19  H   UNL     1       4.030  -5.141  29.975  0.00  0.00    +0.292 HD
ENDBRANCH  16  18
BRANCH  15  20
ATOM     20  O   UNL     1       3.809  -1.927  28.697  0.00  0.00    -0.503 OA
ATOM     21  H   UNL     1       3.230  -1.693  27.945  0.00  0.00    +0.292 HD
ENDBRANCH  15  20
ENDBRANCH   1  13
BRANCH   5  22
ATOM     22  O   UNL     1       9.395  -1.277  20.953  0.00  0.00    -0.506 OA
ATOM     23  H   UNL     1       9.032  -0.544  20.411  0.00  0.00    +0.292 HD
ENDBRANCH   5  22
BRANCH  11  24
ATOM     24  O   UNL     1       6.261  -4.444  23.978  0.00  0.00    -0.453 OA
BRANCH  24  25
ATOM     25  C   UNL     1       5.043  -4.458  23.203  0.00  0.00    +0.340 C 
ATOM     26  O   UNL     1       3.993  -3.710  23.851  0.00  0.00    -0.330 OA
ATOM     27  C   UNL     1       3.337  -4.246  25.018  0.00  0.00    +0.191 C 
ATOM     28  C   UNL     1       3.477  -5.769  25.320  0.00  0.00    +0.178 C 
ATOM     29  C   UNL     1       4.567  -6.478  24.503  0.00  0.00    +0.180 C 
ATOM     30  C   UNL     1       4.549  -5.907  23.069  0.00  0.00    +0.214 C 
BRANCH  30  31
ATOM     31  O   UNL     1       5.278  -6.669  22.123  0.00  0.00    -0.383 OA
ATOM     32  H   UNL     1       6.159  -6.892  22.487  0.00  0.00    +0.210 HD
ENDBRANCH  30  31
BRANCH  29  33
ATOM     33  O   UNL     1       4.385  -7.894  24.542  0.00  0.00    -0.386 OA
ATOM     34  H   UNL     1       4.914  -8.234  25.288  0.00  0.00    +0.210 HD
ENDBRANCH  29  33
BRANCH  28  35
ATOM     35  O   UNL     1       2.255  -6.506  25.211  0.00  0.00    -0.386 OA
ATOM     36  H   UNL     1       1.899  -6.422  24.296  0.00  0.00    +0.210 HD
ENDBRANCH  28  35
BRANCH  27  37
ATOM     37  C   UNL     1       1.873  -3.730  25.034  0.00  0.00    +0.266 C 
BRANCH  37  38
ATOM     38  O   UNL     1       1.716  -2.440  25.659  0.00  0.00    -0.462 OA
BRANCH  38  39
ATOM     39  C   UNL     1       1.205  -2.395  26.912  0.00  0.00    +0.318 C 
ATOM     40  O   UNL     1       1.268  -3.295  27.739  0.00  0.00    -0.250 OA
BRANCH  39  41
ATOM     41  C   UNL     1       0.443  -1.124  27.144  0.00  0.00    +0.240 C 
BRANCH  41  42
ATOM     42  C   UNL     1       1.305   0.062  27.434  0.00  0.00    +0.316 C 
ATOM     43  O   UNL     1       0.995   0.998  28.173  0.00  0.00    -0.250 OA
BRANCH  42  44
ATOM     44  O   UNL     1       2.492   0.012  26.806  0.00  0.00    -0.480 OA
ATOM     45  H   UNL     1       2.560   0.545  25.988  0.00  0.00    +0.295 HD
ENDBRANCH  42  44
ENDBRANCH  41  42
ENDBRANCH  39  41
ENDBRANCH  38  39
ENDBRANCH  37  38
ENDBRANCH  27  37
ENDBRANCH  24  25
ENDBRANCH  11  24
BRANCH   7  46
ATOM     46  O   UNL     1      10.744   2.001  24.104  0.00  0.00    -0.461 OA
BRANCH  46  47
ATOM     47  C   UNL     1      10.039   3.066  23.431  0.00  0.00    +0.339 C 
ATOM     48  O   UNL     1      10.950   3.883  22.679  0.00  0.00    -0.331 OA
ATOM     49  C   UNL     1      11.770   4.705  23.533  0.00  0.00    +0.179 C 
ATOM     50  C   UNL     1      10.836   5.801  24.034  0.00  0.00    +0.177 C 
ATOM     51  C   UNL     1       9.806   5.155  24.970  0.00  0.00    +0.180 C 
ATOM     52  C   UNL     1       9.105   3.951  24.308  0.00  0.00    +0.214 C 
BRANCH  50  53
ATOM     53  O   UNL     1      10.131   6.406  22.925  0.00  0.00    -0.386 OA
ATOM     54  H   UNL     1      10.184   7.378  23.038  0.00  0.00    +0.210 HD
ENDBRANCH  50  53
BRANCH  51  55
ATOM     55  O   UNL     1       8.819   6.137  25.330  0.00  0.00    -0.386 OA
ATOM     56  H   UNL     1       9.211   6.650  26.074  0.00  0.00    +0.210 HD
ENDBRANCH  51  55
BRANCH  52  57
ATOM     57  O   UNL     1       8.334   3.173  25.228  0.00  0.00    -0.383 OA
ATOM     58  H   UNL     1       7.517   2.886  24.784  0.00  0.00    +0.210 HD
ENDBRANCH  52  57
BRANCH  49  59
ATOM     59  C   UNL     1      12.942   5.258  22.719  0.00  0.00    +0.190 C 
BRANCH  59  60
ATOM     60  O   UNL     1      14.191   4.910  23.321  0.00  0.00    -0.392 OA
ATOM     61  H   UNL     1      14.357   5.518  24.064  0.00  0.00    +0.210 HD
ENDBRANCH  59  60
ENDBRANCH  49  59
ENDBRANCH  46  47
ENDBRANCH   7  46
TORSDOF 22
ENDMDL
MODEL 3
REMARK VINA RESULT:      -6.8      1.743      3.874
REMARK  Name = 
REMARK  22 active torsions:
REMARK  status: ('A' for Active; 'I' for Inactive)
REMARK    1  A    between atoms: C_3  and  O_50
REMARK    2  A    between atoms: C_4  and  O_49
REMARK    3  A    between atoms: C_6  and  C_7
REMARK    4  A    between atoms: C_8  and  O_31
REMARK    5  A    between atoms: C_12  and  O_30
REMARK    6  A    between atoms: C_14  and  O_18
REMARK    7  A    between atoms: O_18  and  C_19
REMARK    8  A    between atoms: C_20  and  O_29
REMARK    9  A    between atoms: C_21  and  O_28
REMARK   10  A    between atoms: C_22  and  O_27
REMARK   11  A    between atoms: C_23  and  C_25
REMARK   12  A    between atoms: C_25  and  O_26
REMARK   13  A    between atoms: O_31  and  C_32
REMARK   14  A    between atoms: C_33  and  O_48
REMARK   15  A    between atoms: C_34  and  O_47
REMARK   16  A    between atoms: C_35  and  O_46
REMARK   17  A    between atoms: C_36  and  C_38
REMARK   18  A    between atoms: C_38  and  O_39
REMARK   19  A    between atoms: O_39  and  C_40
REMARK   20  A    between atoms: C_40  and  C_42
REMARK   21  A    between atoms: C_42  and  C_43
REMARK   22  A    between atoms: C_43  and  O_45
REMARK                            x       y       z     vdW  Elec       q    Type
REMARK                         _______ _______ _______ _____ _____    ______ ____
ROOT
ATOM      1  C   UNL     1       6.198   0.698  24.765  0.00  0.00    +0.181 A 
ATOM      2  O   UNL     1       5.632  -0.555  24.593  0.00  0.00    -0.451 OA
ATOM      3  C   UNL     1       6.427  -1.638  24.344  0.00  0.00    +0.147 A 
ATOM      4  C   UNL     1       7.790  -1.552  24.148  0.00  0.00    +0.109 A 
ATOM      5  C   UNL     1       8.497  -2.735  23.865  0.00  0.00    +0.135 A 
ATOM      6  C   UNL     1       7.855  -3.991  23.876  0.00  0.00    +0.092 A 
ATOM      7  C   UNL     1       6.496  -4.071  24.181  0.00  0.00    +0.131 A 
ATOM      8  C   UNL     1       8.410  -0.218  24.290  0.00  0.00    +0.238 A 
ATOM      9  O   UNL     1       9.621  -0.082  24.127  0.00  0.00    -0.283 OA
ATOM     10  C   UNL     1       5.783  -2.878  24.337  0.00  0.00    +0.093 A 
ATOM     11  C   UNL     1       7.526   0.940  24.672  0.00  0.00    +0.214 A 
ENDROOT
BRANCH   1  13
ATOM     12  C   UNL     1       4.380   2.432  24.317  0.00  0.00    +0.015 A 
ATOM     13  C   UNL     1       5.187   1.711  25.210  0.00  0.00    +0.025 A 
ATOM     14  C   UNL     1       5.110   2.074  26.563  0.00  0.00    +0.060 A 
ATOM     15  C   UNL     1       4.443   3.235  26.937  0.00  0.00    +0.159 A 
ATOM     16  C   UNL     1       3.862   4.061  25.985  0.00  0.00    +0.158 A 
ATOM     17  C   UNL     1       3.781   3.642  24.674  0.00  0.00    +0.050 A 
BRANCH  16  18
ATOM     18  O   UNL     1       3.395   5.281  26.379  0.00  0.00    -0.503 OA
ATOM     19  H   UNL     1       2.984   5.161  27.254  0.00  0.00    +0.292 HD
ENDBRANCH  16  18
BRANCH  15  20
ATOM     20  O   UNL     1       4.414   3.593  28.252  0.00  0.00    -0.503 OA
ATOM     21  H   UNL     1       3.893   4.420  28.266  0.00  0.00    +0.292 HD
ENDBRANCH  15  20
ENDBRANCH   1  13
BRANCH   5  22
ATOM     22  O   UNL     1       9.841  -2.743  23.601  0.00  0.00    -0.506 OA
ATOM     23  H   UNL     1      10.324  -2.895  24.442  0.00  0.00    +0.292 HD
ENDBRANCH   5  22
BRANCH  11  24
ATOM     24  O   UNL     1       8.048   2.221  24.669  0.00  0.00    -0.453 OA
BRANCH  24  25
ATOM     25  C   UNL     1       9.014   2.656  23.687  0.00  0.00    +0.340 C 
ATOM     26  O   UNL     1       9.566   3.946  24.021  0.00  0.00    -0.330 OA
ATOM     27  C   UNL     1       8.768   5.138  23.862  0.00  0.00    +0.191 C 
ATOM     28  C   UNL     1       7.493   5.069  22.967  0.00  0.00    +0.178 C 
ATOM     29  C   UNL     1       7.053   3.644  22.601  0.00  0.00    +0.180 C 
ATOM     30  C   UNL     1       8.317   2.801  22.325  0.00  0.00    +0.214 C 
BRANCH  30  31
ATOM     31  O   UNL     1       8.069   1.563  21.682  0.00  0.00    -0.383 OA
ATOM     32  H   UNL     1       7.748   1.722  20.770  0.00  0.00    +0.210 HD
ENDBRANCH  30  31
BRANCH  29  33
ATOM     33  O   UNL     1       6.145   3.663  21.500  0.00  0.00    -0.386 OA
ATOM     34  H   UNL     1       6.633   3.354  20.715  0.00  0.00    +0.210 HD
ENDBRANCH  29  33
BRANCH  28  35
ATOM     35  O   UNL     1       7.567   5.857  21.775  0.00  0.00    -0.386 OA
ATOM     36  H   UNL     1       7.373   6.799  21.988  0.00  0.00    +0.210 HD
ENDBRANCH  28  35
BRANCH  27  37
ATOM     37  C   UNL     1       9.716   6.318  23.521  0.00  0.00    +0.266 C 
BRANCH  37  38
ATOM     38  O   UNL     1      10.654   6.635  24.570  0.00  0.00    -0.462 OA
BRANCH  38  39
ATOM     39  C   UNL     1      11.948   6.272  24.402  0.00  0.00    +0.318 C 
ATOM     40  O   UNL     1      12.865   6.534  25.168  0.00  0.00    -0.250 OA
BRANCH  39  41
ATOM     41  C   UNL     1      12.153   5.583  23.086  0.00  0.00    +0.240 C 
BRANCH  41  42
ATOM     42  C   UNL     1      13.552   5.659  22.568  0.00  0.00    +0.316 C 
ATOM     43  O   UNL     1      13.907   6.305  21.580  0.00  0.00    -0.250 OA
BRANCH  42  44
ATOM     44  O   UNL     1      14.422   4.947  23.303  0.00  0.00    -0.480 OA
ATOM     45  H   UNL     1      15.148   4.520  22.804  0.00  0.00    +0.295 HD
ENDBRANCH  42  44
ENDBRANCH  41  42
ENDBRANCH  39  41
ENDBRANCH  38  39
ENDBRANCH  37  38
ENDBRANCH  27  37
ENDBRANCH  24  25
ENDBRANCH  11  24
BRANCH   7  46
ATOM     46  O   UNL     1       5.947  -5.337  24.373  0.00  0.00    -0.461 OA
BRANCH  46  47
ATOM     47  C   UNL     1       4.518  -5.295  24.566  0.00  0.00    +0.339 C 
ATOM     48  O   UNL     1       4.187  -5.442  25.956  0.00  0.00    -0.331 OA
ATOM     49  C   UNL     1       4.404  -6.789  26.423  0.00  0.00    +0.179 C 
ATOM     50  C   UNL     1       3.258  -7.599  25.826  0.00  0.00    +0.177 C 
ATOM     51  C   UNL     1       3.465  -7.664  24.306  0.00  0.00    +0.180 C 
ATOM     52  C   UNL     1       3.663  -6.263  23.694  0.00  0.00    +0.214 C 
BRANCH  50  53
ATOM     53  O   UNL     1       1.993  -6.947  26.088  0.00  0.00    -0.386 OA
ATOM     54  H   UNL     1       1.943  -6.159  25.507  0.00  0.00    +0.210 HD
ENDBRANCH  50  53
BRANCH  51  55
ATOM     55  O   UNL     1       2.316  -8.285  23.704  0.00  0.00    -0.386 OA
ATOM     56  H   UNL     1       1.719  -7.546  23.441  0.00  0.00    +0.210 HD
ENDBRANCH  51  55
BRANCH  52  57
ATOM     57  O   UNL     1       4.112  -6.300  22.336  0.00  0.00    -0.383 OA
ATOM     58  H   UNL     1       4.666  -7.090  22.213  0.00  0.00    +0.210 HD
ENDBRANCH  52  57
BRANCH  49  59
ATOM     59  C   UNL     1       4.392  -6.795  27.953  0.00  0.00    +0.190 C 
BRANCH  59  60
ATOM     60  O   UNL     1       5.460  -7.595  28.468  0.00  0.00    -0.392 OA
ATOM     61  H   UNL     1       5.726  -8.234  27.783  0.00  0.00    +0.210 HD
ENDBRANCH  59  60
ENDBRANCH  49  59
ENDBRANCH  46  47
ENDBRANCH   7  46
TORSDOF 22
ENDMDL
MODEL 4
REMARK VINA RESULT:      -6.8      2.391      9.644
REMARK  Name = 
REMARK  22 active torsions:
REMARK  status: ('A' for Active; 'I' for Inactive)
REMARK    1  A    between atoms: C_3  and  O_50
REMARK    2  A    between atoms: C_4  and  O_49
REMARK    3  A    between atoms: C_6  and  C_7
REMARK    4  A    between atoms: C_8  and  O_31
REMARK    5  A    between atoms: C_12  and  O_30
REMARK    6  A    between atoms: C_14  and  O_18
REMARK    7  A    between atoms: O_18  and  C_19
REMARK    8  A    between atoms: C_20  and  O_29
REMARK    9  A    between atoms: C_21  and  O_28
REMARK   10  A    between atoms: C_22  and  O_27
REMARK   11  A    between atoms: C_23  and  C_25
REMARK   12  A    between atoms: C_25  and  O_26
REMARK   13  A    between atoms: O_31  and  C_32
REMARK   14  A    between atoms: C_33  and  O_48
REMARK   15  A    between atoms: C_34  and  O_47
REMARK   16  A    between atoms: C_35  and  O_46
REMARK   17  A    between atoms: C_36  and  C_38
REMARK   18  A    between atoms: C_38  and  O_39
REMARK   19  A    between atoms: O_39  and  C_40
REMARK   20  A    between atoms: C_40  and  C_42
REMARK   21  A    between atoms: C_42  and  C_43
REMARK   22  A    between atoms: C_43  and  O_45
REMARK                            x       y       z     vdW  Elec       q    Type
REMARK                         _______ _______ _______ _____ _____    ______ ____
ROOT
ATOM      1  C   UNL     1       4.968  -2.023  26.907  0.00  0.00    +0.181 A 
ATOM      2  O   UNL     1       4.842  -0.693  26.536  0.00  0.00    -0.451 OA
ATOM      3  C   UNL     1       5.945   0.023  26.167  0.00  0.00    +0.147 A 
ATOM      4  C   UNL     1       7.231  -0.472  26.234  0.00  0.00    +0.109 A 
ATOM      5  C   UNL     1       8.290   0.375  25.858  0.00  0.00    +0.135 A 
ATOM      6  C   UNL     1       8.046   1.662  25.334  0.00  0.00    +0.092 A 
ATOM      7  C   UNL     1       6.734   2.107  25.174  0.00  0.00    +0.131 A 
ATOM      8  C   UNL     1       7.393  -1.876  26.662  0.00  0.00    +0.238 A 
ATOM      9  O   UNL     1       8.516  -2.370  26.739  0.00  0.00    -0.283 OA
ATOM     10  C   UNL     1       5.700   1.305  25.667  0.00  0.00    +0.093 A 
ATOM     11  C   UNL     1       6.152  -2.677  26.958  0.00  0.00    +0.214 A 
ENDROOT
BRANCH   1  13
ATOM     12  C   UNL     1       3.180  -3.151  28.333  0.00  0.00    +0.015 A 
ATOM     13  C   UNL     1       3.635  -2.680  27.093  0.00  0.00    +0.025 A 
ATOM     14  C   UNL     1       2.837  -2.971  25.977  0.00  0.00    +0.060 A 
ATOM     15  C   UNL     1       1.785  -3.873  26.088  0.00  0.00    +0.159 A 
ATOM     16  C   UNL     1       1.519  -4.513  27.291  0.00  0.00    +0.158 A 
ATOM     17  C   UNL     1       2.179  -4.120  28.435  0.00  0.00    +0.050 A 
BRANCH  16  18
ATOM     18  O   UNL     1       0.609  -5.530  27.300  0.00  0.00    -0.503 OA
ATOM     19  H   UNL     1       0.270  -5.602  28.211  0.00  0.00    +0.292 HD
ENDBRANCH  16  18
BRANCH  15  20
ATOM     20  O   UNL     1       1.046  -4.175  24.982  0.00  0.00    -0.503 OA
ATOM     21  H   UNL     1       1.638  -4.734  24.441  0.00  0.00    +0.292 HD
ENDBRANCH  15  20
ENDBRANCH   1  13
BRANCH   5  22
ATOM     22  O   UNL     1       9.603  -0.006  25.943  0.00  0.00    -0.506 OA
ATOM     23  H   UNL     1      10.136   0.768  26.225  0.00  0.00    +0.292 HD
ENDBRANCH   5  22
BRANCH  11  24
ATOM     24  O   UNL     1       6.276  -3.944  27.500  0.00  0.00    -0.453 OA
BRANCH  24  25
ATOM     25  C   UNL     1       7.043  -4.985  26.857  0.00  0.00    +0.340 C 
ATOM     26  O   UNL     1       7.055  -4.826  25.423  0.00  0.00    -0.330 OA
ATOM     27  C   UNL     1       5.873  -5.125  24.652  0.00  0.00    +0.191 C 
ATOM     28  C   UNL     1       4.753  -5.989  25.307  0.00  0.00    +0.178 C 
ATOM     29  C   UNL     1       4.896  -6.164  26.826  0.00  0.00    +0.180 C 
ATOM     30  C   UNL     1       6.393  -6.346  27.155  0.00  0.00    +0.214 C 
BRANCH  30  31
ATOM     31  O   UNL     1       6.654  -6.823  28.463  0.00  0.00    -0.383 OA
ATOM     32  H   UNL     1       7.618  -6.944  28.585  0.00  0.00    +0.210 HD
ENDBRANCH  30  31
BRANCH  29  33
ATOM     33  O   UNL     1       4.088  -7.247  27.286  0.00  0.00    -0.386 OA
ATOM     34  H   UNL     1       4.663  -7.834  27.812  0.00  0.00    +0.210 HD
ENDBRANCH  29  33
BRANCH  28  35
ATOM     35  O   UNL     1       4.569  -7.272  24.702  0.00  0.00    -0.386 OA
ATOM     36  H   UNL     1       4.552  -7.177  23.722  0.00  0.00    +0.210 HD
ENDBRANCH  28  35
BRANCH  27  37
ATOM     37  C   UNL     1       6.320  -5.625  23.252  0.00  0.00    +0.266 C 
BRANCH  37  38
ATOM     38  O   UNL     1       6.992  -4.624  22.461  0.00  0.00    -0.462 OA
BRANCH  38  39
ATOM     39  C   UNL     1       6.348  -3.456  22.227  0.00  0.00    +0.318 C 
ATOM     40  O   UNL     1       5.368  -3.315  21.509  0.00  0.00    -0.250 OA
BRANCH  39  41
ATOM     41  C   UNL     1       7.054  -2.306  22.882  0.00  0.00    +0.240 C 
BRANCH  41  42
ATOM     42  C   UNL     1       8.540  -2.442  22.922  0.00  0.00    +0.316 C 
ATOM     43  O   UNL     1       9.320  -1.927  22.119  0.00  0.00    -0.250 OA
BRANCH  42  44
ATOM     44  O   UNL     1       8.969  -3.192  23.952  0.00  0.00    -0.480 OA
ATOM     45  H   UNL     1       9.885  -3.531  23.875  0.00  0.00    +0.295 HD
ENDBRANCH  42  44
ENDBRANCH  41  42
ENDBRANCH  39  41
ENDBRANCH  38  39
ENDBRANCH  37  38
ENDBRANCH  27  37
ENDBRANCH  24  25
ENDBRANCH  11  24
BRANCH   7  46
ATOM     46  O   UNL     1       6.532   3.296  24.476  0.00  0.00    -0.461 OA
BRANCH  46  47
ATOM     47  C   UNL     1       7.664   3.653  23.655  0.00  0.00    +0.339 C 
ATOM     48  O   UNL     1       8.622   4.411  24.411  0.00  0.00    -0.331 OA
ATOM     49  C   UNL     1       8.158   5.747  24.688  0.00  0.00    +0.179 C 
ATOM     50  C   UNL     1       8.276   6.485  23.359  0.00  0.00    +0.177 C 
ATOM     51  C   UNL     1       7.240   5.892  22.394  0.00  0.00    +0.180 C 
ATOM     52  C   UNL     1       7.354   4.357  22.301  0.00  0.00    +0.214 C 
BRANCH  50  53
ATOM     53  O   UNL     1       9.593   6.290  22.792  0.00  0.00    -0.386 OA
ATOM     54  H   UNL     1      10.210   6.122  23.535  0.00  0.00    +0.210 HD
ENDBRANCH  50  53
BRANCH  51  55
ATOM     55  O   UNL     1       7.439   6.461  21.088  0.00  0.00    -0.386 OA
ATOM     56  H   UNL     1       8.155   5.929  20.670  0.00  0.00    +0.210 HD
ENDBRANCH  51  55
BRANCH  52  57
ATOM     57  O   UNL     1       6.252   3.751  21.620  0.00  0.00    -0.383 OA
ATOM     58  H   UNL     1       6.434   2.801  21.519  0.00  0.00    +0.210 HD
ENDBRANCH  52  57
BRANCH  49  59
ATOM     59  C   UNL     1       9.032   6.363  25.782  0.00  0.00    +0.190 C 
BRANCH  59  60
ATOM     60  O   UNL     1       8.588   5.955  27.080  0.00  0.00    -0.392 OA
ATOM     61  H   UNL     1       7.805   5.387  26.974  0.00  0.00    +0.210 HD
ENDBRANCH  59  60
ENDBRANCH  49  59
ENDBRANCH  46  47
ENDBRANCH   7  46
TORSDOF 22
ENDMDL
MODEL 5
REMARK VINA RESULT:      -6.7      2.953      9.981
REMARK  Name = 
REMARK  22 active torsions:
REMARK  status: ('A' for Active; 'I' for Inactive)
REMARK    1  A    between atoms: C_3  and  O_50
REMARK    2  A    between atoms: C_4  and  O_49
REMARK    3  A    between atoms: C_6  and  C_7
REMARK    4  A    between atoms: C_8  and  O_31
REMARK    5  A    between atoms: C_12  and  O_30
REMARK    6  A    between atoms: C_14  and  O_18
REMARK    7  A    between atoms: O_18  and  C_19
REMARK    8  A    between atoms: C_20  and  O_29
REMARK    9  A    between atoms: C_21  and  O_28
REMARK   10  A    between atoms: C_22  and  O_27
REMARK   11  A    between atoms: C_23  and  C_25
REMARK   12  A    between atoms: C_25  and  O_26
REMARK   13  A    between atoms: O_31  and  C_32
REMARK   14  A    between atoms: C_33  and  O_48
REMARK   15  A    between atoms: C_34  and  O_47
REMARK   16  A    between atoms: C_35  and  O_46
REMARK   17  A    between atoms: C_36  and  C_38
REMARK   18  A    between atoms: C_38  and  O_39
REMARK   19  A    between atoms: O_39  and  C_40
REMARK   20  A    between atoms: C_40  and  C_42
REMARK   21  A    between atoms: C_42  and  C_43
REMARK   22  A    between atoms: C_43  and  O_45
REMARK                            x       y       z     vdW  Elec       q    Type
REMARK                         _______ _______ _______ _____ _____    ______ ____
ROOT
ATOM      1  C   UNL     1       7.050  -2.236  25.772  0.00  0.00    +0.181 A 
ATOM      2  O   UNL     1       7.952  -1.196  25.933  0.00  0.00    -0.451 OA
ATOM      3  C   UNL     1       8.744  -0.808  24.890  0.00  0.00    +0.147 A 
ATOM      4  C   UNL     1       8.781  -1.465  23.677  0.00  0.00    +0.109 A 
ATOM      5  C   UNL     1       9.665  -0.991  22.691  0.00  0.00    +0.135 A 
ATOM      6  C   UNL     1      10.424   0.181  22.892  0.00  0.00    +0.092 A 
ATOM      7  C   UNL     1      10.295   0.894  24.084  0.00  0.00    +0.131 A 
ATOM      8  C   UNL     1       7.855  -2.602  23.496  0.00  0.00    +0.238 A 
ATOM      9  O   UNL     1       7.843  -3.223  22.436  0.00  0.00    -0.283 OA
ATOM     10  C   UNL     1       9.509   0.342  25.101  0.00  0.00    +0.093 A 
ATOM     11  C   UNL     1       6.914  -2.939  24.624  0.00  0.00    +0.214 A 
ENDROOT
BRANCH   1  13
ATOM     12  C   UNL     1       5.982  -3.596  27.648  0.00  0.00    +0.015 A 
ATOM     13  C   UNL     1       6.151  -2.385  26.961  0.00  0.00    +0.025 A 
ATOM     14  C   UNL     1       5.326  -1.319  27.352  0.00  0.00    +0.060 A 
ATOM     15  C   UNL     1       4.256  -1.543  28.210  0.00  0.00    +0.159 A 
ATOM     16  C   UNL     1       3.972  -2.819  28.676  0.00  0.00    +0.158 A 
ATOM     17  C   UNL     1       4.861  -3.847  28.442  0.00  0.00    +0.050 A 
BRANCH  16  18
ATOM     18  O   UNL     1       2.803  -3.021  29.350  0.00  0.00    -0.503 OA
ATOM     19  H   UNL     1       2.713  -2.292  29.991  0.00  0.00    +0.292 HD
ENDBRANCH  16  18
BRANCH  15  20
ATOM     20  O   UNL     1       3.441  -0.502  28.545  0.00  0.00    -0.503 OA
ATOM     21  H   UNL     1       2.881  -0.856  29.265  0.00  0.00    +0.292 HD
ENDBRANCH  15  20
ENDBRANCH   1  13
BRANCH   5  22
ATOM     22  O   UNL     1       9.813  -1.609  21.478  0.00  0.00    -0.506 OA
ATOM     23  H   UNL     1       9.866  -2.578  21.624  0.00  0.00    +0.292 HD
ENDBRANCH   5  22
BRANCH  11  24
ATOM     24  O   UNL     1       6.140  -4.083  24.542  0.00  0.00    -0.453 OA
BRANCH  24  25
ATOM     25  C   UNL     1       4.799  -4.069  24.007  0.00  0.00    +0.340 C 
ATOM     26  O   UNL     1       3.835  -4.523  24.979  0.00  0.00    -0.330 OA
ATOM     27  C   UNL     1       3.757  -5.923  25.321  0.00  0.00    +0.191 C 
ATOM     28  C   UNL     1       4.412  -6.963  24.363  0.00  0.00    +0.178 C 
ATOM     29  C   UNL     1       5.349  -6.351  23.311  0.00  0.00    +0.180 C 
ATOM     30  C   UNL     1       4.723  -5.032  22.811  0.00  0.00    +0.214 C 
BRANCH  30  31
ATOM     31  O   UNL     1       5.308  -4.513  21.630  0.00  0.00    -0.383 OA
ATOM     32  H   UNL     1       6.280  -4.623  21.666  0.00  0.00    +0.210 HD
ENDBRANCH  30  31
BRANCH  29  33
ATOM     33  O   UNL     1       5.601  -7.283  22.258  0.00  0.00    -0.386 OA
ATOM     34  H   UNL     1       4.929  -7.128  21.568  0.00  0.00    +0.210 HD
ENDBRANCH  29  33
BRANCH  28  35
ATOM     35  O   UNL     1       3.481  -7.833  23.713  0.00  0.00    -0.386 OA
ATOM     36  H   UNL     1       2.613  -7.795  24.176  0.00  0.00    +0.210 HD
ENDBRANCH  28  35
BRANCH  27  37
ATOM     37  C   UNL     1       2.288  -6.250  25.700  0.00  0.00    +0.266 C 
BRANCH  37  38
ATOM     38  O   UNL     1       2.118  -7.540  26.322  0.00  0.00    -0.462 OA
BRANCH  38  39
ATOM     39  C   UNL     1       1.425  -7.603  27.483  0.00  0.00    +0.318 C 
ATOM     40  O   UNL     1       0.621  -8.475  27.785  0.00  0.00    -0.250 OA
BRANCH  39  41
ATOM     41  C   UNL     1       1.682  -6.397  28.337  0.00  0.00    +0.240 C 
BRANCH  41  42
ATOM     42  C   UNL     1       2.669  -6.624  29.435  0.00  0.00    +0.316 C 
ATOM     43  O   UNL     1       2.834  -5.880  30.403  0.00  0.00    -0.250 OA
BRANCH  42  44
ATOM     44  O   UNL     1       3.377  -7.755  29.276  0.00  0.00    -0.480 OA
ATOM     45  H   UNL     1       3.633  -7.967  28.355  0.00  0.00    +0.295 HD
ENDBRANCH  42  44
ENDBRANCH  41  42
ENDBRANCH  39  41
ENDBRANCH  38  39
ENDBRANCH  37  38
ENDBRANCH  27  37
ENDBRANCH  24  25
ENDBRANCH  11  24
BRANCH   7  46
ATOM     46  O   UNL     1      10.909   2.142  24.164  0.00  0.00    -0.461 OA
BRANCH  46  47
ATOM     47  C   UNL     1      10.192   3.157  23.431  0.00  0.00    +0.339 C 
ATOM     48  O   UNL     1      11.105   4.063  22.790  0.00  0.00    -0.331 OA
ATOM     49  C   UNL     1      11.756   4.934  23.737  0.00  0.00    +0.179 C 
ATOM     50  C   UNL     1      10.683   5.938  24.146  0.00  0.00    +0.177 C 
ATOM     51  C   UNL     1       9.618   5.188  24.958  0.00  0.00    +0.180 C 
ATOM     52  C   UNL     1       9.097   3.944  24.211  0.00  0.00    +0.214 C 
BRANCH  50  53
ATOM     53  O   UNL     1      10.051   6.503  22.973  0.00  0.00    -0.386 OA
ATOM     54  H   UNL     1       9.583   7.316  23.256  0.00  0.00    +0.210 HD
ENDBRANCH  50  53
BRANCH  51  55
ATOM     55  O   UNL     1       8.518   6.077  25.219  0.00  0.00    -0.386 OA
ATOM     56  H   UNL     1       8.684   6.878  24.669  0.00  0.00    +0.210 HD
ENDBRANCH  51  55
BRANCH  52  57
ATOM     57  O   UNL     1       8.302   3.085  25.034  0.00  0.00    -0.383 OA
ATOM     58  H   UNL     1       8.742   2.220  25.096  0.00  0.00    +0.210 HD
ENDBRANCH  52  57
BRANCH  49  59
ATOM     59  C   UNL     1      12.956   5.599  23.060  0.00  0.00    +0.190 C 
BRANCH  59  60
ATOM     60  O   UNL     1      14.144   4.827  23.254  0.00  0.00    -0.392 OA
ATOM     61  H   UNL     1      13.894   3.967  23.637  0.00  0.00    +0.210 HD
ENDBRANCH  59  60
ENDBRANCH  49  59
ENDBRANCH  46  47
ENDBRANCH   7  46
TORSDOF 22
ENDMDL
MODEL 6
REMARK VINA RESULT:      -6.5      2.499      4.953
REMARK  Name = 
REMARK  22 active torsions:
REMARK  status: ('A' for Active; 'I' for Inactive)
REMARK    1  A    between atoms: C_3  and  O_50
REMARK    2  A    between atoms: C_4  and  O_49
REMARK    3  A    between atoms: C_6  and  C_7
REMARK    4  A    between atoms: C_8  and  O_31
REMARK    5  A    between atoms: C_12  and  O_30
REMARK    6  A    between atoms: C_14  and  O_18
REMARK    7  A    between atoms: O_18  and  C_19
REMARK    8  A    between atoms: C_20  and  O_29
REMARK    9  A    between atoms: C_21  and  O_28
REMARK   10  A    between atoms: C_22  and  O_27
REMARK   11  A    between atoms: C_23  and  C_25
REMARK   12  A    between atoms: C_25  and  O_26
REMARK   13  A    between atoms: O_31  and  C_32
REMARK   14  A    between atoms: C_33  and  O_48
REMARK   15  A    between atoms: C_34  and  O_47
REMARK   16  A    between atoms: C_35  and  O_46
REMARK   17  A    between atoms: C_36  and  C_38
REMARK   18  A    between atoms: C_38  and  O_39
REMARK   19  A    between atoms: O_39  and  C_40
REMARK   20  A    between atoms: C_40  and  C_42
REMARK   21  A    between atoms: C_42  and  C_43
REMARK   22  A    between atoms: C_43  and  O_45
REMARK                            x       y       z     vdW  Elec       q    Type
REMARK                         _______ _______ _______ _____ _____    ______ ____
ROOT
ATOM      1  C   UNL     1       7.586   1.063  25.891  0.00  0.00    +0.181 A 
ATOM      2  O   UNL     1       7.081  -0.207  26.123  0.00  0.00    -0.451 OA
ATOM      3  C   UNL     1       6.118  -0.399  27.071  0.00  0.00    +0.147 A 
ATOM      4  C   UNL     1       5.666   0.599  27.911  0.00  0.00    +0.109 A 
ATOM      5  C   UNL     1       4.694   0.269  28.872  0.00  0.00    +0.135 A 
ATOM      6  C   UNL     1       4.119  -1.018  28.920  0.00  0.00    +0.092 A 
ATOM      7  C   UNL     1       4.510  -1.985  27.994  0.00  0.00    +0.131 A 
ATOM      8  C   UNL     1       6.218   1.954  27.707  0.00  0.00    +0.238 A 
ATOM      9  O   UNL     1       5.852   2.882  28.425  0.00  0.00    -0.283 OA
ATOM     10  C   UNL     1       5.565  -1.681  27.128  0.00  0.00    +0.093 A 
ATOM     11  C   UNL     1       7.199   2.160  26.581  0.00  0.00    +0.214 A 
ENDROOT
BRANCH   1  13
ATOM     12  C   UNL     1       9.881   1.241  24.790  0.00  0.00    +0.015 A 
ATOM     13  C   UNL     1       8.489   1.096  24.696  0.00  0.00    +0.025 A 
ATOM     14  C   UNL     1       7.939   1.117  23.405  0.00  0.00    +0.060 A 
ATOM     15  C   UNL     1       8.722   1.494  22.319  0.00  0.00    +0.159 A 
ATOM     16  C   UNL     1      10.046   1.873  22.494  0.00  0.00    +0.158 A 
ATOM     17  C   UNL     1      10.651   1.701  23.720  0.00  0.00    +0.050 A 
BRANCH  16  18
ATOM     18  O   UNL     1      10.710   2.422  21.436  0.00  0.00    -0.503 OA
ATOM     19  H   UNL     1      10.399   3.341  21.348  0.00  0.00    +0.292 HD
ENDBRANCH  16  18
BRANCH  15  20
ATOM     20  O   UNL     1       8.159   1.549  21.079  0.00  0.00    -0.503 OA
ATOM     21  H   UNL     1       8.049   2.505  20.905  0.00  0.00    +0.292 HD
ENDBRANCH  15  20
ENDBRANCH   1  13
BRANCH   5  22
ATOM     22  O   UNL     1       4.225   1.177  29.785  0.00  0.00    -0.506 OA
ATOM     23  H   UNL     1       3.340   1.485  29.494  0.00  0.00    +0.292 HD
ENDBRANCH   5  22
BRANCH  11  24
ATOM     24  O   UNL     1       7.842   3.380  26.458  0.00  0.00    -0.453 OA
BRANCH  24  25
ATOM     25  C   UNL     1       7.127   4.601  26.169  0.00  0.00    +0.340 C 
ATOM     26  O   UNL     1       6.278   4.458  25.012  0.00  0.00    -0.330 OA
ATOM     27  C   UNL     1       6.857   4.405  23.692  0.00  0.00    +0.191 C 
ATOM     28  C   UNL     1       8.322   4.903  23.498  0.00  0.00    +0.178 C 
ATOM     29  C   UNL     1       9.098   5.106  24.807  0.00  0.00    +0.180 C 
ATOM     30  C   UNL     1       8.139   5.714  25.853  0.00  0.00    +0.214 C 
BRANCH  30  31
ATOM     31  O   UNL     1       8.778   6.240  27.002  0.00  0.00    -0.383 OA
ATOM     32  H   UNL     1       8.480   7.160  27.155  0.00  0.00    +0.210 HD
ENDBRANCH  30  31
BRANCH  29  33
ATOM     33  O   UNL     1      10.260   5.907  24.585  0.00  0.00    -0.386 OA
ATOM     34  H   UNL     1       9.977   6.840  24.607  0.00  0.00    +0.210 HD
ENDBRANCH  29  33
BRANCH  28  35
ATOM     35  O   UNL     1       8.442   6.081  22.694  0.00  0.00    -0.386 OA
ATOM     36  H   UNL     1       8.213   6.874  23.232  0.00  0.00    +0.210 HD
ENDBRANCH  28  35
BRANCH  27  37
ATOM     37  C   UNL     1       5.843   5.019  22.690  0.00  0.00    +0.266 C 
BRANCH  37  38
ATOM     38  O   UNL     1       4.493   5.086  23.193  0.00  0.00    -0.462 OA
BRANCH  38  39
ATOM     39  C   UNL     1       3.656   4.059  22.914  0.00  0.00    +0.318 C 
ATOM     40  O   UNL     1       3.458   3.584  21.804  0.00  0.00    -0.250 OA
BRANCH  39  41
ATOM     41  C   UNL     1       2.899   3.627  24.135  0.00  0.00    +0.240 C 
BRANCH  41  42
ATOM     42  C   UNL     1       3.514   2.476  24.860  0.00  0.00    +0.316 C 
ATOM     43  O   UNL     1       3.115   2.020  25.933  0.00  0.00    -0.250 OA
BRANCH  42  44
ATOM     44  O   UNL     1       4.570   1.954  24.213  0.00  0.00    -0.480 OA
ATOM     45  H   UNL     1       5.448   2.236  24.541  0.00  0.00    +0.295 HD
ENDBRANCH  42  44
ENDBRANCH  41  42
ENDBRANCH  39  41
ENDBRANCH  38  39
ENDBRANCH  37  38
ENDBRANCH  27  37
ENDBRANCH  24  25
ENDBRANCH  11  24
BRANCH   7  46
ATOM     46  O   UNL     1       3.783  -3.173  27.949  0.00  0.00    -0.461 OA
BRANCH  46  47
ATOM     47  C   UNL     1       4.323  -4.184  28.826  0.00  0.00    +0.339 C 
ATOM     48  O   UNL     1       5.606  -4.632  28.359  0.00  0.00    -0.331 OA
ATOM     49  C   UNL     1       5.494  -5.446  27.175  0.00  0.00    +0.179 C 
ATOM     50  C   UNL     1       4.949  -6.782  27.669  0.00  0.00    +0.177 C 
ATOM     51  C   UNL     1       3.504  -6.559  28.139  0.00  0.00    +0.180 C 
ATOM     52  C   UNL     1       3.402  -5.398  29.149  0.00  0.00    +0.214 C 
BRANCH  50  53
ATOM     53  O   UNL     1       5.727  -7.257  28.792  0.00  0.00    -0.386 OA
ATOM     54  H   UNL     1       6.620  -7.481  28.456  0.00  0.00    +0.210 HD
ENDBRANCH  50  53
BRANCH  51  55
ATOM     55  O   UNL     1       3.023  -7.766  28.756  0.00  0.00    -0.386 OA
ATOM     56  H   UNL     1       2.747  -7.510  29.667  0.00  0.00    +0.210 HD
ENDBRANCH  51  55
BRANCH  52  57
ATOM     57  O   UNL     1       2.054  -4.996  29.410  0.00  0.00    -0.383 OA
ATOM     58  H   UNL     1       1.877  -5.102  30.360  0.00  0.00    +0.210 HD
ENDBRANCH  52  57
BRANCH  49  59
ATOM     59  C   UNL     1       6.874  -5.578  26.527  0.00  0.00    +0.190 C 
BRANCH  59  60
ATOM     60  O   UNL     1       7.872  -5.872  27.509  0.00  0.00    -0.392 OA
ATOM     61  H   UNL     1       7.560  -5.549  28.373  0.00  0.00    +0.210 HD
ENDBRANCH  59  60
ENDBRANCH  49  59
ENDBRANCH  46  47
ENDBRANCH   7  46
TORSDOF 22
ENDMDL
MODEL 7
REMARK VINA RESULT:      -6.4      2.133      5.170
REMARK  Name = 
REMARK  22 active torsions:
REMARK  status: ('A' for Active; 'I' for Inactive)
REMARK    1  A    between atoms: C_3  and  O_50
REMARK    2  A    between atoms: C_4  and  O_49
REMARK    3  A    between atoms: C_6  and  C_7
REMARK    4  A    between atoms: C_8  and  O_31
REMARK    5  A    between atoms: C_12  and  O_30
REMARK    6  A    between atoms: C_14  and  O_18
REMARK    7  A    between atoms: O_18  and  C_19
REMARK    8  A    between atoms: C_20  and  O_29
REMARK    9  A    between atoms: C_21  and  O_28
REMARK   10  A    between atoms: C_22  and  O_27
REMARK   11  A    between atoms: C_23  and  C_25
REMARK   12  A    between atoms: C_25  and  O_26
REMARK   13  A    between atoms: O_31  and  C_32
REMARK   14  A    between atoms: C_33  and  O_48
REMARK   15  A    between atoms: C_34  and  O_47
REMARK   16  A    between atoms: C_35  and  O_46
REMARK   17  A    between atoms: C_36  and  C_38
REMARK   18  A    between atoms: C_38  and  O_39
REMARK   19  A    between atoms: O_39  and  C_40
REMARK   20  A    between atoms: C_40  and  C_42
REMARK   21  A    between atoms: C_42  and  C_43
REMARK   22  A    between atoms: C_43  and  O_45
REMARK                            x       y       z     vdW  Elec       q    Type
REMARK                         _______ _______ _______ _____ _____    ______ ____
ROOT
ATOM      1  C   UNL     1       5.309  -0.963  25.284  0.00  0.00    +0.181 A 
ATOM      2  O   UNL     1       4.265  -1.751  25.742  0.00  0.00    -0.451 OA
ATOM      3  C   UNL     1       3.966  -2.926  25.113  0.00  0.00    +0.147 A 
ATOM      4  C   UNL     1       4.587  -3.351  23.957  0.00  0.00    +0.109 A 
ATOM      5  C   UNL     1       4.168  -4.564  23.384  0.00  0.00    +0.135 A 
ATOM      6  C   UNL     1       3.208  -5.380  24.018  0.00  0.00    +0.092 A 
ATOM      7  C   UNL     1       2.666  -4.987  25.243  0.00  0.00    +0.131 A 
ATOM      8  C   UNL     1       5.679  -2.507  23.429  0.00  0.00    +0.238 A 
ATOM      9  O   UNL     1       6.269  -2.836  22.402  0.00  0.00    -0.283 OA
ATOM     10  C   UNL     1       3.000  -3.722  25.736  0.00  0.00    +0.093 A 
ATOM     11  C   UNL     1       6.062  -1.272  24.203  0.00  0.00    +0.214 A 
ENDROOT
BRANCH   1  13
ATOM     12  C   UNL     1       5.137   1.485  25.981  0.00  0.00    +0.015 A 
ATOM     13  C   UNL     1       5.595   0.179  26.210  0.00  0.00    +0.025 A 
ATOM     14  C   UNL     1       6.467  -0.002  27.294  0.00  0.00    +0.060 A 
ATOM     15  C   UNL     1       7.011   1.100  27.944  0.00  0.00    +0.159 A 
ATOM     16  C   UNL     1       6.720   2.391  27.521  0.00  0.00    +0.158 A 
ATOM     17  C   UNL     1       5.743   2.596  26.571  0.00  0.00    +0.050 A 
BRANCH  16  18
ATOM     18  O   UNL     1       7.429   3.426  28.058  0.00  0.00    -0.503 OA
ATOM     19  H   UNL     1       8.373   3.236  27.906  0.00  0.00    +0.292 HD
ENDBRANCH  16  18
BRANCH  15  20
ATOM     20  O   UNL     1       7.889   0.905  28.969  0.00  0.00    -0.503 OA
ATOM     21  H   UNL     1       7.663   0.018  29.314  0.00  0.00    +0.292 HD
ENDBRANCH  15  20
ENDBRANCH   1  13
BRANCH   5  22
ATOM     22  O   UNL     1       4.685  -5.040  22.208  0.00  0.00    -0.506 OA
ATOM     23  H   UNL     1       5.266  -4.351  21.820  0.00  0.00    +0.292 HD
ENDBRANCH   5  22
BRANCH  11  24
ATOM     24  O   UNL     1       6.977  -0.388  23.659  0.00  0.00    -0.453 OA
BRANCH  24  25
ATOM     25  C   UNL     1       8.350  -0.332  24.101  0.00  0.00    +0.340 C 
ATOM     26  O   UNL     1       8.698   0.981  24.586  0.00  0.00    -0.330 OA
ATOM     27  C   UNL     1       8.882   2.070  23.659  0.00  0.00    +0.191 C 
ATOM     28  C   UNL     1       9.103   1.738  22.152  0.00  0.00    +0.178 C 
ATOM     29  C   UNL     1       8.786   0.285  21.771  0.00  0.00    +0.180 C 
ATOM     30  C   UNL     1       9.276  -0.634  22.911  0.00  0.00    +0.214 C 
BRANCH  30  31
ATOM     31  O   UNL     1       9.334  -2.009  22.575  0.00  0.00    -0.383 OA
ATOM     32  H   UNL     1       8.443  -2.327  22.324  0.00  0.00    +0.210 HD
ENDBRANCH  30  31
BRANCH  29  33
ATOM     33  O   UNL     1       9.361  -0.042  20.506  0.00  0.00    -0.386 OA
ATOM     34  H   UNL     1       8.630  -0.290  19.910  0.00  0.00    +0.210 HD
ENDBRANCH  29  33
BRANCH  28  35
ATOM     35  O   UNL     1      10.402   2.080  21.658  0.00  0.00    -0.386 OA
ATOM     36  H   UNL     1      10.313   2.643  20.855  0.00  0.00    +0.210 HD
ENDBRANCH  28  35
BRANCH  27  37
ATOM     37  C   UNL     1       9.935   3.044  24.253  0.00  0.00    +0.266 C 
BRANCH  37  38
ATOM     38  O   UNL     1       9.592   4.436  24.104  0.00  0.00    -0.462 OA
BRANCH  38  39
ATOM     39  C   UNL     1       8.607   4.939  24.886  0.00  0.00    +0.318 C 
ATOM     40  O   UNL     1       8.707   5.197  26.078  0.00  0.00    -0.250 OA
BRANCH  39  41
ATOM     41  C   UNL     1       7.316   5.049  24.131  0.00  0.00    +0.240 C 
BRANCH  41  42
ATOM     42  C   UNL     1       7.466   5.551  22.733  0.00  0.00    +0.316 C 
ATOM     43  O   UNL     1       8.040   6.593  22.412  0.00  0.00    -0.250 OA
BRANCH  42  44
ATOM     44  O   UNL     1       6.911   4.734  21.822  0.00  0.00    -0.480 OA
ATOM     45  H   UNL     1       6.179   4.171  22.148  0.00  0.00    +0.295 HD
ENDBRANCH  42  44
ENDBRANCH  41  42
ENDBRANCH  39  41
ENDBRANCH  38  39
ENDBRANCH  37  38
ENDBRANCH  27  37
ENDBRANCH  24  25
ENDBRANCH  11  24
BRANCH   7  46
ATOM     46  O   UNL     1       1.875  -5.906  25.928  0.00  0.00    -0.461 OA
BRANCH  46  47
ATOM     47  C   UNL     1       2.518  -7.190  26.071  0.00  0.00    +0.339 C 
ATOM     48  O   UNL     1       2.420  -7.948  24.855  0.00  0.00    -0.331 OA
ATOM     49  C   UNL     1       1.081  -8.430  24.625  0.00  0.00    +0.179 C 
ATOM     50  C   UNL     1       0.899  -9.569  25.622  0.00  0.00    +0.177 C 
ATOM     51  C   UNL     1       0.871  -8.964  27.033  0.00  0.00    +0.180 C 
ATOM     52  C   UNL     1       2.090  -8.056  27.293  0.00  0.00    +0.214 C 
BRANCH  50  53
ATOM     53  O   UNL     1       2.013 -10.489  25.542  0.00  0.00    -0.386 OA
ATOM     54  H   UNL     1       2.114 -10.905  26.423  0.00  0.00    +0.210 HD
ENDBRANCH  50  53
BRANCH  51  55
ATOM     55  O   UNL     1       0.860 -10.030  27.998  0.00  0.00    -0.386 OA
ATOM     56  H   UNL     1       0.255  -9.734  28.717  0.00  0.00    +0.210 HD
ENDBRANCH  51  55
BRANCH  52  57
ATOM     57  O   UNL     1       1.969  -7.278  28.487  0.00  0.00    -0.383 OA
ATOM     58  H   UNL     1       2.770  -7.406  29.024  0.00  0.00    +0.210 HD
ENDBRANCH  52  57
BRANCH  49  59
ATOM     59  C   UNL     1       0.960  -8.895  23.172  0.00  0.00    +0.190 C 
BRANCH  59  60
ATOM     60  O   UNL     1       1.899  -8.211  22.338  0.00  0.00    -0.392 OA
ATOM     61  H   UNL     1       2.332  -8.865  21.760  0.00  0.00    +0.210 HD
ENDBRANCH  59  60
ENDBRANCH  49  59
ENDBRANCH  46  47
ENDBRANCH   7  46
TORSDOF 22
ENDMDL
MODEL 8
REMARK VINA RESULT:      -6.4      1.933      4.257
REMARK  Name = 
REMARK  22 active torsions:
REMARK  status: ('A' for Active; 'I' for Inactive)
REMARK    1  A    between atoms: C_3  and  O_50
REMARK    2  A    between atoms: C_4  and  O_49
REMARK    3  A    between atoms: C_6  and  C_7
REMARK    4  A    between atoms: C_8  and  O_31
REMARK    5  A    between atoms: C_12  and  O_30
REMARK    6  A    between atoms: C_14  and  O_18
REMARK    7  A    between atoms: O_18  and  C_19
REMARK    8  A    between atoms: C_20  and  O_29
REMARK    9  A    between atoms: C_21  and  O_28
REMARK   10  A    between atoms: C_22  and  O_27
REMARK   11  A    between atoms: C_23  and  C_25
REMARK   12  A    between atoms: C_25  and  O_26
REMARK   13  A    between atoms: O_31  and  C_32
REMARK   14  A    between atoms: C_33  and  O_48
REMARK   15  A    between atoms: C_34  and  O_47
REMARK   16  A    between atoms: C_35  and  O_46
REMARK   17  A    between atoms: C_36  and  C_38
REMARK   18  A    between atoms: C_38  and  O_39
REMARK   19  A    between atoms: O_39  and  C_40
REMARK   20  A    between atoms: C_40  and  C_42
REMARK   21  A    between atoms: C_42  and  C_43
REMARK   22  A    between atoms: C_43  and  O_45
REMARK                            x       y       z     vdW  Elec       q    Type
REMARK                         _______ _______ _______ _____ _____    ______ ____
ROOT
ATOM      1  C   UNL     1       5.202   1.343  25.187  0.00  0.00    +0.181 A 
ATOM      2  O   UNL     1       4.647   0.088  25.384  0.00  0.00    -0.451 OA
ATOM      3  C   UNL     1       5.432  -0.951  25.796  0.00  0.00    +0.147 A 
ATOM      4  C   UNL     1       6.801  -0.861  25.941  0.00  0.00    +0.109 A 
ATOM      5  C   UNL     1       7.505  -2.012  26.339  0.00  0.00    +0.135 A 
ATOM      6  C   UNL     1       6.828  -3.202  26.678  0.00  0.00    +0.092 A 
ATOM      7  C   UNL     1       5.435  -3.244  26.629  0.00  0.00    +0.131 A 
ATOM      8  C   UNL     1       7.419   0.459  25.699  0.00  0.00    +0.238 A 
ATOM      9  O   UNL     1       8.635   0.598  25.814  0.00  0.00    -0.283 OA
ATOM     10  C   UNL     1       4.759  -2.135  26.112  0.00  0.00    +0.093 A 
ATOM     11  C   UNL     1       6.517   1.615  25.352  0.00  0.00    +0.214 A 
ENDROOT
BRANCH   1  13
ATOM     12  C   UNL     1       3.245   2.819  25.892  0.00  0.00    +0.015 A 
ATOM     13  C   UNL     1       4.155   2.381  24.920  0.00  0.00    +0.025 A 
ATOM     14  C   UNL     1       3.964   2.861  23.615  0.00  0.00    +0.060 A 
ATOM     15  C   UNL     1       2.798   3.544  23.287  0.00  0.00    +0.159 A 
ATOM     16  C   UNL     1       1.800   3.743  24.231  0.00  0.00    +0.158 A 
ATOM     17  C   UNL     1       2.035   3.429  25.553  0.00  0.00    +0.050 A 
BRANCH  16  18
ATOM     18  O   UNL     1       0.599   4.238  23.814  0.00  0.00    -0.503 OA
ATOM     19  H   UNL     1       0.783   4.860  23.086  0.00  0.00    +0.292 HD
ENDBRANCH  16  18
BRANCH  15  20
ATOM     20  O   UNL     1       2.611   3.967  22.005  0.00  0.00    -0.503 OA
ATOM     21  H   UNL     1       2.010   3.301  21.615  0.00  0.00    +0.292 HD
ENDBRANCH  15  20
ENDBRANCH   1  13
BRANCH   5  22
ATOM     22  O   UNL     1       8.869  -2.035  26.456  0.00  0.00    -0.506 OA
ATOM     23  H   UNL     1       9.141  -1.338  27.091  0.00  0.00    +0.292 HD
ENDBRANCH   5  22
BRANCH  11  24
ATOM     24  O   UNL     1       7.077   2.823  24.978  0.00  0.00    -0.453 OA
BRANCH  24  25
ATOM     25  C   UNL     1       7.229   3.206  23.595  0.00  0.00    +0.340 C 
ATOM     26  O   UNL     1       7.876   2.171  22.826  0.00  0.00    -0.330 OA
ATOM     27  C   UNL     1       9.289   1.928  22.984  0.00  0.00    +0.191 C 
ATOM     28  C   UNL     1      10.165   3.026  23.660  0.00  0.00    +0.178 C 
ATOM     29  C   UNL     1       9.362   4.126  24.371  0.00  0.00    +0.180 C 
ATOM     30  C   UNL     1       8.122   4.455  23.512  0.00  0.00    +0.214 C 
BRANCH  30  31
ATOM     31  O   UNL     1       7.456   5.651  23.875  0.00  0.00    -0.383 OA
ATOM     32  H   UNL     1       6.883   5.948  23.138  0.00  0.00    +0.210 HD
ENDBRANCH  30  31
BRANCH  29  33
ATOM     33  O   UNL     1      10.184   5.266  24.623  0.00  0.00    -0.386 OA
ATOM     34  H   UNL     1      10.332   5.309  25.586  0.00  0.00    +0.210 HD
ENDBRANCH  29  33
BRANCH  28  35
ATOM     35  O   UNL     1      11.123   3.634  22.788  0.00  0.00    -0.386 OA
ATOM     36  H   UNL     1      10.858   3.488  21.851  0.00  0.00    +0.210 HD
ENDBRANCH  28  35
BRANCH  27  37
ATOM     37  C   UNL     1       9.850   1.417  21.630  0.00  0.00    +0.266 C 
BRANCH  37  38
ATOM     38  O   UNL     1       9.297   0.153  21.208  0.00  0.00    -0.462 OA
BRANCH  38  39
ATOM     39  C   UNL     1       9.501  -0.929  21.997  0.00  0.00    +0.318 C 
ATOM     40  O   UNL     1      10.576  -1.484  22.177  0.00  0.00    -0.250 OA
BRANCH  39  41
ATOM     41  C   UNL     1       8.210  -1.446  22.556  0.00  0.00    +0.240 C 
BRANCH  41  42
ATOM     42  C   UNL     1       8.194  -2.920  22.797  0.00  0.00    +0.316 C 
ATOM     43  O   UNL     1       7.397  -3.711  22.290  0.00  0.00    -0.250 OA
BRANCH  42  44
ATOM     44  O   UNL     1       9.165  -3.324  23.633  0.00  0.00    -0.480 OA
ATOM     45  H   UNL     1       8.905  -4.010  24.282  0.00  0.00    +0.295 HD
ENDBRANCH  42  44
ENDBRANCH  41  42
ENDBRANCH  39  41
ENDBRANCH  38  39
ENDBRANCH  37  38
ENDBRANCH  27  37
ENDBRANCH  24  25
ENDBRANCH  11  24
BRANCH   7  46
ATOM     46  O   UNL     1       4.800  -4.367  27.156  0.00  0.00    -0.461 OA
BRANCH  46  47
ATOM     47  C   UNL     1       5.159  -5.581  26.462  0.00  0.00    +0.339 C 
ATOM     48  O   UNL     1       5.213  -5.358  25.043  0.00  0.00    -0.331 OA
ATOM     49  C   UNL     1       3.899  -5.193  24.472  0.00  0.00    +0.179 C 
ATOM     50  C   UNL     1       3.297  -6.593  24.464  0.00  0.00    +0.177 C 
ATOM     51  C   UNL     1       3.051  -7.012  25.921  0.00  0.00    +0.180 C 
ATOM     52  C   UNL     1       4.317  -6.850  26.786  0.00  0.00    +0.214 C 
BRANCH  50  53
ATOM     53  O   UNL     1       4.221  -7.534  23.868  0.00  0.00    -0.386 OA
ATOM     54  H   UNL     1       3.718  -8.066  23.217  0.00  0.00    +0.210 HD
ENDBRANCH  50  53
BRANCH  51  55
ATOM     55  O   UNL     1       2.632  -8.387  25.947  0.00  0.00    -0.386 OA
ATOM     56  H   UNL     1       1.658  -8.374  25.799  0.00  0.00    +0.210 HD
ENDBRANCH  51  55
BRANCH  52  57
ATOM     57  O   UNL     1       4.061  -6.982  28.188  0.00  0.00    -0.383 OA
ATOM     58  H   UNL     1       3.293  -6.431  28.416  0.00  0.00    +0.210 HD
ENDBRANCH  52  57
BRANCH  49  59
ATOM     59  C   UNL     1       4.037  -4.604  23.067  0.00  0.00    +0.190 C 
BRANCH  59  60
ATOM     60  O   UNL     1       4.926  -5.390  22.269  0.00  0.00    -0.392 OA
ATOM     61  H   UNL     1       4.396  -5.926  21.652  0.00  0.00    +0.210 HD
ENDBRANCH  59  60
ENDBRANCH  49  59
ENDBRANCH  46  47
ENDBRANCH   7  46
TORSDOF 22
ENDMDL
MODEL 9
REMARK VINA RESULT:      -6.3      2.313      4.570
REMARK  Name = 
REMARK  22 active torsions:
REMARK  status: ('A' for Active; 'I' for Inactive)
REMARK    1  A    between atoms: C_3  and  O_50
REMARK    2  A    between atoms: C_4  and  O_49
REMARK    3  A    between atoms: C_6  and  C_7
REMARK    4  A    between atoms: C_8  and  O_31
REMARK    5  A    between atoms: C_12  and  O_30
REMARK    6  A    between atoms: C_14  and  O_18
REMARK    7  A    between atoms: O_18  and  C_19
REMARK    8  A    between atoms: C_20  and  O_29
REMARK    9  A    between atoms: C_21  and  O_28
REMARK   10  A    between atoms: C_22  and  O_27
REMARK   11  A    between atoms: C_23  and  C_25
REMARK   12  A    between atoms: C_25  and  O_26
REMARK   13  A    between atoms: O_31  and  C_32
REMARK   14  A    between atoms: C_33  and  O_48
REMARK   15  A    between atoms: C_34  and  O_47
REMARK   16  A    between atoms: C_35  and  O_46
REMARK   17  A    between atoms: C_36  and  C_38
REMARK   18  A    between atoms: C_38  and  O_39
REMARK   19  A    between atoms: O_39  and  C_40
REMARK   20  A    between atoms: C_40  and  C_42
REMARK   21  A    between atoms: C_42  and  C_43
REMARK   22  A    between atoms: C_43  and  O_45
REMARK                            x       y       z     vdW  Elec       q    Type
REMARK                         _______ _______ _______ _____ _____    ______ ____
ROOT
ATOM      1  C   UNL     1       6.449   1.036  26.207  0.00  0.00    +0.181 A 
ATOM      2  O   UNL     1       6.094  -0.144  26.842  0.00  0.00    -0.451 OA
ATOM      3  C   UNL     1       6.561  -1.340  26.377  0.00  0.00    +0.147 A 
ATOM      4  C   UNL     1       7.307  -1.470  25.224  0.00  0.00    +0.109 A 
ATOM      5  C   UNL     1       7.702  -2.761  24.829  0.00  0.00    +0.135 A 
ATOM      6  C   UNL     1       7.431  -3.887  25.634  0.00  0.00    +0.092 A 
ATOM      7  C   UNL     1       6.769  -3.725  26.851  0.00  0.00    +0.131 A 
ATOM      8  C   UNL     1       7.666  -0.228  24.509  0.00  0.00    +0.238 A 
ATOM      9  O   UNL     1       8.330  -0.283  23.477  0.00  0.00    -0.283 OA
ATOM     10  C   UNL     1       6.274  -2.456  27.169  0.00  0.00    +0.093 A 
ATOM     11  C   UNL     1       7.231   1.086  25.104  0.00  0.00    +0.214 A 
ENDROOT
BRANCH   1  13
ATOM     12  C   UNL     1       4.684   2.741  26.905  0.00  0.00    +0.015 A 
ATOM     13  C   UNL     1       5.993   2.241  26.971  0.00  0.00    +0.025 A 
ATOM     14  C   UNL     1       6.923   3.004  27.693  0.00  0.00    +0.060 A 
ATOM     15  C   UNL     1       6.598   4.290  28.109  0.00  0.00    +0.159 A 
ATOM     16  C   UNL     1       5.363   4.846  27.803  0.00  0.00    +0.158 A 
ATOM     17  C   UNL     1       4.378   4.060  27.244  0.00  0.00    +0.050 A 
BRANCH  16  18
ATOM     18  O   UNL     1       5.165   6.172  28.058  0.00  0.00    -0.503 OA
ATOM     19  H   UNL     1       4.235   6.369  27.842  0.00  0.00    +0.292 HD
ENDBRANCH  16  18
BRANCH  15  20
ATOM     20  O   UNL     1       7.529   5.032  28.773  0.00  0.00    -0.503 OA
ATOM     21  H   UNL     1       7.233   5.956  28.651  0.00  0.00    +0.292 HD
ENDBRANCH  15  20
ENDBRANCH   1  13
BRANCH   5  22
ATOM     22  O   UNL     1       8.396  -2.996  23.672  0.00  0.00    -0.506 OA
ATOM     23  H   UNL     1       7.771  -3.334  22.995  0.00  0.00    +0.292 HD
ENDBRANCH   5  22
BRANCH  11  24
ATOM     24  O   UNL     1       7.424   2.253  24.385  0.00  0.00    -0.453 OA
BRANCH  24  25
ATOM     25  C   UNL     1       8.742   2.761  24.083  0.00  0.00    +0.340 C 
ATOM     26  O   UNL     1       9.146   3.779  25.021  0.00  0.00    -0.330 OA
ATOM     27  C   UNL     1       8.552   5.093  24.963  0.00  0.00    +0.191 C 
ATOM     28  C   UNL     1       7.801   5.516  23.665  0.00  0.00    +0.178 C 
ATOM     29  C   UNL     1       7.505   4.359  22.699  0.00  0.00    +0.180 C 
ATOM     30  C   UNL     1       8.723   3.411  22.690  0.00  0.00    +0.214 C 
BRANCH  30  31
ATOM     31  O   UNL     1       8.731   2.473  21.628  0.00  0.00    -0.383 OA
ATOM     32  H   UNL     1       7.812   2.220  21.403  0.00  0.00    +0.210 HD
ENDBRANCH  30  31
BRANCH  29  33
ATOM     33  O   UNL     1       7.176   4.857  21.402  0.00  0.00    -0.386 OA
ATOM     34  H   UNL     1       7.196   5.831  21.452  0.00  0.00    +0.210 HD
ENDBRANCH  29  33
BRANCH  28  35
ATOM     35  O   UNL     1       8.427   6.581  22.943  0.00  0.00    -0.386 OA
ATOM     36  H   UNL     1       9.395   6.411  22.875  0.00  0.00    +0.210 HD
ENDBRANCH  28  35
BRANCH  27  37
ATOM     37  C   UNL     1       9.605   6.124  25.450  0.00  0.00    +0.266 C 
BRANCH  37  38
ATOM     38  O   UNL     1      10.514   6.562  24.420  0.00  0.00    -0.462 OA
BRANCH  38  39
ATOM     39  C   UNL     1      11.795   6.126  24.470  0.00  0.00    +0.318 C 
ATOM     40  O   UNL     1      12.676   6.588  25.183  0.00  0.00    -0.250 OA
BRANCH  39  41
ATOM     41  C   UNL     1      12.046   5.053  23.453  0.00  0.00    +0.240 C 
BRANCH  41  42
ATOM     42  C   UNL     1      13.265   5.275  22.618  0.00  0.00    +0.316 C 
ATOM     43  O   UNL     1      13.261   5.648  21.444  0.00  0.00    -0.250 OA
BRANCH  42  44
ATOM     44  O   UNL     1      14.406   5.034  23.286  0.00  0.00    -0.480 OA
ATOM     45  H   UNL     1      14.855   4.192  23.067  0.00  0.00    +0.295 HD
ENDBRANCH  42  44
ENDBRANCH  41  42
ENDBRANCH  39  41
ENDBRANCH  38  39
ENDBRANCH  37  38
ENDBRANCH  27  37
ENDBRANCH  24  25
ENDBRANCH  11  24
BRANCH   7  46
ATOM     46  O   UNL     1       6.695  -4.825  27.703  0.00  0.00    -0.461 OA
BRANCH  46  47
ATOM     47  C   UNL     1       5.811  -5.851  27.203  0.00  0.00    +0.339 C 
ATOM     48  O   UNL     1       4.676  -5.268  26.543  0.00  0.00    -0.331 OA
ATOM     49  C   UNL     1       3.759  -4.664  27.477  0.00  0.00    +0.179 C 
ATOM     50  C   UNL     1       3.057  -5.839  28.151  0.00  0.00    +0.177 C 
ATOM     51  C   UNL     1       4.089  -6.573  29.019  0.00  0.00    +0.180 C 
ATOM     52  C   UNL     1       5.355  -6.940  28.219  0.00  0.00    +0.214 C 
BRANCH  50  53
ATOM     53  O   UNL     1       2.557  -6.762  27.155  0.00  0.00    -0.386 OA
ATOM     54  H   UNL     1       2.644  -7.666  27.525  0.00  0.00    +0.210 HD
ENDBRANCH  50  53
BRANCH  51  55
ATOM     55  O   UNL     1       3.492  -7.774  29.538  0.00  0.00    -0.386 OA
ATOM     56  H   UNL     1       3.045  -8.204  28.772  0.00  0.00    +0.210 HD
ENDBRANCH  51  55
BRANCH  52  57
ATOM     57  O   UNL     1       6.433  -7.388  29.046  0.00  0.00    -0.383 OA
ATOM     58  H   UNL     1       6.108  -7.477  29.958  0.00  0.00    +0.210 HD
ENDBRANCH  52  57
BRANCH  49  59
ATOM     59  C   UNL     1       2.790  -3.760  26.713  0.00  0.00    +0.190 C 
BRANCH  59  60
ATOM     60  O   UNL     1       3.291  -3.464  25.406  0.00  0.00    -0.392 OA
ATOM     61  H   UNL     1       3.402  -4.301  24.921  0.00  0.00    +0.210 HD
ENDBRANCH  59  60
ENDBRANCH  49  59
ENDBRANCH  46  47
ENDBRANCH   7  46
TORSDOF 22
ENDMDL
