MODEL 1
REMARK VINA RESULT:      -7.3      0.000      0.000
REMARK  Name = 
REMARK  19 active torsions:
REMARK  status: ('A' for Active; 'I' for Inactive)
REMARK    1  A    between atoms: C_3  and  O_47
REMARK    2  A    between atoms: C_4  and  O_46
REMARK    3  A    between atoms: C_6  and  C_7
REMARK    4  A    between atoms: C_8  and  C_9
REMARK    5  A    between atoms: N_11  and  C_12
REMARK    6  A    between atoms: C_12  and  C_13
REMARK    7  A    between atoms: N_15  and  C_18
REMARK    8  A    between atoms: C_18  and  C_19
REMARK    9  A    between atoms: C_19  and  C_20
REMARK   10  A    between atoms: C_20  and  C_21
REMARK   11  A    between atoms: C_21  and  C_22
REMARK   12  A    between atoms: C_22  and  C_23
REMARK   13  A    between atoms: C_23  and  O_24
REMARK   14  A    between atoms: O_24  and  C_25
REMARK   15  A    between atoms: C_26  and  C_38
REMARK   16  A    between atoms: C_30  and  O_37
REMARK   17  A    between atoms: C_32  and  O_36
REMARK   18  A    between atoms: C_40  and  O_45
REMARK   19  A    between atoms: C_41  and  O_44
REMARK                            x       y       z     vdW  Elec       q    Type
REMARK                         _______ _______ _______ _____ _____    ______ ____
ROOT
ATOM      1  C   UNL     1       4.017  -1.048  26.880  0.00  0.00    +0.041 C 
ENDROOT
BRANCH   1   2
ATOM      2  C   UNL     1       5.326  -1.583  27.459  0.00  0.00    +0.229 C 
BRANCH   2   3
ATOM      3  O   UNL     1       6.202  -1.838  26.363  0.00  0.00    -0.485 OA
BRANCH   3   4
ATOM      4  C   UNL     1       6.375  -0.843  25.420  0.00  0.00    +0.211 A 
ATOM      5  C   UNL     1       6.924   0.492  25.818  0.00  0.00    +0.238 A 
ATOM      6  O   UNL     1       7.369   0.689  26.943  0.00  0.00    -0.283 OA
ATOM      7  C   UNL     1       6.974   1.538  24.786  0.00  0.00    +0.109 A 
ATOM      8  C   UNL     1       6.695   1.166  23.475  0.00  0.00    +0.147 A 
ATOM      9  C   UNL     1       6.778   2.111  22.447  0.00  0.00    +0.092 A 
ATOM     10  C   UNL     1       7.138   3.424  22.749  0.00  0.00    +0.124 A 
ATOM     11  C   UNL     1       7.412   3.809  24.055  0.00  0.00    +0.091 A 
ATOM     12  O   UNL     1       6.348  -0.114  23.113  0.00  0.00    -0.451 OA
ATOM     13  C   UNL     1       7.326   2.865  25.076  0.00  0.00    +0.135 A 
ATOM     14  C   UNL     1       6.179  -1.083  24.102  0.00  0.00    +0.181 A 
BRANCH  14  15
ATOM     15  C   UNL     1       5.768  -2.417  23.547  0.00  0.00    +0.025 A 
ATOM     16  C   UNL     1       6.244  -2.844  22.288  0.00  0.00    +0.015 A 
ATOM     17  C   UNL     1       5.911  -4.107  21.765  0.00  0.00    +0.050 A 
ATOM     18  C   UNL     1       5.088  -4.954  22.495  0.00  0.00    +0.158 A 
ATOM     19  C   UNL     1       4.604  -4.560  23.732  0.00  0.00    +0.159 A 
ATOM     20  C   UNL     1       4.951  -3.317  24.265  0.00  0.00    +0.060 A 
BRANCH  19  21
ATOM     21  O   UNL     1       3.788  -5.432  24.398  0.00  0.00    -0.503 OA
ATOM     22  H   UNL     1       2.894  -5.359  24.022  0.00  0.00    +0.292 HD
ENDBRANCH  19  21
BRANCH  18  23
ATOM     23  O   UNL     1       4.777  -6.183  21.994  0.00  0.00    -0.503 OA
ATOM     24  H   UNL     1       5.243  -6.219  21.133  0.00  0.00    +0.292 HD
ENDBRANCH  18  23
ENDBRANCH  14  15
BRANCH  13  25
ATOM     25  O   UNL     1       7.576   3.267  26.357  0.00  0.00    -0.506 OA
ATOM     26  H   UNL     1       7.189   4.141  26.522  0.00  0.00    +0.292 HD
ENDBRANCH  13  25
BRANCH  10  27
ATOM     27  O   UNL     1       7.236   4.384  21.786  0.00  0.00    -0.507 OA
ATOM     28  H   UNL     1       7.539   5.214  22.189  0.00  0.00    +0.292 HD
ENDBRANCH  10  27
ENDBRANCH   3   4
ENDBRANCH   2   3
ENDBRANCH   1   2
BRANCH   1  29
ATOM     29  C   UNL     1       2.873  -2.070  26.929  0.00  0.00    +0.003 C 
BRANCH  29  30
ATOM     30  C   UNL     1       2.749  -2.793  28.275  0.00  0.00    +0.002 C 
BRANCH  30  31
ATOM     31  C   UNL     1       2.360  -4.255  28.070  0.00  0.00    +0.023 C 
BRANCH  31  32
ATOM     32  C   UNL     1       3.282  -5.198  28.838  0.00  0.00    +0.145 C 
BRANCH  32  36
ATOM     33  C   UNL     1       6.518  -5.572  27.346  0.00  0.00    +0.100 A 
ATOM     34  N   UNL     1       5.722  -6.388  26.581  0.00  0.00    -0.133 NA
ATOM     35  N   UNL     1       4.483  -6.314  27.050  0.00  0.00    -0.065 NA
ATOM     36  N   UNL     1       4.499  -5.482  28.105  0.00  0.00    -0.251 N 
ATOM     37  C   UNL     1       5.749  -4.999  28.337  0.00  0.00    +0.135 A 
BRANCH  33  38
ATOM     38  C   UNL     1       7.957  -5.394  27.045  0.00  0.00    +0.163 C 
BRANCH  38  40
ATOM     39  C   UNL     1       8.989  -4.582  24.986  0.00  0.00    +0.237 C 
ATOM     40  N   UNL     1       8.120  -4.382  26.026  0.00  0.00    -0.306 N 
ATOM     41  H   UNL     1       7.727  -3.469  26.206  0.00  0.00    +0.149 HD
ATOM     42  O   UNL     1       9.609  -5.620  24.799  0.00  0.00    -0.271 OA
BRANCH  39  44
ATOM     43  C   UNL     1       9.641  -2.263  24.555  0.00  0.00    +0.013 C 
ATOM     44  C   UNL     1       9.113  -3.406  24.089  0.00  0.00    +0.068 C 
BRANCH  43  46
ATOM     45  C   UNL     1       9.507  -1.088  22.371  0.00  0.00    +0.012 A 
ATOM     46  C   UNL     1       9.818  -1.050  23.742  0.00  0.00    -0.021 A 
ATOM     47  C   UNL     1      10.251   0.157  24.303  0.00  0.00    +0.057 A 
ATOM     48  C   UNL     1      10.423   1.272  23.494  0.00  0.00    +0.159 A 
ATOM     49  C   UNL     1      10.148   1.217  22.131  0.00  0.00    +0.158 A 
ATOM     50  C   UNL     1       9.674   0.044  21.562  0.00  0.00    +0.050 A 
BRANCH  49  51
ATOM     51  O   UNL     1      10.363   2.349  21.396  0.00  0.00    -0.503 OA
ATOM     52  H   UNL     1      11.161   2.787  21.741  0.00  0.00    +0.292 HD
ENDBRANCH  49  51
BRANCH  48  53
ATOM     53  O   UNL     1      10.881   2.430  24.054  0.00  0.00    -0.503 OA
ATOM     54  H   UNL     1      10.670   2.341  25.004  0.00  0.00    +0.292 HD
ENDBRANCH  48  53
ENDBRANCH  43  46
ENDBRANCH  39  44
ENDBRANCH  38  40
ENDBRANCH  33  38
ENDBRANCH  32  36
ENDBRANCH  31  32
ENDBRANCH  30  31
ENDBRANCH  29  30
ENDBRANCH   1  29
TORSDOF 19
ENDMDL
MODEL 2
REMARK VINA RESULT:      -7.2      1.009      4.718
REMARK  Name = 
REMARK  19 active torsions:
REMARK  status: ('A' for Active; 'I' for Inactive)
REMARK    1  A    between atoms: C_3  and  O_47
REMARK    2  A    between atoms: C_4  and  O_46
REMARK    3  A    between atoms: C_6  and  C_7
REMARK    4  A    between atoms: C_8  and  C_9
REMARK    5  A    between atoms: N_11  and  C_12
REMARK    6  A    between atoms: C_12  and  C_13
REMARK    7  A    between atoms: N_15  and  C_18
REMARK    8  A    between atoms: C_18  and  C_19
REMARK    9  A    between atoms: C_19  and  C_20
REMARK   10  A    between atoms: C_20  and  C_21
REMARK   11  A    between atoms: C_21  and  C_22
REMARK   12  A    between atoms: C_22  and  C_23
REMARK   13  A    between atoms: C_23  and  O_24
REMARK   14  A    between atoms: O_24  and  C_25
REMARK   15  A    between atoms: C_26  and  C_38
REMARK   16  A    between atoms: C_30  and  O_37
REMARK   17  A    between atoms: C_32  and  O_36
REMARK   18  A    between atoms: C_40  and  O_45
REMARK   19  A    between atoms: C_41  and  O_44
REMARK                            x       y       z     vdW  Elec       q    Type
REMARK                         _______ _______ _______ _____ _____    ______ ____
ROOT
ATOM      1  C   UNL     1       3.859  -0.487  28.348  0.00  0.00    +0.041 C 
ENDROOT
BRANCH   1   2
ATOM      2  C   UNL     1       4.078  -0.177  26.869  0.00  0.00    +0.229 C 
BRANCH   2   3
ATOM      3  O   UNL     1       5.387  -0.633  26.529  0.00  0.00    -0.485 OA
BRANCH   3   4
ATOM      4  C   UNL     1       5.544  -1.356  25.363  0.00  0.00    +0.211 A 
ATOM      5  C   UNL     1       4.993  -2.744  25.251  0.00  0.00    +0.238 A 
ATOM      6  O   UNL     1       4.268  -3.215  26.120  0.00  0.00    -0.283 OA
ATOM      7  C   UNL     1       5.296  -3.495  24.025  0.00  0.00    +0.109 A 
ATOM      8  C   UNL     1       5.901  -2.807  22.978  0.00  0.00    +0.147 A 
ATOM      9  C   UNL     1       6.165  -3.462  21.770  0.00  0.00    +0.092 A 
ATOM     10  C   UNL     1       5.820  -4.805  21.629  0.00  0.00    +0.124 A 
ATOM     11  C   UNL     1       5.221  -5.505  22.668  0.00  0.00    +0.091 A 
ATOM     12  O   UNL     1       6.253  -1.480  23.053  0.00  0.00    -0.451 OA
ATOM     13  C   UNL     1       4.963  -4.850  23.869  0.00  0.00    +0.135 A 
ATOM     14  C   UNL     1       6.081  -0.794  24.255  0.00  0.00    +0.181 A 
BRANCH  14  15
ATOM     15  C   UNL     1       6.544   0.634  24.182  0.00  0.00    +0.025 A 
ATOM     16  C   UNL     1       7.209   1.226  25.278  0.00  0.00    +0.015 A 
ATOM     17  C   UNL     1       7.693   2.545  25.219  0.00  0.00    +0.050 A 
ATOM     18  C   UNL     1       7.508   3.291  24.062  0.00  0.00    +0.158 A 
ATOM     19  C   UNL     1       6.856   2.736  22.973  0.00  0.00    +0.159 A 
ATOM     20  C   UNL     1       6.395   1.419  23.018  0.00  0.00    +0.060 A 
BRANCH  19  21
ATOM     21  O   UNL     1       6.693   3.523  21.867  0.00  0.00    -0.503 OA
ATOM     22  H   UNL     1       7.270   3.182  21.162  0.00  0.00    +0.292 HD
ENDBRANCH  19  21
BRANCH  18  23
ATOM     23  O   UNL     1       7.989   4.565  24.001  0.00  0.00    -0.503 OA
ATOM     24  H   UNL     1       7.734   4.879  23.110  0.00  0.00    +0.292 HD
ENDBRANCH  18  23
ENDBRANCH  14  15
BRANCH  13  25
ATOM     25  O   UNL     1       4.395  -5.560  24.889  0.00  0.00    -0.506 OA
ATOM     26  H   UNL     1       4.617  -5.163  25.746  0.00  0.00    +0.292 HD
ENDBRANCH  13  25
BRANCH  10  27
ATOM     27  O   UNL     1       6.053  -5.491  20.473  0.00  0.00    -0.507 OA
ATOM     28  H   UNL     1       6.973  -5.799  20.461  0.00  0.00    +0.292 HD
ENDBRANCH  10  27
ENDBRANCH   3   4
ENDBRANCH   2   3
ENDBRANCH   1   2
BRANCH   1  29
ATOM     29  C   UNL     1       2.643  -1.391  28.602  0.00  0.00    +0.003 C 
BRANCH  29  30
ATOM     30  C   UNL     1       2.939  -2.574  29.529  0.00  0.00    +0.002 C 
BRANCH  30  31
ATOM     31  C   UNL     1       2.481  -3.886  28.895  0.00  0.00    +0.023 C 
BRANCH  31  32
ATOM     32  C   UNL     1       3.187  -5.089  29.514  0.00  0.00    +0.145 C 
BRANCH  32  36
ATOM     33  C   UNL     1       6.234  -5.782  27.762  0.00  0.00    +0.100 A 
ATOM     34  N   UNL     1       5.367  -6.725  27.272  0.00  0.00    -0.133 NA
ATOM     35  N   UNL     1       4.189  -6.549  27.856  0.00  0.00    -0.065 NA
ATOM     36  N   UNL     1       4.315  -5.524  28.717  0.00  0.00    -0.251 N 
ATOM     37  C   UNL     1       5.576  -5.016  28.702  0.00  0.00    +0.135 A 
BRANCH  33  38
ATOM     38  C   UNL     1       7.626  -5.680  27.268  0.00  0.00    +0.163 C 
BRANCH  38  40
ATOM     39  C   UNL     1       8.841  -4.275  25.682  0.00  0.00    +0.237 C 
ATOM     40  N   UNL     1       7.803  -4.431  26.562  0.00  0.00    -0.306 N 
ATOM     41  H   UNL     1       7.264  -3.636  26.877  0.00  0.00    +0.149 HD
ATOM     42  O   UNL     1       9.619  -5.167  25.373  0.00  0.00    -0.271 OA
BRANCH  39  44
ATOM     43  C   UNL     1       9.605  -2.694  23.977  0.00  0.00    +0.013 C 
ATOM     44  C   UNL     1       8.937  -2.903  25.124  0.00  0.00    +0.068 C 
BRANCH  43  46
ATOM     45  C   UNL     1       9.307  -1.203  22.014  0.00  0.00    +0.012 A 
ATOM     46  C   UNL     1       9.745  -1.377  23.339  0.00  0.00    -0.021 A 
ATOM     47  C   UNL     1      10.267  -0.275  24.026  0.00  0.00    +0.057 A 
ATOM     48  C   UNL     1      10.399   0.945  23.378  0.00  0.00    +0.159 A 
ATOM     49  C   UNL     1       9.996   1.100  22.055  0.00  0.00    +0.158 A 
ATOM     50  C   UNL     1       9.433   0.034  21.368  0.00  0.00    +0.050 A 
BRANCH  49  51
ATOM     51  O   UNL     1      10.178   2.325  21.477  0.00  0.00    -0.503 OA
ATOM     52  H   UNL     1       9.310   2.762  21.416  0.00  0.00    +0.292 HD
ENDBRANCH  49  51
BRANCH  48  53
ATOM     53  O   UNL     1      10.945   1.997  24.055  0.00  0.00    -0.503 OA
ATOM     54  H   UNL     1      10.218   2.327  24.620  0.00  0.00    +0.292 HD
ENDBRANCH  48  53
ENDBRANCH  43  46
ENDBRANCH  39  44
ENDBRANCH  38  40
ENDBRANCH  33  38
ENDBRANCH  32  36
ENDBRANCH  31  32
ENDBRANCH  30  31
ENDBRANCH  29  30
ENDBRANCH   1  29
TORSDOF 19
ENDMDL
MODEL 3
REMARK VINA RESULT:      -6.5      1.750      3.091
REMARK  Name = 
REMARK  19 active torsions:
REMARK  status: ('A' for Active; 'I' for Inactive)
REMARK    1  A    between atoms: C_3  and  O_47
REMARK    2  A    between atoms: C_4  and  O_46
REMARK    3  A    between atoms: C_6  and  C_7
REMARK    4  A    between atoms: C_8  and  C_9
REMARK    5  A    between atoms: N_11  and  C_12
REMARK    6  A    between atoms: C_12  and  C_13
REMARK    7  A    between atoms: N_15  and  C_18
REMARK    8  A    between atoms: C_18  and  C_19
REMARK    9  A    between atoms: C_19  and  C_20
REMARK   10  A    between atoms: C_20  and  C_21
REMARK   11  A    between atoms: C_21  and  C_22
REMARK   12  A    between atoms: C_22  and  C_23
REMARK   13  A    between atoms: C_23  and  O_24
REMARK   14  A    between atoms: O_24  and  C_25
REMARK   15  A    between atoms: C_26  and  C_38
REMARK   16  A    between atoms: C_30  and  O_37
REMARK   17  A    between atoms: C_32  and  O_36
REMARK   18  A    between atoms: C_40  and  O_45
REMARK   19  A    between atoms: C_41  and  O_44
REMARK                            x       y       z     vdW  Elec       q    Type
REMARK                         _______ _______ _______ _____ _____    ______ ____
ROOT
ATOM      1  C   UNL     1       0.904  -4.497  26.034  0.00  0.00    +0.041 C 
ENDROOT
BRANCH   1   2
ATOM      2  C   UNL     1       2.321  -4.488  25.465  0.00  0.00    +0.229 C 
BRANCH   2   3
ATOM      3  O   UNL     1       2.594  -3.157  25.030  0.00  0.00    -0.485 OA
BRANCH   3   4
ATOM      4  C   UNL     1       3.665  -2.492  25.595  0.00  0.00    +0.211 A 
ATOM      5  C   UNL     1       3.493  -1.720  26.867  0.00  0.00    +0.238 A 
ATOM      6  O   UNL     1       2.453  -1.779  27.513  0.00  0.00    -0.283 OA
ATOM      7  C   UNL     1       4.645  -0.945  27.349  0.00  0.00    +0.109 A 
ATOM      8  C   UNL     1       5.864  -1.132  26.707  0.00  0.00    +0.147 A 
ATOM      9  C   UNL     1       7.004  -0.458  27.158  0.00  0.00    +0.092 A 
ATOM     10  C   UNL     1       6.904   0.403  28.250  0.00  0.00    +0.124 A 
ATOM     11  C   UNL     1       5.691   0.604  28.896  0.00  0.00    +0.091 A 
ATOM     12  O   UNL     1       6.029  -1.976  25.634  0.00  0.00    -0.451 OA
ATOM     13  C   UNL     1       4.559  -0.068  28.441  0.00  0.00    +0.135 A 
ATOM     14  C   UNL     1       4.915  -2.621  25.094  0.00  0.00    +0.181 A 
BRANCH  14  15
ATOM     15  C   UNL     1       5.258  -3.479  23.908  0.00  0.00    +0.025 A 
ATOM     16  C   UNL     1       5.658  -2.887  22.691  0.00  0.00    +0.015 A 
ATOM     17  C   UNL     1       6.028  -3.667  21.580  0.00  0.00    +0.050 A 
ATOM     18  C   UNL     1       5.991  -5.052  21.675  0.00  0.00    +0.158 A 
ATOM     19  C   UNL     1       5.598  -5.659  22.856  0.00  0.00    +0.159 A 
ATOM     20  C   UNL     1       5.254  -4.889  23.968  0.00  0.00    +0.060 A 
BRANCH  19  21
ATOM     21  O   UNL     1       5.570  -7.026  22.884  0.00  0.00    -0.503 OA
ATOM     22  H   UNL     1       6.406  -7.356  22.513  0.00  0.00    +0.292 HD
ENDBRANCH  19  21
BRANCH  18  23
ATOM     23  O   UNL     1       6.362  -5.807  20.602  0.00  0.00    -0.503 OA
ATOM     24  H   UNL     1       5.748  -6.570  20.617  0.00  0.00    +0.292 HD
ENDBRANCH  18  23
ENDBRANCH  14  15
BRANCH  13  25
ATOM     25  O   UNL     1       3.369   0.159  29.074  0.00  0.00    -0.506 OA
ATOM     26  H   UNL     1       3.299  -0.385  29.874  0.00  0.00    +0.292 HD
ENDBRANCH  13  25
BRANCH  10  27
ATOM     27  O   UNL     1       7.983   1.083  28.732  0.00  0.00    -0.507 OA
ATOM     28  H   UNL     1       8.795   0.607  28.497  0.00  0.00    +0.292 HD
ENDBRANCH  10  27
ENDBRANCH   3   4
ENDBRANCH   2   3
ENDBRANCH   1   2
BRANCH   1  29
ATOM     29  C   UNL     1       0.663  -5.635  27.037  0.00  0.00    +0.003 C 
BRANCH  29  30
ATOM     30  C   UNL     1       0.911  -5.234  28.494  0.00  0.00    +0.002 C 
BRANCH  30  31
ATOM     31  C   UNL     1       2.253  -5.776  28.983  0.00  0.00    +0.023 C 
BRANCH  31  32
ATOM     32  C   UNL     1       3.349  -4.716  28.914  0.00  0.00    +0.145 C 
BRANCH  32  36
ATOM     33  C   UNL     1       6.527  -5.517  27.468  0.00  0.00    +0.100 A 
ATOM     34  N   UNL     1       5.733  -6.570  27.087  0.00  0.00    -0.133 NA
ATOM     35  N   UNL     1       4.515  -6.365  27.570  0.00  0.00    -0.065 NA
ATOM     36  N   UNL     1       4.542  -5.212  28.261  0.00  0.00    -0.251 N 
ATOM     37  C   UNL     1       5.779  -4.648  28.236  0.00  0.00    +0.135 A 
BRANCH  33  38
ATOM     38  C   UNL     1       7.942  -5.422  27.042  0.00  0.00    +0.163 C 
BRANCH  38  40
ATOM     39  C   UNL     1       8.806  -4.638  24.896  0.00  0.00    +0.237 C 
ATOM     40  N   UNL     1       8.079  -4.397  26.032  0.00  0.00    -0.306 N 
ATOM     41  H   UNL     1       7.792  -3.459  26.275  0.00  0.00    +0.149 HD
ATOM     42  O   UNL     1       9.307  -5.720  24.618  0.00  0.00    -0.271 OA
BRANCH  39  44
ATOM     43  C   UNL     1       9.434  -2.305  24.506  0.00  0.00    +0.013 C 
ATOM     44  C   UNL     1       8.933  -3.451  24.015  0.00  0.00    +0.068 C 
BRANCH  43  46
ATOM     45  C   UNL     1       9.256  -1.085  22.351  0.00  0.00    +0.012 A 
ATOM     46  C   UNL     1       9.611  -1.081  23.711  0.00  0.00    -0.021 A 
ATOM     47  C   UNL     1      10.087   0.106  24.280  0.00  0.00    +0.057 A 
ATOM     48  C   UNL     1      10.258   1.232  23.488  0.00  0.00    +0.159 A 
ATOM     49  C   UNL     1       9.938   1.211  22.134  0.00  0.00    +0.158 A 
ATOM     50  C   UNL     1       9.421   0.059  21.558  0.00  0.00    +0.050 A 
BRANCH  49  51
ATOM     51  O   UNL     1      10.154   2.352  21.414  0.00  0.00    -0.503 OA
ATOM     52  H   UNL     1      10.821   2.157  20.731  0.00  0.00    +0.292 HD
ENDBRANCH  49  51
BRANCH  48  53
ATOM     53  O   UNL     1      10.759   2.369  24.055  0.00  0.00    -0.503 OA
ATOM     54  H   UNL     1      11.452   2.667  23.434  0.00  0.00    +0.292 HD
ENDBRANCH  48  53
ENDBRANCH  43  46
ENDBRANCH  39  44
ENDBRANCH  38  40
ENDBRANCH  33  38
ENDBRANCH  32  36
ENDBRANCH  31  32
ENDBRANCH  30  31
ENDBRANCH  29  30
ENDBRANCH   1  29
TORSDOF 19
ENDMDL
MODEL 4
REMARK VINA RESULT:      -6.5      1.414      4.996
REMARK  Name = 
REMARK  19 active torsions:
REMARK  status: ('A' for Active; 'I' for Inactive)
REMARK    1  A    between atoms: C_3  and  O_47
REMARK    2  A    between atoms: C_4  and  O_46
REMARK    3  A    between atoms: C_6  and  C_7
REMARK    4  A    between atoms: C_8  and  C_9
REMARK    5  A    between atoms: N_11  and  C_12
REMARK    6  A    between atoms: C_12  and  C_13
REMARK    7  A    between atoms: N_15  and  C_18
REMARK    8  A    between atoms: C_18  and  C_19
REMARK    9  A    between atoms: C_19  and  C_20
REMARK   10  A    between atoms: C_20  and  C_21
REMARK   11  A    between atoms: C_21  and  C_22
REMARK   12  A    between atoms: C_22  and  C_23
REMARK   13  A    between atoms: C_23  and  O_24
REMARK   14  A    between atoms: O_24  and  C_25
REMARK   15  A    between atoms: C_26  and  C_38
REMARK   16  A    between atoms: C_30  and  O_37
REMARK   17  A    between atoms: C_32  and  O_36
REMARK   18  A    between atoms: C_40  and  O_45
REMARK   19  A    between atoms: C_41  and  O_44
REMARK                            x       y       z     vdW  Elec       q    Type
REMARK                         _______ _______ _______ _____ _____    ______ ____
ROOT
ATOM      1  C   UNL     1       1.906  -1.659  28.349  0.00  0.00    +0.041 C 
ENDROOT
BRANCH   1   2
ATOM      2  C   UNL     1       2.604  -1.436  27.009  0.00  0.00    +0.229 C 
BRANCH   2   3
ATOM      3  O   UNL     1       3.882  -2.064  27.086  0.00  0.00    -0.485 OA
BRANCH   3   4
ATOM      4  C   UNL     1       4.429  -2.578  25.926  0.00  0.00    +0.211 A 
ATOM      5  C   UNL     1       3.827  -3.785  25.275  0.00  0.00    +0.238 A 
ATOM      6  O   UNL     1       2.762  -4.253  25.659  0.00  0.00    -0.283 OA
ATOM      7  C   UNL     1       4.527  -4.344  24.110  0.00  0.00    +0.109 A 
ATOM      8  C   UNL     1       5.581  -3.611  23.576  0.00  0.00    +0.147 A 
ATOM      9  C   UNL     1       6.249  -4.073  22.436  0.00  0.00    +0.092 A 
ATOM     10  C   UNL     1       5.851  -5.272  21.847  0.00  0.00    +0.124 A 
ATOM     11  C   UNL     1       4.804  -6.017  22.375  0.00  0.00    +0.091 A 
ATOM     12  O   UNL     1       6.012  -2.416  24.103  0.00  0.00    -0.451 OA
ATOM     13  C   UNL     1       4.144  -5.554  23.511  0.00  0.00    +0.135 A 
ATOM     14  C   UNL     1       5.432  -1.941  25.280  0.00  0.00    +0.181 A 
BRANCH  14  15
ATOM     15  C   UNL     1       6.036  -0.644  25.743  0.00  0.00    +0.025 A 
ATOM     16  C   UNL     1       5.896   0.526  24.965  0.00  0.00    +0.015 A 
ATOM     17  C   UNL     1       6.411   1.762  25.397  0.00  0.00    +0.050 A 
ATOM     18  C   UNL     1       7.081   1.837  26.611  0.00  0.00    +0.158 A 
ATOM     19  C   UNL     1       7.235   0.704  27.393  0.00  0.00    +0.159 A 
ATOM     20  C   UNL     1       6.705  -0.520  26.980  0.00  0.00    +0.060 A 
BRANCH  19  21
ATOM     21  O   UNL     1       7.915   0.838  28.572  0.00  0.00    -0.503 OA
ATOM     22  H   UNL     1       7.845  -0.000  29.060  0.00  0.00    +0.292 HD
ENDBRANCH  19  21
BRANCH  18  23
ATOM     23  O   UNL     1       7.568   3.038  27.035  0.00  0.00    -0.503 OA
ATOM     24  H   UNL     1       7.866   2.869  27.952  0.00  0.00    +0.292 HD
ENDBRANCH  18  23
ENDBRANCH  14  15
BRANCH  13  25
ATOM     25  O   UNL     1       3.132  -6.311  24.030  0.00  0.00    -0.506 OA
ATOM     26  H   UNL     1       3.142  -7.203  23.647  0.00  0.00    +0.292 HD
ENDBRANCH  13  25
BRANCH  10  27
ATOM     27  O   UNL     1       6.464  -5.767  20.735  0.00  0.00    -0.507 OA
ATOM     28  H   UNL     1       6.513  -5.073  20.058  0.00  0.00    +0.292 HD
ENDBRANCH  10  27
ENDBRANCH   3   4
ENDBRANCH   2   3
ENDBRANCH   1   2
BRANCH   1  29
ATOM     29  C   UNL     1       1.113  -2.973  28.405  0.00  0.00    +0.003 C 
BRANCH  29  30
ATOM     30  C   UNL     1       1.594  -3.936  29.495  0.00  0.00    +0.002 C 
BRANCH  30  31
ATOM     31  C   UNL     1       2.443  -5.053  28.893  0.00  0.00    +0.023 C 
BRANCH  31  32
ATOM     32  C   UNL     1       3.879  -5.011  29.407  0.00  0.00    +0.145 C 
BRANCH  32  36
ATOM     33  C   UNL     1       6.517  -5.673  27.076  0.00  0.00    +0.100 A 
ATOM     34  N   UNL     1       5.583  -6.632  26.775  0.00  0.00    -0.133 NA
ATOM     35  N   UNL     1       4.546  -6.468  27.587  0.00  0.00    -0.065 NA
ATOM     36  N   UNL     1       4.828  -5.436  28.399  0.00  0.00    -0.251 N 
ATOM     37  C   UNL     1       6.052  -4.909  28.127  0.00  0.00    +0.135 A 
BRANCH  33  38
ATOM     38  C   UNL     1       7.778  -5.555  26.308  0.00  0.00    +0.163 C 
BRANCH  38  40
ATOM     39  C   UNL     1       9.068  -3.819  25.173  0.00  0.00    +0.237 C 
ATOM     40  N   UNL     1       8.034  -4.166  26.003  0.00  0.00    -0.306 N 
ATOM     41  H   UNL     1       7.561  -3.469  26.561  0.00  0.00    +0.149 HD
ATOM     42  O   UNL     1       9.775  -4.625  24.583  0.00  0.00    -0.271 OA
BRANCH  39  44
ATOM     43  C   UNL     1       9.238  -1.777  23.835  0.00  0.00    +0.013 C 
ATOM     44  C   UNL     1       9.256  -2.352  25.049  0.00  0.00    +0.068 C 
BRANCH  43  46
ATOM     45  C   UNL     1      10.029   0.451  24.593  0.00  0.00    +0.012 A 
ATOM     46  C   UNL     1       9.401  -0.334  23.610  0.00  0.00    -0.021 A 
ATOM     47  C   UNL     1       8.984   0.280  22.422  0.00  0.00    +0.057 A 
ATOM     48  C   UNL     1       9.140   1.649  22.261  0.00  0.00    +0.159 A 
ATOM     49  C   UNL     1       9.729   2.426  23.253  0.00  0.00    +0.158 A 
ATOM     50  C   UNL     1      10.192   1.832  24.420  0.00  0.00    +0.050 A 
BRANCH  49  51
ATOM     51  O   UNL     1       9.828   3.770  23.031  0.00  0.00    -0.503 OA
ATOM     52  H   UNL     1      10.457   4.138  23.677  0.00  0.00    +0.292 HD
ENDBRANCH  49  51
BRANCH  48  53
ATOM     53  O   UNL     1       8.693   2.233  21.110  0.00  0.00    -0.503 OA
ATOM     54  H   UNL     1       7.737   2.032  21.089  0.00  0.00    +0.292 HD
ENDBRANCH  48  53
ENDBRANCH  43  46
ENDBRANCH  39  44
ENDBRANCH  38  40
ENDBRANCH  33  38
ENDBRANCH  32  36
ENDBRANCH  31  32
ENDBRANCH  30  31
ENDBRANCH  29  30
ENDBRANCH   1  29
TORSDOF 19
ENDMDL
MODEL 5
REMARK VINA RESULT:      -6.4      3.498      7.703
REMARK  Name = 
REMARK  19 active torsions:
REMARK  status: ('A' for Active; 'I' for Inactive)
REMARK    1  A    between atoms: C_3  and  O_47
REMARK    2  A    between atoms: C_4  and  O_46
REMARK    3  A    between atoms: C_6  and  C_7
REMARK    4  A    between atoms: C_8  and  C_9
REMARK    5  A    between atoms: N_11  and  C_12
REMARK    6  A    between atoms: C_12  and  C_13
REMARK    7  A    between atoms: N_15  and  C_18
REMARK    8  A    between atoms: C_18  and  C_19
REMARK    9  A    between atoms: C_19  and  C_20
REMARK   10  A    between atoms: C_20  and  C_21
REMARK   11  A    between atoms: C_21  and  C_22
REMARK   12  A    between atoms: C_22  and  C_23
REMARK   13  A    between atoms: C_23  and  O_24
REMARK   14  A    between atoms: O_24  and  C_25
REMARK   15  A    between atoms: C_26  and  C_38
REMARK   16  A    between atoms: C_30  and  O_37
REMARK   17  A    between atoms: C_32  and  O_36
REMARK   18  A    between atoms: C_40  and  O_45
REMARK   19  A    between atoms: C_41  and  O_44
REMARK                            x       y       z     vdW  Elec       q    Type
REMARK                         _______ _______ _______ _____ _____    ______ ____
ROOT
ATOM      1  C   UNL     1       7.166   1.993  26.676  0.00  0.00    +0.041 C 
ENDROOT
BRANCH   1   2
ATOM      2  C   UNL     1       6.475   0.654  26.929  0.00  0.00    +0.229 C 
BRANCH   2   3
ATOM      3  O   UNL     1       5.499   0.480  25.902  0.00  0.00    -0.485 OA
BRANCH   3   4
ATOM      4  C   UNL     1       5.722  -0.491  24.946  0.00  0.00    +0.211 A 
ATOM      5  C   UNL     1       5.418  -1.928  25.240  0.00  0.00    +0.238 A 
ATOM      6  O   UNL     1       4.830  -2.260  26.263  0.00  0.00    -0.283 OA
ATOM      7  C   UNL     1       5.786  -2.919  24.219  0.00  0.00    +0.109 A 
ATOM      8  C   UNL     1       6.210  -2.446  22.981  0.00  0.00    +0.147 A 
ATOM      9  C   UNL     1       6.524  -3.347  21.958  0.00  0.00    +0.092 A 
ATOM     10  C   UNL     1       6.413  -4.717  22.192  0.00  0.00    +0.124 A 
ATOM     11  C   UNL     1       5.998  -5.202  23.425  0.00  0.00    +0.091 A 
ATOM     12  O   UNL     1       6.327  -1.108  22.686  0.00  0.00    -0.451 OA
ATOM     13  C   UNL     1       5.688  -4.302  24.442  0.00  0.00    +0.135 A 
ATOM     14  C   UNL     1       6.097  -0.165  23.688  0.00  0.00    +0.181 A 
BRANCH  14  15
ATOM     15  C   UNL     1       6.299   1.247  23.214  0.00  0.00    +0.025 A 
ATOM     16  C   UNL     1       7.406   1.577  22.403  0.00  0.00    +0.015 A 
ATOM     17  C   UNL     1       7.594   2.880  21.909  0.00  0.00    +0.050 A 
ATOM     18  C   UNL     1       6.677   3.872  22.230  0.00  0.00    +0.158 A 
ATOM     19  C   UNL     1       5.583   3.578  23.027  0.00  0.00    +0.159 A 
ATOM     20  C   UNL     1       5.380   2.280  23.500  0.00  0.00    +0.060 A 
BRANCH  19  21
ATOM     21  O   UNL     1       4.722   4.599  23.320  0.00  0.00    -0.503 OA
ATOM     22  H   UNL     1       4.685   5.195  22.552  0.00  0.00    +0.292 HD
ENDBRANCH  19  21
BRANCH  18  23
ATOM     23  O   UNL     1       6.853   5.132  21.740  0.00  0.00    -0.503 OA
ATOM     24  H   UNL     1       7.453   5.562  22.383  0.00  0.00    +0.292 HD
ENDBRANCH  18  23
ENDBRANCH  14  15
BRANCH  13  25
ATOM     25  O   UNL     1       5.304  -4.797  25.656  0.00  0.00    -0.506 OA
ATOM     26  H   UNL     1       4.416  -5.184  25.601  0.00  0.00    +0.292 HD
ENDBRANCH  13  25
BRANCH  10  27
ATOM     27  O   UNL     1       6.704  -5.638  21.230  0.00  0.00    -0.507 OA
ATOM     28  H   UNL     1       7.187  -6.379  21.630  0.00  0.00    +0.292 HD
ENDBRANCH  10  27
ENDBRANCH   3   4
ENDBRANCH   2   3
ENDBRANCH   1   2
BRANCH   1  29
ATOM     29  C   UNL     1       6.235   3.199  26.867  0.00  0.00    +0.003 C 
BRANCH  29  30
ATOM     30  C   UNL     1       6.978   4.517  27.108  0.00  0.00    +0.002 C 
BRANCH  30  31
ATOM     31  C   UNL     1       6.713   5.502  25.972  0.00  0.00    +0.023 C 
BRANCH  31  32
ATOM     32  C   UNL     1       7.877   6.471  25.781  0.00  0.00    +0.145 C 
BRANCH  32  36
ATOM     33  C   UNL     1      10.281   4.581  23.915  0.00  0.00    +0.100 A 
ATOM     34  N   UNL     1      10.769   5.863  23.851  0.00  0.00    -0.133 NA
ATOM     35  N   UNL     1       9.946   6.653  24.527  0.00  0.00    -0.065 NA
ATOM     36  N   UNL     1       8.945   5.888  24.996  0.00  0.00    -0.251 N 
ATOM     37  C   UNL     1       9.103   4.587  24.633  0.00  0.00    +0.135 A 
BRANCH  33  38
ATOM     38  C   UNL     1      11.005   3.447  23.297  0.00  0.00    +0.163 C 
BRANCH  38  40
ATOM     39  C   UNL     1      10.490   1.064  23.437  0.00  0.00    +0.237 C 
ATOM     40  N   UNL     1      10.777   2.245  24.067  0.00  0.00    -0.306 N 
ATOM     41  H   UNL     1      10.649   2.346  25.065  0.00  0.00    +0.149 HD
ATOM     42  O   UNL     1      10.484   0.917  22.222  0.00  0.00    -0.271 OA
BRANCH  39  44
ATOM     43  C   UNL     1       9.686  -1.200  23.904  0.00  0.00    +0.013 C 
ATOM     44  C   UNL     1      10.182  -0.044  24.375  0.00  0.00    +0.068 C 
BRANCH  43  46
ATOM     45  C   UNL     1       8.753  -2.151  25.999  0.00  0.00    +0.012 A 
ATOM     46  C   UNL     1       9.364  -2.359  24.750  0.00  0.00    -0.021 A 
ATOM     47  C   UNL     1       9.611  -3.671  24.330  0.00  0.00    +0.057 A 
ATOM     48  C   UNL     1       9.309  -4.734  25.170  0.00  0.00    +0.159 A 
ATOM     49  C   UNL     1       8.738  -4.519  26.420  0.00  0.00    +0.158 A 
ATOM     50  C   UNL     1       8.440  -3.230  26.839  0.00  0.00    +0.050 A 
BRANCH  49  51
ATOM     51  O   UNL     1       8.488  -5.614  27.199  0.00  0.00    -0.503 OA
ATOM     52  H   UNL     1       9.337  -5.928  27.559  0.00  0.00    +0.292 HD
ENDBRANCH  49  51
BRANCH  48  53
ATOM     53  O   UNL     1       9.592  -6.004  24.755  0.00  0.00    -0.503 OA
ATOM     54  H   UNL     1       9.049  -6.125  23.952  0.00  0.00    +0.292 HD
ENDBRANCH  48  53
ENDBRANCH  43  46
ENDBRANCH  39  44
ENDBRANCH  38  40
ENDBRANCH  33  38
ENDBRANCH  32  36
ENDBRANCH  31  32
ENDBRANCH  30  31
ENDBRANCH  29  30
ENDBRANCH   1  29
TORSDOF 19
ENDMDL
MODEL 6
REMARK VINA RESULT:      -6.2      4.426      7.864
REMARK  Name = 
REMARK  19 active torsions:
REMARK  status: ('A' for Active; 'I' for Inactive)
REMARK    1  A    between atoms: C_3  and  O_47
REMARK    2  A    between atoms: C_4  and  O_46
REMARK    3  A    between atoms: C_6  and  C_7
REMARK    4  A    between atoms: C_8  and  C_9
REMARK    5  A    between atoms: N_11  and  C_12
REMARK    6  A    between atoms: C_12  and  C_13
REMARK    7  A    between atoms: N_15  and  C_18
REMARK    8  A    between atoms: C_18  and  C_19
REMARK    9  A    between atoms: C_19  and  C_20
REMARK   10  A    between atoms: C_20  and  C_21
REMARK   11  A    between atoms: C_21  and  C_22
REMARK   12  A    between atoms: C_22  and  C_23
REMARK   13  A    between atoms: C_23  and  O_24
REMARK   14  A    between atoms: O_24  and  C_25
REMARK   15  A    between atoms: C_26  and  C_38
REMARK   16  A    between atoms: C_30  and  O_37
REMARK   17  A    between atoms: C_32  and  O_36
REMARK   18  A    between atoms: C_40  and  O_45
REMARK   19  A    between atoms: C_41  and  O_44
REMARK                            x       y       z     vdW  Elec       q    Type
REMARK                         _______ _______ _______ _____ _____    ______ ____
ROOT
ATOM      1  C   UNL     1       6.232   1.728  27.947  0.00  0.00    +0.041 C 
ENDROOT
BRANCH   1   2
ATOM      2  C   UNL     1       7.176   0.543  27.757  0.00  0.00    +0.229 C 
BRANCH   2   3
ATOM      3  O   UNL     1       7.751   0.663  26.457  0.00  0.00    -0.485 OA
BRANCH   3   4
ATOM      4  C   UNL     1       7.306  -0.188  25.464  0.00  0.00    +0.211 A 
ATOM      5  C   UNL     1       7.512  -1.666  25.584  0.00  0.00    +0.238 A 
ATOM      6  O   UNL     1       7.939  -2.170  26.616  0.00  0.00    -0.283 OA
ATOM      7  C   UNL     1       7.116  -2.499  24.439  0.00  0.00    +0.109 A 
ATOM      8  C   UNL     1       6.403  -1.890  23.412  0.00  0.00    +0.147 A 
ATOM      9  C   UNL     1       5.957  -2.648  22.324  0.00  0.00    +0.092 A 
ATOM     10  C   UNL     1       6.237  -4.013  22.279  0.00  0.00    +0.124 A 
ATOM     11  C   UNL     1       6.953  -4.632  23.295  0.00  0.00    +0.091 A 
ATOM     12  O   UNL     1       6.086  -0.552  23.406  0.00  0.00    -0.451 OA
ATOM     13  C   UNL     1       7.397  -3.873  24.375  0.00  0.00    +0.135 A 
ATOM     14  C   UNL     1       6.564   0.269  24.428  0.00  0.00    +0.181 A 
BRANCH  14  15
ATOM     15  C   UNL     1       6.159   1.706  24.258  0.00  0.00    +0.025 A 
ATOM     16  C   UNL     1       4.898   2.150  24.711  0.00  0.00    +0.015 A 
ATOM     17  C   UNL     1       4.513   3.499  24.606  0.00  0.00    +0.050 A 
ATOM     18  C   UNL     1       5.385   4.417  24.036  0.00  0.00    +0.158 A 
ATOM     19  C   UNL     1       6.627   4.008  23.581  0.00  0.00    +0.159 A 
ATOM     20  C   UNL     1       7.023   2.675  23.705  0.00  0.00    +0.060 A 
BRANCH  19  21
ATOM     21  O   UNL     1       7.437   4.956  23.018  0.00  0.00    -0.503 OA
ATOM     22  H   UNL     1       8.347   4.797  23.322  0.00  0.00    +0.292 HD
ENDBRANCH  19  21
BRANCH  18  23
ATOM     23  O   UNL     1       5.015   5.726  23.946  0.00  0.00    -0.503 OA
ATOM     24  H   UNL     1       4.715   5.832  23.020  0.00  0.00    +0.292 HD
ENDBRANCH  18  23
ENDBRANCH  14  15
BRANCH  13  25
ATOM     25  O   UNL     1       8.120  -4.494  25.354  0.00  0.00    -0.506 OA
ATOM     26  H   UNL     1       8.009  -4.036  26.202  0.00  0.00    +0.292 HD
ENDBRANCH  13  25
BRANCH  10  27
ATOM     27  O   UNL     1       5.824  -4.799  21.244  0.00  0.00    -0.507 OA
ATOM     28  H   UNL     1       6.268  -5.661  21.298  0.00  0.00    +0.292 HD
ENDBRANCH  10  27
ENDBRANCH   3   4
ENDBRANCH   2   3
ENDBRANCH   1   2
BRANCH   1  29
ATOM     29  C   UNL     1       6.906   3.084  27.694  0.00  0.00    +0.003 C 
BRANCH  29  30
ATOM     30  C   UNL     1       6.073   4.283  28.158  0.00  0.00    +0.002 C 
BRANCH  30  31
ATOM     31  C   UNL     1       6.829   5.094  29.208  0.00  0.00    +0.023 C 
BRANCH  31  32
ATOM     32  C   UNL     1       6.997   6.550  28.784  0.00  0.00    +0.145 C 
BRANCH  32  36
ATOM     33  C   UNL     1       9.496   6.931  26.245  0.00  0.00    +0.100 A 
ATOM     34  N   UNL     1      10.209   7.060  27.411  0.00  0.00    -0.133 NA
ATOM     35  N   UNL     1       9.368   6.923  28.427  0.00  0.00    -0.065 NA
ATOM     36  N   UNL     1       8.140   6.732  27.914  0.00  0.00    -0.251 N 
ATOM     37  C   UNL     1       8.165   6.737  26.554  0.00  0.00    +0.135 A 
BRANCH  33  38
ATOM     38  C   UNL     1      10.161   6.984  24.923  0.00  0.00    +0.163 C 
BRANCH  38  40
ATOM     39  C   UNL     1      11.148   5.029  23.842  0.00  0.00    +0.237 C 
ATOM     40  N   UNL     1      10.033   5.705  24.262  0.00  0.00    -0.306 N 
ATOM     41  H   UNL     1       9.111   5.427  23.955  0.00  0.00    +0.149 HD
ATOM     42  O   UNL     1      12.295   5.397  24.056  0.00  0.00    -0.271 OA
BRANCH  39  44
ATOM     43  C   UNL     1      10.595   2.647  23.760  0.00  0.00    +0.013 C 
ATOM     44  C   UNL     1      10.835   3.787  23.092  0.00  0.00    +0.068 C 
BRANCH  43  46
ATOM     45  C   UNL     1       9.646   1.380  21.846  0.00  0.00    +0.012 A 
ATOM     46  C   UNL     1      10.264   1.370  23.110  0.00  0.00    -0.021 A 
ATOM     47  C   UNL     1      10.582   0.139  23.695  0.00  0.00    +0.057 A 
ATOM     48  C   UNL     1      10.232  -1.041  23.055  0.00  0.00    +0.159 A 
ATOM     49  C   UNL     1       9.590  -1.024  21.821  0.00  0.00    +0.158 A 
ATOM     50  C   UNL     1       9.305   0.184  21.200  0.00  0.00    +0.050 A 
BRANCH  49  51
ATOM     51  O   UNL     1       9.258  -2.226  21.263  0.00  0.00    -0.503 OA
ATOM     52  H   UNL     1       8.333  -2.422  21.494  0.00  0.00    +0.292 HD
ENDBRANCH  49  51
BRANCH  48  53
ATOM     53  O   UNL     1      10.520  -2.231  23.660  0.00  0.00    -0.503 OA
ATOM     54  H   UNL     1      10.112  -2.159  24.546  0.00  0.00    +0.292 HD
ENDBRANCH  48  53
ENDBRANCH  43  46
ENDBRANCH  39  44
ENDBRANCH  38  40
ENDBRANCH  33  38
ENDBRANCH  32  36
ENDBRANCH  31  32
ENDBRANCH  30  31
ENDBRANCH  29  30
ENDBRANCH   1  29
TORSDOF 19
ENDMDL
MODEL 7
REMARK VINA RESULT:      -6.1      3.453      8.072
REMARK  Name = 
REMARK  19 active torsions:
REMARK  status: ('A' for Active; 'I' for Inactive)
REMARK    1  A    between atoms: C_3  and  O_47
REMARK    2  A    between atoms: C_4  and  O_46
REMARK    3  A    between atoms: C_6  and  C_7
REMARK    4  A    between atoms: C_8  and  C_9
REMARK    5  A    between atoms: N_11  and  C_12
REMARK    6  A    between atoms: C_12  and  C_13
REMARK    7  A    between atoms: N_15  and  C_18
REMARK    8  A    between atoms: C_18  and  C_19
REMARK    9  A    between atoms: C_19  and  C_20
REMARK   10  A    between atoms: C_20  and  C_21
REMARK   11  A    between atoms: C_21  and  C_22
REMARK   12  A    between atoms: C_22  and  C_23
REMARK   13  A    between atoms: C_23  and  O_24
REMARK   14  A    between atoms: O_24  and  C_25
REMARK   15  A    between atoms: C_26  and  C_38
REMARK   16  A    between atoms: C_30  and  O_37
REMARK   17  A    between atoms: C_32  and  O_36
REMARK   18  A    between atoms: C_40  and  O_45
REMARK   19  A    between atoms: C_41  and  O_44
REMARK                            x       y       z     vdW  Elec       q    Type
REMARK                         _______ _______ _______ _____ _____    ______ ____
ROOT
ATOM      1  C   UNL     1       5.800   1.766  24.459  0.00  0.00    +0.041 C 
ENDROOT
BRANCH   1   2
ATOM      2  C   UNL     1       6.095   0.271  24.560  0.00  0.00    +0.229 C 
BRANCH   2   3
ATOM      3  O   UNL     1       4.901  -0.367  25.010  0.00  0.00    -0.485 OA
BRANCH   3   4
ATOM      4  C   UNL     1       5.018  -1.545  25.722  0.00  0.00    +0.211 A 
ATOM      5  C   UNL     1       5.086  -2.859  25.008  0.00  0.00    +0.238 A 
ATOM      6  O   UNL     1       5.190  -2.918  23.788  0.00  0.00    -0.283 OA
ATOM      7  C   UNL     1       5.096  -4.077  25.831  0.00  0.00    +0.109 A 
ATOM      8  C   UNL     1       5.237  -3.926  27.206  0.00  0.00    +0.147 A 
ATOM      9  C   UNL     1       5.303  -5.055  28.031  0.00  0.00    +0.092 A 
ATOM     10  C   UNL     1       5.223  -6.325  27.462  0.00  0.00    +0.124 A 
ATOM     11  C   UNL     1       5.075  -6.489  26.091  0.00  0.00    +0.091 A 
ATOM     12  O   UNL     1       5.335  -2.702  27.824  0.00  0.00    -0.451 OA
ATOM     13  C   UNL     1       5.007  -5.363  25.275  0.00  0.00    +0.135 A 
ATOM     14  C   UNL     1       5.204  -1.540  27.063  0.00  0.00    +0.181 A 
BRANCH  14  15
ATOM     15  C   UNL     1       5.300  -0.288  27.889  0.00  0.00    +0.025 A 
ATOM     16  C   UNL     1       4.147   0.263  28.487  0.00  0.00    +0.015 A 
ATOM     17  C   UNL     1       4.217   1.407  29.303  0.00  0.00    +0.050 A 
ATOM     18  C   UNL     1       5.444   2.017  29.522  0.00  0.00    +0.158 A 
ATOM     19  C   UNL     1       6.592   1.499  28.945  0.00  0.00    +0.159 A 
ATOM     20  C   UNL     1       6.531   0.350  28.154  0.00  0.00    +0.060 A 
BRANCH  19  21
ATOM     21  O   UNL     1       7.770   2.151  29.187  0.00  0.00    -0.503 OA
ATOM     22  H   UNL     1       8.307   1.599  29.781  0.00  0.00    +0.292 HD
ENDBRANCH  19  21
BRANCH  18  23
ATOM     23  O   UNL     1       5.513   3.118  30.323  0.00  0.00    -0.503 OA
ATOM     24  H   UNL     1       5.116   2.828  31.170  0.00  0.00    +0.292 HD
ENDBRANCH  18  23
ENDBRANCH  14  15
BRANCH  13  25
ATOM     25  O   UNL     1       4.837  -5.542  23.931  0.00  0.00    -0.506 OA
ATOM     26  H   UNL     1       4.470  -6.421  23.748  0.00  0.00    +0.292 HD
ENDBRANCH  13  25
BRANCH  10  27
ATOM     27  O   UNL     1       5.284  -7.458  28.219  0.00  0.00    -0.507 OA
ATOM     28  H   UNL     1       5.904  -8.084  27.811  0.00  0.00    +0.292 HD
ENDBRANCH  10  27
ENDBRANCH   3   4
ENDBRANCH   2   3
ENDBRANCH   1   2
BRANCH   1  29
ATOM     29  C   UNL     1       4.629   2.212  25.346  0.00  0.00    +0.003 C 
BRANCH  29  30
ATOM     30  C   UNL     1       4.819   3.601  25.964  0.00  0.00    +0.002 C 
BRANCH  30  31
ATOM     31  C   UNL     1       6.296   3.873  26.240  0.00  0.00    +0.023 C 
BRANCH  31  32
ATOM     32  C   UNL     1       6.764   5.169  25.583  0.00  0.00    +0.145 C 
BRANCH  32  36
ATOM     33  C   UNL     1       9.769   4.223  23.877  0.00  0.00    +0.100 A 
ATOM     34  N   UNL     1       9.706   5.580  23.676  0.00  0.00    -0.133 NA
ATOM     35  N   UNL     1       8.619   6.037  24.283  0.00  0.00    -0.065 NA
ATOM     36  N   UNL     1       7.995   4.986  24.842  0.00  0.00    -0.251 N 
ATOM     37  C   UNL     1       8.669   3.828  24.609  0.00  0.00    +0.135 A 
BRANCH  33  38
ATOM     38  C   UNL     1      10.901   3.418  23.363  0.00  0.00    +0.163 C 
BRANCH  38  40
ATOM     39  C   UNL     1      10.311   1.055  23.180  0.00  0.00    +0.237 C 
ATOM     40  N   UNL     1      10.839   2.083  23.915  0.00  0.00    -0.306 N 
ATOM     41  H   UNL     1      11.014   1.978  24.905  0.00  0.00    +0.149 HD
ATOM     42  O   UNL     1       9.942   1.160  22.018  0.00  0.00    -0.271 OA
BRANCH  39  44
ATOM     43  C   UNL     1       9.112  -0.968  23.859  0.00  0.00    +0.013 C 
ATOM     44  C   UNL     1      10.227  -0.223  23.931  0.00  0.00    +0.068 C 
BRANCH  43  46
ATOM     45  C   UNL     1       8.790  -2.266  25.952  0.00  0.00    +0.012 A 
ATOM     46  C   UNL     1       8.939  -2.252  24.553  0.00  0.00    -0.021 A 
ATOM     47  C   UNL     1       8.877  -3.465  23.857  0.00  0.00    +0.057 A 
ATOM     48  C   UNL     1       8.732  -4.656  24.555  0.00  0.00    +0.159 A 
ATOM     49  C   UNL     1       8.622  -4.665  25.941  0.00  0.00    +0.158 A 
ATOM     50  C   UNL     1       8.634  -3.471  26.650  0.00  0.00    +0.050 A 
BRANCH  49  51
ATOM     51  O   UNL     1       8.504  -5.877  26.560  0.00  0.00    -0.503 OA
ATOM     52  H   UNL     1       7.629  -6.245  26.342  0.00  0.00    +0.292 HD
ENDBRANCH  49  51
BRANCH  48  53
ATOM     53  O   UNL     1       8.711  -5.830  23.859  0.00  0.00    -0.503 OA
ATOM     54  H   UNL     1       7.761  -6.028  23.743  0.00  0.00    +0.292 HD
ENDBRANCH  48  53
ENDBRANCH  43  46
ENDBRANCH  39  44
ENDBRANCH  38  40
ENDBRANCH  33  38
ENDBRANCH  32  36
ENDBRANCH  31  32
ENDBRANCH  30  31
ENDBRANCH  29  30
ENDBRANCH   1  29
TORSDOF 19
ENDMDL
MODEL 8
REMARK VINA RESULT:      -6.1      3.520      7.213
REMARK  Name = 
REMARK  19 active torsions:
REMARK  status: ('A' for Active; 'I' for Inactive)
REMARK    1  A    between atoms: C_3  and  O_47
REMARK    2  A    between atoms: C_4  and  O_46
REMARK    3  A    between atoms: C_6  and  C_7
REMARK    4  A    between atoms: C_8  and  C_9
REMARK    5  A    between atoms: N_11  and  C_12
REMARK    6  A    between atoms: C_12  and  C_13
REMARK    7  A    between atoms: N_15  and  C_18
REMARK    8  A    between atoms: C_18  and  C_19
REMARK    9  A    between atoms: C_19  and  C_20
REMARK   10  A    between atoms: C_20  and  C_21
REMARK   11  A    between atoms: C_21  and  C_22
REMARK   12  A    between atoms: C_22  and  C_23
REMARK   13  A    between atoms: C_23  and  O_24
REMARK   14  A    between atoms: O_24  and  C_25
REMARK   15  A    between atoms: C_26  and  C_38
REMARK   16  A    between atoms: C_30  and  O_37
REMARK   17  A    between atoms: C_32  and  O_36
REMARK   18  A    between atoms: C_40  and  O_45
REMARK   19  A    between atoms: C_41  and  O_44
REMARK                            x       y       z     vdW  Elec       q    Type
REMARK                         _______ _______ _______ _____ _____    ______ ____
ROOT
ATOM      1  C   UNL     1      10.824   5.038  23.399  0.00  0.00    +0.041 C 
ENDROOT
BRANCH   1   2
ATOM      2  C   UNL     1      10.259   3.653  23.704  0.00  0.00    +0.229 C 
BRANCH   2   3
ATOM      3  O   UNL     1       9.407   3.293  22.618  0.00  0.00    -0.485 OA
BRANCH   3   4
ATOM      4  C   UNL     1       8.048   3.212  22.853  0.00  0.00    +0.211 A 
ATOM      5  C   UNL     1       7.160   4.386  22.578  0.00  0.00    +0.238 A 
ATOM      6  O   UNL     1       7.580   5.384  22.005  0.00  0.00    -0.283 OA
ATOM      7  C   UNL     1       5.745   4.267  22.958  0.00  0.00    +0.109 A 
ATOM      8  C   UNL     1       5.287   3.018  23.363  0.00  0.00    +0.147 A 
ATOM      9  C   UNL     1       3.938   2.838  23.687  0.00  0.00    +0.092 A 
ATOM     10  C   UNL     1       3.063   3.920  23.604  0.00  0.00    +0.124 A 
ATOM     11  C   UNL     1       3.508   5.174  23.207  0.00  0.00    +0.091 A 
ATOM     12  O   UNL     1       6.098   1.911  23.453  0.00  0.00    -0.451 OA
ATOM     13  C   UNL     1       4.853   5.349  22.888  0.00  0.00    +0.135 A 
ATOM     14  C   UNL     1       7.466   2.045  23.212  0.00  0.00    +0.181 A 
BRANCH  14  15
ATOM     15  C   UNL     1       8.216   0.753  23.383  0.00  0.00    +0.025 A 
ATOM     16  C   UNL     1       8.674   0.358  24.659  0.00  0.00    +0.015 A 
ATOM     17  C   UNL     1       9.338  -0.867  24.854  0.00  0.00    +0.050 A 
ATOM     18  C   UNL     1       9.559  -1.706  23.771  0.00  0.00    +0.158 A 
ATOM     19  C   UNL     1       9.122  -1.341  22.508  0.00  0.00    +0.159 A 
ATOM     20  C   UNL     1       8.442  -0.138  22.313  0.00  0.00    +0.060 A 
BRANCH  19  21
ATOM     21  O   UNL     1       9.380  -2.204  21.477  0.00  0.00    -0.503 OA
ATOM     22  H   UNL     1      10.028  -1.785  20.885  0.00  0.00    +0.292 HD
ENDBRANCH  19  21
BRANCH  18  23
ATOM     23  O   UNL     1      10.190  -2.898  23.964  0.00  0.00    -0.503 OA
ATOM     24  H   UNL     1      10.966  -2.675  24.519  0.00  0.00    +0.292 HD
ENDBRANCH  18  23
ENDBRANCH  14  15
BRANCH  13  25
ATOM     25  O   UNL     1       5.279   6.594  22.523  0.00  0.00    -0.506 OA
ATOM     26  H   UNL     1       6.219   6.708  22.732  0.00  0.00    +0.292 HD
ENDBRANCH  13  25
BRANCH  10  27
ATOM     27  O   UNL     1       1.738   3.800  23.905  0.00  0.00    -0.507 OA
ATOM     28  H   UNL     1       1.639   3.629  24.856  0.00  0.00    +0.292 HD
ENDBRANCH  10  27
ENDBRANCH   3   4
ENDBRANCH   2   3
ENDBRANCH   1   2
BRANCH   1  29
ATOM     29  C   UNL     1      10.536   6.065  24.504  0.00  0.00    +0.003 C 
BRANCH  29  30
ATOM     30  C   UNL     1       9.368   7.004  24.184  0.00  0.00    +0.002 C 
BRANCH  30  31
ATOM     31  C   UNL     1       8.198   6.754  25.133  0.00  0.00    +0.023 C 
BRANCH  31  32
ATOM     32  C   UNL     1       8.503   5.633  26.122  0.00  0.00    +0.145 C 
BRANCH  32  36
ATOM     33  C   UNL     1       5.916   3.301  26.960  0.00  0.00    +0.100 A 
ATOM     34  N   UNL     1       5.224   4.454  26.685  0.00  0.00    -0.133 NA
ATOM     35  N   UNL     1       6.100   5.392  26.350  0.00  0.00    -0.065 NA
ATOM     36  N   UNL     1       7.326   4.848  26.431  0.00  0.00    -0.251 N 
ATOM     37  C   UNL     1       7.267   3.545  26.817  0.00  0.00    +0.135 A 
BRANCH  33  38
ATOM     38  C   UNL     1       5.216   2.046  27.319  0.00  0.00    +0.163 C 
BRANCH  38  40
ATOM     39  C   UNL     1       5.150  -0.246  26.478  0.00  0.00    +0.237 C 
ATOM     40  N   UNL     1       5.351   1.089  26.244  0.00  0.00    -0.306 N 
ATOM     41  H   UNL     1       5.777   1.407  25.384  0.00  0.00    +0.149 HD
ATOM     42  O   UNL     1       4.776  -0.707  27.548  0.00  0.00    -0.271 OA
BRANCH  39  44
ATOM     43  C   UNL     1       6.004  -2.302  25.461  0.00  0.00    +0.013 C 
ATOM     44  C   UNL     1       5.429  -1.099  25.296  0.00  0.00    +0.068 C 
BRANCH  43  46
ATOM     45  C   UNL     1       7.124  -4.342  24.596  0.00  0.00    +0.012 A 
ATOM     46  C   UNL     1       6.307  -3.224  24.356  0.00  0.00    -0.021 A 
ATOM     47  C   UNL     1       5.772  -3.042  23.075  0.00  0.00    +0.057 A 
ATOM     48  C   UNL     1       6.101  -3.925  22.057  0.00  0.00    +0.159 A 
ATOM     49  C   UNL     1       6.939  -5.010  22.293  0.00  0.00    +0.158 A 
ATOM     50  C   UNL     1       7.444  -5.237  23.566  0.00  0.00    +0.050 A 
BRANCH  49  51
ATOM     51  O   UNL     1       7.235  -5.824  21.236  0.00  0.00    -0.503 OA
ATOM     52  H   UNL     1       6.678  -5.557  20.484  0.00  0.00    +0.292 HD
ENDBRANCH  49  51
BRANCH  48  53
ATOM     53  O   UNL     1       5.597  -3.709  20.807  0.00  0.00    -0.503 OA
ATOM     54  H   UNL     1       5.324  -2.771  20.812  0.00  0.00    +0.292 HD
ENDBRANCH  48  53
ENDBRANCH  43  46
ENDBRANCH  39  44
ENDBRANCH  38  40
ENDBRANCH  33  38
ENDBRANCH  32  36
ENDBRANCH  31  32
ENDBRANCH  30  31
ENDBRANCH  29  30
ENDBRANCH   1  29
TORSDOF 19
ENDMDL
MODEL 9
REMARK VINA RESULT:      -5.9      2.907      8.250
REMARK  Name = 
REMARK  19 active torsions:
REMARK  status: ('A' for Active; 'I' for Inactive)
REMARK    1  A    between atoms: C_3  and  O_47
REMARK    2  A    between atoms: C_4  and  O_46
REMARK    3  A    between atoms: C_6  and  C_7
REMARK    4  A    between atoms: C_8  and  C_9
REMARK    5  A    between atoms: N_11  and  C_12
REMARK    6  A    between atoms: C_12  and  C_13
REMARK    7  A    between atoms: N_15  and  C_18
REMARK    8  A    between atoms: C_18  and  C_19
REMARK    9  A    between atoms: C_19  and  C_20
REMARK   10  A    between atoms: C_20  and  C_21
REMARK   11  A    between atoms: C_21  and  C_22
REMARK   12  A    between atoms: C_22  and  C_23
REMARK   13  A    between atoms: C_23  and  O_24
REMARK   14  A    between atoms: O_24  and  C_25
REMARK   15  A    between atoms: C_26  and  C_38
REMARK   16  A    between atoms: C_30  and  O_37
REMARK   17  A    between atoms: C_32  and  O_36
REMARK   18  A    between atoms: C_40  and  O_45
REMARK   19  A    between atoms: C_41  and  O_44
REMARK                            x       y       z     vdW  Elec       q    Type
REMARK                         _______ _______ _______ _____ _____    ______ ____
ROOT
ATOM      1  C   UNL     1       9.402   0.926  25.260  0.00  0.00    +0.041 C 
ENDROOT
BRANCH   1   2
ATOM      2  C   UNL     1       9.055  -0.350  26.025  0.00  0.00    +0.229 C 
BRANCH   2   3
ATOM      3  O   UNL     1       7.878  -0.894  25.430  0.00  0.00    -0.485 OA
BRANCH   3   4
ATOM      4  C   UNL     1       7.095  -1.743  26.188  0.00  0.00    +0.211 A 
ATOM      5  C   UNL     1       7.524  -3.157  26.430  0.00  0.00    +0.238 A 
ATOM      6  O   UNL     1       8.635  -3.553  26.097  0.00  0.00    -0.283 OA
ATOM      7  C   UNL     1       6.588  -4.034  27.149  0.00  0.00    +0.109 A 
ATOM      8  C   UNL     1       5.464  -3.449  27.722  0.00  0.00    +0.147 A 
ATOM      9  C   UNL     1       4.568  -4.229  28.460  0.00  0.00    +0.092 A 
ATOM     10  C   UNL     1       4.811  -5.593  28.612  0.00  0.00    +0.124 A 
ATOM     11  C   UNL     1       5.926  -6.191  28.039  0.00  0.00    +0.091 A 
ATOM     12  O   UNL     1       5.177  -2.108  27.618  0.00  0.00    -0.451 OA
ATOM     13  C   UNL     1       6.814  -5.410  27.304  0.00  0.00    +0.135 A 
ATOM     14  C   UNL     1       5.995  -1.292  26.835  0.00  0.00    +0.181 A 
BRANCH  14  15
ATOM     15  C   UNL     1       5.528   0.136  26.798  0.00  0.00    +0.025 A 
ATOM     16  C   UNL     1       5.834   1.015  27.859  0.00  0.00    +0.015 A 
ATOM     17  C   UNL     1       5.449   2.368  27.828  0.00  0.00    +0.050 A 
ATOM     18  C   UNL     1       4.743   2.853  26.735  0.00  0.00    +0.158 A 
ATOM     19  C   UNL     1       4.427   2.012  25.681  0.00  0.00    +0.159 A 
ATOM     20  C   UNL     1       4.828   0.674  25.697  0.00  0.00    +0.060 A 
BRANCH  19  21
ATOM     21  O   UNL     1       3.720   2.544  24.639  0.00  0.00    -0.503 OA
ATOM     22  H   UNL     1       4.191   3.335  24.324  0.00  0.00    +0.292 HD
ENDBRANCH  19  21
BRANCH  18  23
ATOM     23  O   UNL     1       4.382   4.167  26.700  0.00  0.00    -0.503 OA
ATOM     24  H   UNL     1       4.163   4.384  27.630  0.00  0.00    +0.292 HD
ENDBRANCH  18  23
ENDBRANCH  14  15
BRANCH  13  25
ATOM     25  O   UNL     1       7.894  -6.019  26.728  0.00  0.00    -0.506 OA
ATOM     26  H   UNL     1       8.592  -5.371  26.544  0.00  0.00    +0.292 HD
ENDBRANCH  13  25
BRANCH  10  27
ATOM     27  O   UNL     1       3.972  -6.400  29.322  0.00  0.00    -0.507 OA
ATOM     28  H   UNL     1       3.465  -5.862  29.952  0.00  0.00    +0.292 HD
ENDBRANCH  10  27
ENDBRANCH   3   4
ENDBRANCH   2   3
ENDBRANCH   1   2
BRANCH   1  29
ATOM     29  C   UNL     1       8.327   2.016  25.384  0.00  0.00    +0.003 C 
BRANCH  29  30
ATOM     30  C   UNL     1       8.382   3.064  24.267  0.00  0.00    +0.002 C 
BRANCH  30  31
ATOM     31  C   UNL     1       7.134   2.986  23.391  0.00  0.00    +0.023 C 
BRANCH  31  32
ATOM     32  C   UNL     1       7.472   2.568  21.963  0.00  0.00    +0.145 C 
BRANCH  32  36
ATOM     33  C   UNL     1       8.792  -0.762  22.042  0.00  0.00    +0.100 A 
ATOM     34  N   UNL     1       9.850  -0.014  21.587  0.00  0.00    -0.133 NA
ATOM     35  N   UNL     1       9.465   1.254  21.529  0.00  0.00    -0.065 NA
ATOM     36  N   UNL     1       8.180   1.305  21.921  0.00  0.00    -0.251 N 
ATOM     37  C   UNL     1       7.710   0.070  22.244  0.00  0.00    +0.135 A 
BRANCH  33  38
ATOM     38  C   UNL     1       8.917  -2.220  22.267  0.00  0.00    +0.163 C 
BRANCH  38  40
ATOM     39  C   UNL     1       7.216  -3.923  22.681  0.00  0.00    +0.237 C 
ATOM     40  N   UNL     1       7.760  -2.703  22.986  0.00  0.00    -0.306 N 
ATOM     41  H   UNL     1       7.262  -2.044  23.569  0.00  0.00    +0.149 HD
ATOM     42  O   UNL     1       7.695  -4.705  21.871  0.00  0.00    -0.271 OA
BRANCH  39  44
ATOM     43  C   UNL     1       5.625  -5.495  23.674  0.00  0.00    +0.013 C 
ATOM     44  C   UNL     1       5.974  -4.220  23.438  0.00  0.00    +0.068 C 
BRANCH  43  46
ATOM     45  C   UNL     1       3.582  -4.894  24.953  0.00  0.00    +0.012 A 
ATOM     46  C   UNL     1       4.424  -5.890  24.425  0.00  0.00    -0.021 A 
ATOM     47  C   UNL     1       4.069  -7.233  24.597  0.00  0.00    +0.057 A 
ATOM     48  C   UNL     1       2.938  -7.560  25.330  0.00  0.00    +0.159 A 
ATOM     49  C   UNL     1       2.129  -6.571  25.880  0.00  0.00    +0.158 A 
ATOM     50  C   UNL     1       2.435  -5.231  25.683  0.00  0.00    +0.050 A 
BRANCH  49  51
ATOM     51  O   UNL     1       1.043  -6.971  26.607  0.00  0.00    -0.503 OA
ATOM     52  H   UNL     1       0.468  -6.197  26.742  0.00  0.00    +0.292 HD
ENDBRANCH  49  51
BRANCH  48  53
ATOM     53  O   UNL     1       2.630  -8.878  25.517  0.00  0.00    -0.503 OA
ATOM     54  H   UNL     1       2.502  -8.964  26.482  0.00  0.00    +0.292 HD
ENDBRANCH  48  53
ENDBRANCH  43  46
ENDBRANCH  39  44
ENDBRANCH  38  40
ENDBRANCH  33  38
ENDBRANCH  32  36
ENDBRANCH  31  32
ENDBRANCH  30  31
ENDBRANCH  29  30
ENDBRANCH   1  29
TORSDOF 19
ENDMDL
