MODEL 1
REMARK VINA RESULT:      -6.6      0.000      0.000
REMARK  Name = 
REMARK  16 active torsions:
REMARK  status: ('A' for Active; 'I' for Inactive)
REMARK    1  A    between atoms: C_1  and  O_2
REMARK    2  A    between atoms: O_2  and  C_3
REMARK    3  A    between atoms: C_4  and  O_39
REMARK    4  A    between atoms: C_6  and  C_9
REMARK    5  A    between atoms: C_10  and  O_24
REMARK    6  A    between atoms: C_17  and  O_22
REMARK    7  A    between atoms: C_19  and  O_20
REMARK    8  A    between atoms: O_20  and  C_21
REMARK    9  A    between atoms: O_22  and  C_23
REMARK   10  A    between atoms: O_24  and  C_25
REMARK   11  A    between atoms: C_27  and  O_38
REMARK   12  A    between atoms: C_28  and  O_37
REMARK   13  A    between atoms: C_30  and  O_36
REMARK   14  A    between atoms: C_32  and  C_34
REMARK   15  A    between atoms: C_34  and  O_35
REMARK   16  A    between atoms: O_39  and  C_40
REMARK                            x       y       z     vdW  Elec       q    Type
REMARK                         _______ _______ _______ _____ _____    ______ ____
ROOT
ATOM      1  C   UNL     1       8.302  -0.239  24.190  0.00  0.00    +0.181 A 
ATOM      2  O   UNL     1       9.416   0.470  23.747  0.00  0.00    -0.451 OA
ATOM      3  C   UNL     1       9.489   1.818  23.954  0.00  0.00    +0.147 A 
ATOM      4  C   UNL     1      10.561   2.487  23.362  0.00  0.00    +0.092 A 
ATOM      5  C   UNL     1      10.730   3.855  23.562  0.00  0.00    +0.127 A 
ATOM      6  C   UNL     1       9.787   4.549  24.320  0.00  0.00    +0.092 A 
ATOM      7  C   UNL     1       8.710   3.882  24.924  0.00  0.00    +0.138 A 
ATOM      8  C   UNL     1       8.592   2.494  24.771  0.00  0.00    +0.109 A 
ATOM      9  C   UNL     1       7.724   1.625  25.575  0.00  0.00    +0.238 A 
ATOM     10  O   UNL     1       7.422   1.979  26.714  0.00  0.00    -0.283 OA
ATOM     11  C   UNL     1       7.378   0.260  25.041  0.00  0.00    +0.214 A 
ENDROOT
BRANCH   1  15
ATOM     12  C   UNL     1       7.802  -4.313  23.087  0.00  0.00    +0.162 A 
ATOM     13  C   UNL     1       7.187  -3.291  22.366  0.00  0.00    +0.050 A 
ATOM     14  C   UNL     1       7.492  -1.958  22.646  0.00  0.00    +0.015 A 
ATOM     15  C   UNL     1       8.395  -1.618  23.666  0.00  0.00    +0.025 A 
ATOM     16  C   UNL     1       9.080  -2.643  24.333  0.00  0.00    +0.061 A 
ATOM     17  C   UNL     1       8.797  -3.988  24.035  0.00  0.00    +0.162 A 
BRANCH  12  19
ATOM     18  C   UNL     1       6.706  -6.062  21.868  0.00  0.00    +0.277 C 
ATOM     19  O   UNL     1       7.452  -5.638  23.000  0.00  0.00    -0.491 OA
ENDBRANCH  12  19
BRANCH  17  20
ATOM     20  O   UNL     1       9.380  -5.067  24.657  0.00  0.00    -0.491 OA
ATOM     21  C   UNL     1       9.748  -4.933  26.020  0.00  0.00    +0.277 C 
ENDBRANCH  17  20
ENDBRANCH   1  15
BRANCH   5  22
ATOM     22  O   UNL     1      11.852   4.390  22.991  0.00  0.00    -0.495 OA
ATOM     23  C   UNL     1      12.401   5.544  23.617  0.00  0.00    +0.277 C 
ENDBRANCH   5  22
BRANCH   7  24
ATOM     24  O   UNL     1       7.941   4.700  25.707  0.00  0.00    -0.494 OA
ATOM     25  C   UNL     1       8.496   5.971  26.031  0.00  0.00    +0.277 C 
ENDBRANCH   7  24
BRANCH  11  26
ATOM     26  O   UNL     1       6.263  -0.470  25.489  0.00  0.00    -0.453 OA
BRANCH  26  27
ATOM     27  C   UNL     1       6.423  -1.176  26.745  0.00  0.00    +0.340 C 
ATOM     28  O   UNL     1       6.686  -2.579  26.558  0.00  0.00    -0.331 OA
ATOM     29  C   UNL     1       5.588  -3.451  26.299  0.00  0.00    +0.179 C 
ATOM     30  C   UNL     1       4.428  -3.232  27.284  0.00  0.00    +0.177 C 
ATOM     31  C   UNL     1       4.029  -1.760  27.325  0.00  0.00    +0.180 C 
ATOM     32  C   UNL     1       5.242  -0.919  27.710  0.00  0.00    +0.214 C 
BRANCH  30  33
ATOM     33  O   UNL     1       3.301  -4.043  26.940  0.00  0.00    -0.386 OA
ATOM     34  H   UNL     1       3.629  -4.962  26.866  0.00  0.00    +0.210 HD
ENDBRANCH  30  33
BRANCH  31  35
ATOM     35  O   UNL     1       3.477  -1.333  26.065  0.00  0.00    -0.386 OA
ATOM     36  H   UNL     1       4.175  -1.369  25.378  0.00  0.00    +0.210 HD
ENDBRANCH  31  35
BRANCH  32  37
ATOM     37  O   UNL     1       4.865   0.462  27.784  0.00  0.00    -0.383 OA
ATOM     38  H   UNL     1       5.131   0.776  28.672  0.00  0.00    +0.210 HD
ENDBRANCH  32  37
BRANCH  29  39
ATOM     39  C   UNL     1       6.110  -4.899  26.423  0.00  0.00    +0.190 C 
BRANCH  39  40
ATOM     40  O   UNL     1       5.552  -5.780  25.455  0.00  0.00    -0.392 OA
ATOM     41  H   UNL     1       5.244  -6.582  25.926  0.00  0.00    +0.210 HD
ENDBRANCH  39  40
ENDBRANCH  29  39
ENDBRANCH  26  27
ENDBRANCH  11  26
TORSDOF 12
ENDMDL
MODEL 2
REMARK VINA RESULT:      -6.3      1.872      7.576
REMARK  Name = 
REMARK  16 active torsions:
REMARK  status: ('A' for Active; 'I' for Inactive)
REMARK    1  A    between atoms: C_1  and  O_2
REMARK    2  A    between atoms: O_2  and  C_3
REMARK    3  A    between atoms: C_4  and  O_39
REMARK    4  A    between atoms: C_6  and  C_9
REMARK    5  A    between atoms: C_10  and  O_24
REMARK    6  A    between atoms: C_17  and  O_22
REMARK    7  A    between atoms: C_19  and  O_20
REMARK    8  A    between atoms: O_20  and  C_21
REMARK    9  A    between atoms: O_22  and  C_23
REMARK   10  A    between atoms: O_24  and  C_25
REMARK   11  A    between atoms: C_27  and  O_38
REMARK   12  A    between atoms: C_28  and  O_37
REMARK   13  A    between atoms: C_30  and  O_36
REMARK   14  A    between atoms: C_32  and  C_34
REMARK   15  A    between atoms: C_34  and  O_35
REMARK   16  A    between atoms: O_39  and  C_40
REMARK                            x       y       z     vdW  Elec       q    Type
REMARK                         _______ _______ _______ _____ _____    ______ ____
ROOT
ATOM      1  C   UNL     1       7.921  -0.781  24.325  0.00  0.00    +0.181 A 
ATOM      2  O   UNL     1       7.871  -1.761  23.337  0.00  0.00    -0.451 OA
ATOM      3  C   UNL     1       7.399  -3.006  23.639  0.00  0.00    +0.147 A 
ATOM      4  C   UNL     1       7.509  -3.978  22.644  0.00  0.00    +0.092 A 
ATOM      5  C   UNL     1       7.010  -5.261  22.858  0.00  0.00    +0.127 A 
ATOM      6  C   UNL     1       6.446  -5.568  24.096  0.00  0.00    +0.092 A 
ATOM      7  C   UNL     1       6.326  -4.595  25.100  0.00  0.00    +0.138 A 
ATOM      8  C   UNL     1       6.770  -3.290  24.844  0.00  0.00    +0.109 A 
ATOM      9  C   UNL     1       6.439  -2.111  25.653  0.00  0.00    +0.238 A 
ATOM     10  O   UNL     1       5.394  -2.110  26.303  0.00  0.00    -0.283 OA
ATOM     11  C   UNL     1       7.302  -0.883  25.522  0.00  0.00    +0.214 A 
ENDROOT
BRANCH   1  15
ATOM     12  C   UNL     1       9.929   2.889  23.573  0.00  0.00    +0.162 A 
ATOM     13  C   UNL     1      10.596   1.807  24.146  0.00  0.00    +0.050 A 
ATOM     14  C   UNL     1       9.964   0.566  24.236  0.00  0.00    +0.015 A 
ATOM     15  C   UNL     1       8.648   0.386  23.782  0.00  0.00    +0.025 A 
ATOM     16  C   UNL     1       8.006   1.447  23.127  0.00  0.00    +0.061 A 
ATOM     17  C   UNL     1       8.650   2.692  23.008  0.00  0.00    +0.162 A 
BRANCH  12  19
ATOM     18  C   UNL     1      11.791   4.388  23.404  0.00  0.00    +0.277 C 
ATOM     19  O   UNL     1      10.398   4.180  23.585  0.00  0.00    -0.491 OA
ENDBRANCH  12  19
BRANCH  17  20
ATOM     20  O   UNL     1       8.096   3.805  22.422  0.00  0.00    -0.491 OA
ATOM     21  C   UNL     1       6.686   3.853  22.279  0.00  0.00    +0.277 C 
ENDBRANCH  17  20
ENDBRANCH   1  15
BRANCH   5  22
ATOM     22  O   UNL     1       7.112  -6.108  21.790  0.00  0.00    -0.495 OA
ATOM     23  C   UNL     1       6.144  -5.955  20.757  0.00  0.00    +0.277 C 
ENDBRANCH   5  22
BRANCH   7  24
ATOM     24  O   UNL     1       5.663  -5.045  26.210  0.00  0.00    -0.494 OA
ATOM     25  C   UNL     1       6.469  -5.389  27.332  0.00  0.00    +0.277 C 
ENDBRANCH   7  24
BRANCH  11  26
ATOM     26  O   UNL     1       7.351   0.119  26.508  0.00  0.00    -0.453 OA
BRANCH  26  27
ATOM     27  C   UNL     1       6.270   1.084  26.493  0.00  0.00    +0.340 C 
ATOM     28  O   UNL     1       6.662   2.340  25.907  0.00  0.00    -0.331 OA
ATOM     29  C   UNL     1       7.379   3.274  26.709  0.00  0.00    +0.179 C 
ATOM     30  C   UNL     1       6.721   3.486  28.082  0.00  0.00    +0.177 C 
ATOM     31  C   UNL     1       6.489   2.149  28.779  0.00  0.00    +0.180 C 
ATOM     32  C   UNL     1       5.628   1.259  27.890  0.00  0.00    +0.214 C 
BRANCH  30  33
ATOM     33  O   UNL     1       7.514   4.346  28.905  0.00  0.00    -0.386 OA
ATOM     34  H   UNL     1       8.077   4.871  28.302  0.00  0.00    +0.210 HD
ENDBRANCH  30  33
BRANCH  31  35
ATOM     35  O   UNL     1       7.737   1.508  29.107  0.00  0.00    -0.386 OA
ATOM     36  H   UNL     1       8.068   1.864  29.958  0.00  0.00    +0.210 HD
ENDBRANCH  31  35
BRANCH  32  37
ATOM     37  O   UNL     1       5.378   0.013  28.554  0.00  0.00    -0.383 OA
ATOM     38  H   UNL     1       4.859   0.225  29.356  0.00  0.00    +0.210 HD
ENDBRANCH  32  37
BRANCH  29  39
ATOM     39  C   UNL     1       7.417   4.611  25.937  0.00  0.00    +0.190 C 
BRANCH  39  40
ATOM     40  O   UNL     1       8.675   5.271  26.022  0.00  0.00    -0.392 OA
ATOM     41  H   UNL     1       8.615   5.932  26.742  0.00  0.00    +0.210 HD
ENDBRANCH  39  40
ENDBRANCH  29  39
ENDBRANCH  26  27
ENDBRANCH  11  26
TORSDOF 12
ENDMDL
MODEL 3
REMARK VINA RESULT:      -6.1      2.143      8.675
REMARK  Name = 
REMARK  16 active torsions:
REMARK  status: ('A' for Active; 'I' for Inactive)
REMARK    1  A    between atoms: C_1  and  O_2
REMARK    2  A    between atoms: O_2  and  C_3
REMARK    3  A    between atoms: C_4  and  O_39
REMARK    4  A    between atoms: C_6  and  C_9
REMARK    5  A    between atoms: C_10  and  O_24
REMARK    6  A    between atoms: C_17  and  O_22
REMARK    7  A    between atoms: C_19  and  O_20
REMARK    8  A    between atoms: O_20  and  C_21
REMARK    9  A    between atoms: O_22  and  C_23
REMARK   10  A    between atoms: O_24  and  C_25
REMARK   11  A    between atoms: C_27  and  O_38
REMARK   12  A    between atoms: C_28  and  O_37
REMARK   13  A    between atoms: C_30  and  O_36
REMARK   14  A    between atoms: C_32  and  C_34
REMARK   15  A    between atoms: C_34  and  O_35
REMARK   16  A    between atoms: O_39  and  C_40
REMARK                            x       y       z     vdW  Elec       q    Type
REMARK                         _______ _______ _______ _____ _____    ______ ____
ROOT
ATOM      1  C   UNL     1       6.072  -1.903  25.089  0.00  0.00    +0.181 A 
ATOM      2  O   UNL     1       5.348  -2.902  25.736  0.00  0.00    -0.451 OA
ATOM      3  C   UNL     1       5.222  -4.132  25.157  0.00  0.00    +0.147 A 
ATOM      4  C   UNL     1       4.369  -5.038  25.787  0.00  0.00    +0.092 A 
ATOM      5  C   UNL     1       4.221  -6.329  25.284  0.00  0.00    +0.127 A 
ATOM      6  C   UNL     1       4.900  -6.681  24.118  0.00  0.00    +0.092 A 
ATOM      7  C   UNL     1       5.765  -5.777  23.481  0.00  0.00    +0.138 A 
ATOM      8  C   UNL     1       5.957  -4.506  24.039  0.00  0.00    +0.109 A 
ATOM      9  C   UNL     1       7.038  -3.580  23.681  0.00  0.00    +0.238 A 
ATOM     10  O   UNL     1       8.090  -4.039  23.237  0.00  0.00    -0.283 OA
ATOM     11  C   UNL     1       6.884  -2.123  24.031  0.00  0.00    +0.214 A 
ENDROOT
BRANCH   1  15
ATOM     12  C   UNL     1       6.175   2.019  26.724  0.00  0.00    +0.162 A 
ATOM     13  C   UNL     1       5.497   1.752  25.536  0.00  0.00    +0.050 A 
ATOM     14  C   UNL     1       5.341   0.434  25.103  0.00  0.00    +0.015 A 
ATOM     15  C   UNL     1       5.879  -0.639  25.831  0.00  0.00    +0.025 A 
ATOM     16  C   UNL     1       6.485  -0.381  27.069  0.00  0.00    +0.061 A 
ATOM     17  C   UNL     1       6.619   0.943  27.524  0.00  0.00    +0.162 A 
BRANCH  12  19
ATOM     18  C   UNL     1       6.158   4.384  26.336  0.00  0.00    +0.277 C 
ATOM     19  O   UNL     1       6.521   3.278  27.150  0.00  0.00    -0.491 OA
ENDBRANCH  12  19
BRANCH  17  20
ATOM     20  O   UNL     1       7.231   1.307  28.700  0.00  0.00    -0.491 OA
ATOM     21  C   UNL     1       6.460   1.279  29.890  0.00  0.00    +0.277 C 
ENDBRANCH  17  20
ENDBRANCH   1  15
BRANCH   5  22
ATOM     22  O   UNL     1       3.412  -7.149  26.021  0.00  0.00    -0.495 OA
ATOM     23  C   UNL     1       2.383  -7.835  25.316  0.00  0.00    +0.277 C 
ENDBRANCH   5  22
BRANCH   7  24
ATOM     24  O   UNL     1       6.419  -6.322  22.409  0.00  0.00    -0.494 OA
ATOM     25  C   UNL     1       6.029  -5.850  21.123  0.00  0.00    +0.277 C 
ENDBRANCH   7  24
BRANCH  11  26
ATOM     26  O   UNL     1       7.618  -1.107  23.394  0.00  0.00    -0.453 OA
BRANCH  26  27
ATOM     27  C   UNL     1       8.832  -0.680  24.061  0.00  0.00    +0.340 C 
ATOM     28  O   UNL     1       8.746   0.672  24.548  0.00  0.00    -0.331 OA
ATOM     29  C   UNL     1       8.967   1.742  23.634  0.00  0.00    +0.179 C 
ATOM     30  C   UNL     1      10.239   1.537  22.795  0.00  0.00    +0.177 C 
ATOM     31  C   UNL     1      10.223   0.167  22.123  0.00  0.00    +0.180 C 
ATOM     32  C   UNL     1      10.088  -0.916  23.188  0.00  0.00    +0.214 C 
BRANCH  30  33
ATOM     33  O   UNL     1      10.381   2.569  21.816  0.00  0.00    -0.386 OA
ATOM     34  H   UNL     1      10.927   2.199  21.094  0.00  0.00    +0.210 HD
ENDBRANCH  30  33
BRANCH  31  35
ATOM     35  O   UNL     1       9.167   0.075  21.148  0.00  0.00    -0.386 OA
ATOM     36  H   UNL     1       8.634   0.898  21.172  0.00  0.00    +0.210 HD
ENDBRANCH  31  35
BRANCH  32  37
ATOM     37  O   UNL     1      10.107  -2.207  22.566  0.00  0.00    -0.383 OA
ATOM     38  H   UNL     1       9.211  -2.352  22.199  0.00  0.00    +0.210 HD
ENDBRANCH  32  37
BRANCH  29  39
ATOM     39  C   UNL     1       9.094   3.039  24.464  0.00  0.00    +0.190 C 
BRANCH  39  40
ATOM     40  O   UNL     1       8.965   4.220  23.681  0.00  0.00    -0.392 OA
ATOM     41  H   UNL     1       8.262   4.060  23.017  0.00  0.00    +0.210 HD
ENDBRANCH  39  40
ENDBRANCH  29  39
ENDBRANCH  26  27
ENDBRANCH  11  26
TORSDOF 12
ENDMDL
MODEL 4
REMARK VINA RESULT:      -6.1      2.153      8.643
REMARK  Name = 
REMARK  16 active torsions:
REMARK  status: ('A' for Active; 'I' for Inactive)
REMARK    1  A    between atoms: C_1  and  O_2
REMARK    2  A    between atoms: O_2  and  C_3
REMARK    3  A    between atoms: C_4  and  O_39
REMARK    4  A    between atoms: C_6  and  C_9
REMARK    5  A    between atoms: C_10  and  O_24
REMARK    6  A    between atoms: C_17  and  O_22
REMARK    7  A    between atoms: C_19  and  O_20
REMARK    8  A    between atoms: O_20  and  C_21
REMARK    9  A    between atoms: O_22  and  C_23
REMARK   10  A    between atoms: O_24  and  C_25
REMARK   11  A    between atoms: C_27  and  O_38
REMARK   12  A    between atoms: C_28  and  O_37
REMARK   13  A    between atoms: C_30  and  O_36
REMARK   14  A    between atoms: C_32  and  C_34
REMARK   15  A    between atoms: C_34  and  O_35
REMARK   16  A    between atoms: O_39  and  C_40
REMARK                            x       y       z     vdW  Elec       q    Type
REMARK                         _______ _______ _______ _____ _____    ______ ____
ROOT
ATOM      1  C   UNL     1       5.974  -0.028  24.624  0.00  0.00    +0.181 A 
ATOM      2  O   UNL     1       5.150  -1.079  25.019  0.00  0.00    -0.451 OA
ATOM      3  C   UNL     1       5.325  -2.319  24.475  0.00  0.00    +0.147 A 
ATOM      4  C   UNL     1       4.378  -3.289  24.806  0.00  0.00    +0.092 A 
ATOM      5  C   UNL     1       4.511  -4.591  24.327  0.00  0.00    +0.127 A 
ATOM      6  C   UNL     1       5.573  -4.892  23.476  0.00  0.00    +0.092 A 
ATOM      7  C   UNL     1       6.533  -3.924  23.143  0.00  0.00    +0.138 A 
ATOM      8  C   UNL     1       6.424  -2.637  23.688  0.00  0.00    +0.109 A 
ATOM      9  C   UNL     1       7.489  -1.627  23.690  0.00  0.00    +0.238 A 
ATOM     10  O   UNL     1       8.661  -2.000  23.648  0.00  0.00    -0.283 OA
ATOM     11  C   UNL     1       7.114  -0.186  23.916  0.00  0.00    +0.214 A 
ENDROOT
BRANCH   1  15
ATOM     12  C   UNL     1       5.204   3.904  26.045  0.00  0.00    +0.162 A 
ATOM     13  C   UNL     1       4.975   3.561  24.713  0.00  0.00    +0.050 A 
ATOM     14  C   UNL     1       5.082   2.230  24.306  0.00  0.00    +0.015 A 
ATOM     15  C   UNL     1       5.443   1.220  25.213  0.00  0.00    +0.025 A 
ATOM     16  C   UNL     1       5.587   1.547  26.569  0.00  0.00    +0.061 A 
ATOM     17  C   UNL     1       5.453   2.882  26.988  0.00  0.00    +0.162 A 
BRANCH  12  19
ATOM     18  C   UNL     1       4.995   6.250  25.603  0.00  0.00    +0.277 C 
ATOM     19  O   UNL     1       5.283   5.194  26.508  0.00  0.00    -0.491 OA
ENDBRANCH  12  19
BRANCH  17  20
ATOM     20  O   UNL     1       5.614   3.315  28.283  0.00  0.00    -0.491 OA
ATOM     21  C   UNL     1       6.818   2.980  28.954  0.00  0.00    +0.277 C 
ENDBRANCH  17  20
ENDBRANCH   1  15
BRANCH   5  22
ATOM     22  O   UNL     1       3.563  -5.471  24.772  0.00  0.00    -0.495 OA
ATOM     23  C   UNL     1       3.914  -6.851  24.757  0.00  0.00    +0.277 C 
ENDBRANCH   5  22
BRANCH   7  24
ATOM     24  O   UNL     1       7.554  -4.419  22.377  0.00  0.00    -0.494 OA
ATOM     25  C   UNL     1       7.378  -5.734  21.860  0.00  0.00    +0.277 C 
ENDBRANCH   7  24
BRANCH  11  26
ATOM     26  O   UNL     1       7.942   0.884  23.533  0.00  0.00    -0.453 OA
BRANCH  26  27
ATOM     27  C   UNL     1       8.850   1.384  24.546  0.00  0.00    +0.340 C 
ATOM     28  O   UNL     1       8.510   2.714  24.982  0.00  0.00    -0.331 OA
ATOM     29  C   UNL     1       8.919   3.820  24.181  0.00  0.00    +0.179 C 
ATOM     30  C   UNL     1      10.401   3.731  23.782  0.00  0.00    +0.177 C 
ATOM     31  C   UNL     1      10.705   2.381  23.140  0.00  0.00    +0.180 C 
ATOM     32  C   UNL     1      10.330   1.265  24.110  0.00  0.00    +0.214 C 
BRANCH  30  33
ATOM     33  O   UNL     1      10.760   4.795  22.897  0.00  0.00    -0.386 OA
ATOM     34  H   UNL     1      10.331   5.604  23.241  0.00  0.00    +0.210 HD
ENDBRANCH  30  33
BRANCH  31  35
ATOM     35  O   UNL     1      10.015   2.233  21.884  0.00  0.00    -0.386 OA
ATOM     36  H   UNL     1       9.968   3.105  21.438  0.00  0.00    +0.210 HD
ENDBRANCH  31  35
BRANCH  32  37
ATOM     37  O   UNL     1      10.644  -0.006  23.526  0.00  0.00    -0.383 OA
ATOM     38  H   UNL     1      10.689  -0.647  24.264  0.00  0.00    +0.210 HD
ENDBRANCH  32  37
BRANCH  29  39
ATOM     39  C   UNL     1       8.679   5.102  25.009  0.00  0.00    +0.190 C 
BRANCH  39  40
ATOM     40  O   UNL     1       8.318   4.836  26.360  0.00  0.00    -0.392 OA
ATOM     41  H   UNL     1       8.519   5.639  26.884  0.00  0.00    +0.210 HD
ENDBRANCH  39  40
ENDBRANCH  29  39
ENDBRANCH  26  27
ENDBRANCH  11  26
TORSDOF 12
ENDMDL
MODEL 5
REMARK VINA RESULT:      -5.8      1.800      6.784
REMARK  Name = 
REMARK  16 active torsions:
REMARK  status: ('A' for Active; 'I' for Inactive)
REMARK    1  A    between atoms: C_1  and  O_2
REMARK    2  A    between atoms: O_2  and  C_3
REMARK    3  A    between atoms: C_4  and  O_39
REMARK    4  A    between atoms: C_6  and  C_9
REMARK    5  A    between atoms: C_10  and  O_24
REMARK    6  A    between atoms: C_17  and  O_22
REMARK    7  A    between atoms: C_19  and  O_20
REMARK    8  A    between atoms: O_20  and  C_21
REMARK    9  A    between atoms: O_22  and  C_23
REMARK   10  A    between atoms: O_24  and  C_25
REMARK   11  A    between atoms: C_27  and  O_38
REMARK   12  A    between atoms: C_28  and  O_37
REMARK   13  A    between atoms: C_30  and  O_36
REMARK   14  A    between atoms: C_32  and  C_34
REMARK   15  A    between atoms: C_34  and  O_35
REMARK   16  A    between atoms: O_39  and  C_40
REMARK                            x       y       z     vdW  Elec       q    Type
REMARK                         _______ _______ _______ _____ _____    ______ ____
ROOT
ATOM      1  C   UNL     1       6.081  -1.074  24.777  0.00  0.00    +0.181 A 
ATOM      2  O   UNL     1       4.992  -1.657  25.420  0.00  0.00    -0.451 OA
ATOM      3  C   UNL     1       4.355  -0.982  26.422  0.00  0.00    +0.147 A 
ATOM      4  C   UNL     1       3.367  -1.678  27.118  0.00  0.00    +0.092 A 
ATOM      5  C   UNL     1       2.640  -1.045  28.125  0.00  0.00    +0.127 A 
ATOM      6  C   UNL     1       2.951   0.274  28.455  0.00  0.00    +0.092 A 
ATOM      7  C   UNL     1       3.940   0.983  27.755  0.00  0.00    +0.138 A 
ATOM      8  C   UNL     1       4.614   0.354  26.699  0.00  0.00    +0.109 A 
ATOM      9  C   UNL     1       5.432   1.040  25.691  0.00  0.00    +0.238 A 
ATOM     10  O   UNL     1       5.190   2.219  25.432  0.00  0.00    -0.283 OA
ATOM     11  C   UNL     1       6.419   0.230  24.892  0.00  0.00    +0.214 A 
ENDROOT
BRANCH   1  15
ATOM     12  C   UNL     1       7.094  -4.435  22.381  0.00  0.00    +0.162 A 
ATOM     13  C   UNL     1       6.277  -3.420  21.888  0.00  0.00    +0.050 A 
ATOM     14  C   UNL     1       6.088  -2.253  22.631  0.00  0.00    +0.015 A 
ATOM     15  C   UNL     1       6.689  -2.088  23.889  0.00  0.00    +0.025 A 
ATOM     16  C   UNL     1       7.580  -3.069  24.348  0.00  0.00    +0.061 A 
ATOM     17  C   UNL     1       7.796  -4.233  23.590  0.00  0.00    +0.162 A 
BRANCH  12  19
ATOM     18  C   UNL     1       6.255  -6.060  20.831  0.00  0.00    +0.277 C 
ATOM     19  O   UNL     1       7.213  -5.678  21.807  0.00  0.00    -0.491 OA
ENDBRANCH  12  19
BRANCH  17  20
ATOM     20  O   UNL     1       8.615  -5.271  23.967  0.00  0.00    -0.491 OA
ATOM     21  C   UNL     1       9.141  -5.262  25.283  0.00  0.00    +0.277 C 
ENDBRANCH  17  20
ENDBRANCH   1  15
BRANCH   5  22
ATOM     22  O   UNL     1       1.652  -1.803  28.690  0.00  0.00    -0.495 OA
ATOM     23  C   UNL     1       1.487  -3.122  28.180  0.00  0.00    +0.277 C 
ENDBRANCH   5  22
BRANCH   7  24
ATOM     24  O   UNL     1       4.045   2.290  28.148  0.00  0.00    -0.494 OA
ATOM     25  C   UNL     1       5.048   2.582  29.115  0.00  0.00    +0.277 C 
ENDBRANCH   7  24
BRANCH  11  26
ATOM     26  O   UNL     1       7.515   0.808  24.229  0.00  0.00    -0.453 OA
BRANCH  26  27
ATOM     27  C   UNL     1       8.526   1.415  25.073  0.00  0.00    +0.340 C 
ATOM     28  O   UNL     1       8.512   2.852  25.001  0.00  0.00    -0.331 OA
ATOM     29  C   UNL     1       9.162   3.487  23.902  0.00  0.00    +0.179 C 
ATOM     30  C   UNL     1      10.578   2.934  23.667  0.00  0.00    +0.177 C 
ATOM     31  C   UNL     1      10.548   1.414  23.550  0.00  0.00    +0.180 C 
ATOM     32  C   UNL     1       9.931   0.822  24.813  0.00  0.00    +0.214 C 
BRANCH  30  33
ATOM     33  O   UNL     1      11.167   3.512  22.499  0.00  0.00    -0.386 OA
ATOM     34  H   UNL     1      11.260   4.470  22.675  0.00  0.00    +0.210 HD
ENDBRANCH  30  33
BRANCH  31  35
ATOM     35  O   UNL     1       9.830   0.994  22.373  0.00  0.00    -0.386 OA
ATOM     36  H   UNL     1       8.915   0.750  22.624  0.00  0.00    +0.210 HD
ENDBRANCH  31  35
BRANCH  32  37
ATOM     37  O   UNL     1       9.931  -0.609  24.724  0.00  0.00    -0.383 OA
ATOM     38  H   UNL     1      10.866  -0.891  24.793  0.00  0.00    +0.210 HD
ENDBRANCH  32  37
BRANCH  29  39
ATOM     39  C   UNL     1       9.239   4.996  24.221  0.00  0.00    +0.190 C 
BRANCH  39  40
ATOM     40  O   UNL     1       9.490   5.799  23.073  0.00  0.00    -0.392 OA
ATOM     41  H   UNL     1       8.668   5.818  22.539  0.00  0.00    +0.210 HD
ENDBRANCH  39  40
ENDBRANCH  29  39
ENDBRANCH  26  27
ENDBRANCH  11  26
TORSDOF 12
ENDMDL
MODEL 6
REMARK VINA RESULT:      -5.8      1.834      2.941
REMARK  Name = 
REMARK  16 active torsions:
REMARK  status: ('A' for Active; 'I' for Inactive)
REMARK    1  A    between atoms: C_1  and  O_2
REMARK    2  A    between atoms: O_2  and  C_3
REMARK    3  A    between atoms: C_4  and  O_39
REMARK    4  A    between atoms: C_6  and  C_9
REMARK    5  A    between atoms: C_10  and  O_24
REMARK    6  A    between atoms: C_17  and  O_22
REMARK    7  A    between atoms: C_19  and  O_20
REMARK    8  A    between atoms: O_20  and  C_21
REMARK    9  A    between atoms: O_22  and  C_23
REMARK   10  A    between atoms: O_24  and  C_25
REMARK   11  A    between atoms: C_27  and  O_38
REMARK   12  A    between atoms: C_28  and  O_37
REMARK   13  A    between atoms: C_30  and  O_36
REMARK   14  A    between atoms: C_32  and  C_34
REMARK   15  A    between atoms: C_34  and  O_35
REMARK   16  A    between atoms: O_39  and  C_40
REMARK                            x       y       z     vdW  Elec       q    Type
REMARK                         _______ _______ _______ _____ _____    ______ ____
ROOT
ATOM      1  C   UNL     1       8.332   1.430  24.542  0.00  0.00    +0.181 A 
ATOM      2  O   UNL     1       9.649   1.751  24.223  0.00  0.00    -0.451 OA
ATOM      3  C   UNL     1      10.000   3.056  24.023  0.00  0.00    +0.147 A 
ATOM      4  C   UNL     1      11.297   3.294  23.569  0.00  0.00    +0.092 A 
ATOM      5  C   UNL     1      11.747   4.600  23.383  0.00  0.00    +0.127 A 
ATOM      6  C   UNL     1      10.865   5.656  23.611  0.00  0.00    +0.092 A 
ATOM      7  C   UNL     1       9.561   5.425  24.075  0.00  0.00    +0.138 A 
ATOM      8  C   UNL     1       9.146   4.109  24.323  0.00  0.00    +0.109 A 
ATOM      9  C   UNL     1       7.952   3.729  25.087  0.00  0.00    +0.238 A 
ATOM     10  O   UNL     1       7.521   4.504  25.940  0.00  0.00    -0.283 OA
ATOM     11  C   UNL     1       7.403   2.336  24.920  0.00  0.00    +0.214 A 
ENDROOT
BRANCH   1  15
ATOM     12  C   UNL     1       8.796  -2.787  24.284  0.00  0.00    +0.162 A 
ATOM     13  C   UNL     1       9.081  -2.102  25.463  0.00  0.00    +0.050 A 
ATOM     14  C   UNL     1       8.771  -0.746  25.576  0.00  0.00    +0.015 A 
ATOM     15  C   UNL     1       8.194  -0.042  24.506  0.00  0.00    +0.025 A 
ATOM     16  C   UNL     1       7.826  -0.746  23.351  0.00  0.00    +0.061 A 
ATOM     17  C   UNL     1       8.111  -2.119  23.245  0.00  0.00    +0.162 A 
BRANCH  12  19
ATOM     18  C   UNL     1       8.770  -5.108  24.883  0.00  0.00    +0.277 C 
ATOM     19  O   UNL     1       9.207  -4.070  24.017  0.00  0.00    -0.491 OA
ENDBRANCH  12  19
BRANCH  17  20
ATOM     20  O   UNL     1       7.830  -2.893  22.143  0.00  0.00    -0.491 OA
ATOM     21  C   UNL     1       6.494  -3.329  21.957  0.00  0.00    +0.277 C 
ENDBRANCH  17  20
ENDBRANCH   1  15
BRANCH   5  22
ATOM     22  O   UNL     1      13.054   4.713  23.000  0.00  0.00    -0.495 OA
ATOM     23  C   UNL     1      13.349   5.695  22.012  0.00  0.00    +0.277 C 
ENDBRANCH   5  22
BRANCH   7  24
ATOM     24  O   UNL     1       8.870   6.577  24.335  0.00  0.00    -0.494 OA
ATOM     25  C   UNL     1       7.914   6.977  23.359  0.00  0.00    +0.277 C 
ENDBRANCH   7  24
BRANCH  11  26
ATOM     26  O   UNL     1       6.079   1.997  25.249  0.00  0.00    -0.453 OA
BRANCH  26  27
ATOM     27  C   UNL     1       5.823   1.704  26.646  0.00  0.00    +0.340 C 
ATOM     28  O   UNL     1       5.619   0.300  26.885  0.00  0.00    -0.331 OA
ATOM     29  C   UNL     1       4.336  -0.260  26.614  0.00  0.00    +0.179 C 
ATOM     30  C   UNL     1       3.198   0.575  27.222  0.00  0.00    +0.177 C 
ATOM     31  C   UNL     1       3.317   2.036  26.798  0.00  0.00    +0.180 C 
ATOM     32  C   UNL     1       4.680   2.575  27.221  0.00  0.00    +0.214 C 
BRANCH  30  33
ATOM     33  O   UNL     1       1.921   0.051  26.850  0.00  0.00    -0.386 OA
ATOM     34  H   UNL     1       1.908   0.008  25.873  0.00  0.00    +0.210 HD
ENDBRANCH  30  33
BRANCH  31  35
ATOM     35  O   UNL     1       3.115   2.185  25.380  0.00  0.00    -0.386 OA
ATOM     36  H   UNL     1       2.607   3.006  25.211  0.00  0.00    +0.210 HD
ENDBRANCH  31  35
BRANCH  32  37
ATOM     37  O   UNL     1       4.785   3.957  26.855  0.00  0.00    -0.383 OA
ATOM     38  H   UNL     1       4.221   4.454  27.482  0.00  0.00    +0.210 HD
ENDBRANCH  32  37
BRANCH  29  39
ATOM     39  C   UNL     1       4.318  -1.682  27.217  0.00  0.00    +0.190 C 
BRANCH  39  40
ATOM     40  O   UNL     1       3.342  -2.530  26.621  0.00  0.00    -0.392 OA
ATOM     41  H   UNL     1       2.775  -1.972  26.048  0.00  0.00    +0.210 HD
ENDBRANCH  39  40
ENDBRANCH  29  39
ENDBRANCH  26  27
ENDBRANCH  11  26
TORSDOF 12
ENDMDL
MODEL 7
REMARK VINA RESULT:      -5.5      2.681      8.807
REMARK  Name = 
REMARK  16 active torsions:
REMARK  status: ('A' for Active; 'I' for Inactive)
REMARK    1  A    between atoms: C_1  and  O_2
REMARK    2  A    between atoms: O_2  and  C_3
REMARK    3  A    between atoms: C_4  and  O_39
REMARK    4  A    between atoms: C_6  and  C_9
REMARK    5  A    between atoms: C_10  and  O_24
REMARK    6  A    between atoms: C_17  and  O_22
REMARK    7  A    between atoms: C_19  and  O_20
REMARK    8  A    between atoms: O_20  and  C_21
REMARK    9  A    between atoms: O_22  and  C_23
REMARK   10  A    between atoms: O_24  and  C_25
REMARK   11  A    between atoms: C_27  and  O_38
REMARK   12  A    between atoms: C_28  and  O_37
REMARK   13  A    between atoms: C_30  and  O_36
REMARK   14  A    between atoms: C_32  and  C_34
REMARK   15  A    between atoms: C_34  and  O_35
REMARK   16  A    between atoms: O_39  and  C_40
REMARK                            x       y       z     vdW  Elec       q    Type
REMARK                         _______ _______ _______ _____ _____    ______ ____
ROOT
ATOM      1  C   UNL     1       5.811  -0.349  24.769  0.00  0.00    +0.181 A 
ATOM      2  O   UNL     1       4.911  -1.295  25.254  0.00  0.00    -0.451 OA
ATOM      3  C   UNL     1       5.042  -2.605  24.891  0.00  0.00    +0.147 A 
ATOM      4  C   UNL     1       4.027  -3.473  25.295  0.00  0.00    +0.092 A 
ATOM      5  C   UNL     1       4.110  -4.833  25.003  0.00  0.00    +0.127 A 
ATOM      6  C   UNL     1       5.195  -5.299  24.261  0.00  0.00    +0.092 A 
ATOM      7  C   UNL     1       6.223  -4.434  23.856  0.00  0.00    +0.138 A 
ATOM      8  C   UNL     1       6.159  -3.081  24.217  0.00  0.00    +0.109 A 
ATOM      9  C   UNL     1       7.278  -2.133  24.144  0.00  0.00    +0.238 A 
ATOM     10  O   UNL     1       8.428  -2.565  24.218  0.00  0.00    -0.283 OA
ATOM     11  C   UNL     1       6.974  -0.658  24.154  0.00  0.00    +0.214 A 
ENDROOT
BRANCH   1  15
ATOM     12  C   UNL     1       3.620   3.127  25.856  0.00  0.00    +0.162 A 
ATOM     13  C   UNL     1       3.967   2.168  26.806  0.00  0.00    +0.050 A 
ATOM     14  C   UNL     1       4.820   1.119  26.460  0.00  0.00    +0.015 A 
ATOM     15  C   UNL     1       5.322   0.992  25.154  0.00  0.00    +0.025 A 
ATOM     16  C   UNL     1       5.046   2.001  24.221  0.00  0.00    +0.061 A 
ATOM     17  C   UNL     1       4.210   3.075  24.574  0.00  0.00    +0.162 A 
BRANCH  12  19
ATOM     18  C   UNL     1       2.178   4.302  27.368  0.00  0.00    +0.277 C 
ATOM     19  O   UNL     1       2.667   4.097  26.050  0.00  0.00    -0.491 OA
ENDBRANCH  12  19
BRANCH  17  20
ATOM     20  O   UNL     1       3.844   4.093  23.725  0.00  0.00    -0.491 OA
ATOM     21  C   UNL     1       3.627   3.778  22.360  0.00  0.00    +0.277 C 
ENDBRANCH  17  20
ENDBRANCH   1  15
BRANCH   5  22
ATOM     22  O   UNL     1       3.094  -5.597  25.507  0.00  0.00    -0.495 OA
ATOM     23  C   UNL     1       3.451  -6.583  26.469  0.00  0.00    +0.277 C 
ENDBRANCH   5  22
BRANCH   7  24
ATOM     24  O   UNL     1       7.250  -5.078  23.222  0.00  0.00    -0.494 OA
ATOM     25  C   UNL     1       7.006  -5.496  21.883  0.00  0.00    +0.277 C 
ENDBRANCH   7  24
BRANCH  11  26
ATOM     26  O   UNL     1       7.879   0.307  23.678  0.00  0.00    -0.453 OA
BRANCH  26  27
ATOM     27  C   UNL     1       8.690   0.971  24.679  0.00  0.00    +0.340 C 
ATOM     28  O   UNL     1       8.442   2.388  24.737  0.00  0.00    -0.331 OA
ATOM     29  C   UNL     1       9.076   3.231  23.779  0.00  0.00    +0.179 C 
ATOM     30  C   UNL     1      10.580   2.938  23.650  0.00  0.00    +0.177 C 
ATOM     31  C   UNL     1      10.817   1.452  23.393  0.00  0.00    +0.180 C 
ATOM     32  C   UNL     1      10.193   0.638  24.522  0.00  0.00    +0.214 C 
BRANCH  30  33
ATOM     33  O   UNL     1      11.170   3.723  22.612  0.00  0.00    -0.386 OA
ATOM     34  H   UNL     1      12.128   3.524  22.619  0.00  0.00    +0.210 HD
ENDBRANCH  30  33
BRANCH  31  35
ATOM     35  O   UNL     1      10.292   1.055  22.112  0.00  0.00    -0.386 OA
ATOM     36  H   UNL     1      10.698   1.607  21.412  0.00  0.00    +0.210 HD
ENDBRANCH  31  35
BRANCH  32  37
ATOM     37  O   UNL     1      10.442  -0.756  24.303  0.00  0.00    -0.383 OA
ATOM     38  H   UNL     1      10.739  -1.123  25.161  0.00  0.00    +0.210 HD
ENDBRANCH  32  37
BRANCH  29  39
ATOM     39  C   UNL     1       8.868   4.691  24.240  0.00  0.00    +0.190 C 
BRANCH  39  40
ATOM     40  O   UNL     1       9.106   5.643  23.209  0.00  0.00    -0.392 OA
ATOM     41  H   UNL     1      10.045   5.564  22.944  0.00  0.00    +0.210 HD
ENDBRANCH  39  40
ENDBRANCH  29  39
ENDBRANCH  26  27
ENDBRANCH  11  26
TORSDOF 12
ENDMDL
MODEL 8
REMARK VINA RESULT:      -5.4      2.329      6.520
REMARK  Name = 
REMARK  16 active torsions:
REMARK  status: ('A' for Active; 'I' for Inactive)
REMARK    1  A    between atoms: C_1  and  O_2
REMARK    2  A    between atoms: O_2  and  C_3
REMARK    3  A    between atoms: C_4  and  O_39
REMARK    4  A    between atoms: C_6  and  C_9
REMARK    5  A    between atoms: C_10  and  O_24
REMARK    6  A    between atoms: C_17  and  O_22
REMARK    7  A    between atoms: C_19  and  O_20
REMARK    8  A    between atoms: O_20  and  C_21
REMARK    9  A    between atoms: O_22  and  C_23
REMARK   10  A    between atoms: O_24  and  C_25
REMARK   11  A    between atoms: C_27  and  O_38
REMARK   12  A    between atoms: C_28  and  O_37
REMARK   13  A    between atoms: C_30  and  O_36
REMARK   14  A    between atoms: C_32  and  C_34
REMARK   15  A    between atoms: C_34  and  O_35
REMARK   16  A    between atoms: O_39  and  C_40
REMARK                            x       y       z     vdW  Elec       q    Type
REMARK                         _______ _______ _______ _____ _____    ______ ____
ROOT
ATOM      1  C   UNL     1       5.495  -1.599  25.269  0.00  0.00    +0.181 A 
ATOM      2  O   UNL     1       4.417  -1.466  26.141  0.00  0.00    -0.451 OA
ATOM      3  C   UNL     1       4.150  -0.253  26.709  0.00  0.00    +0.147 A 
ATOM      4  C   UNL     1       3.148  -0.221  27.679  0.00  0.00    +0.092 A 
ATOM      5  C   UNL     1       2.786   0.986  28.274  0.00  0.00    +0.127 A 
ATOM      6  C   UNL     1       3.472   2.146  27.918  0.00  0.00    +0.092 A 
ATOM      7  C   UNL     1       4.476   2.124  26.938  0.00  0.00    +0.138 A 
ATOM      8  C   UNL     1       4.782   0.914  26.300  0.00  0.00    +0.109 A 
ATOM      9  C   UNL     1       5.566   0.784  25.066  0.00  0.00    +0.238 A 
ATOM     10  O   UNL     1       5.592   1.728  24.276  0.00  0.00    -0.283 OA
ATOM     11  C   UNL     1       6.166  -0.557  24.732  0.00  0.00    +0.214 A 
ENDROOT
BRANCH   1  15
ATOM     12  C   UNL     1       5.125  -5.764  24.503  0.00  0.00    +0.162 A 
ATOM     13  C   UNL     1       4.885  -4.824  23.503  0.00  0.00    +0.050 A 
ATOM     14  C   UNL     1       5.166  -3.475  23.730  0.00  0.00    +0.015 A 
ATOM     15  C   UNL     1       5.668  -3.036  24.966  0.00  0.00    +0.025 A 
ATOM     16  C   UNL     1       5.993  -3.989  25.942  0.00  0.00    +0.061 A 
ATOM     17  C   UNL     1       5.737  -5.351  25.707  0.00  0.00    +0.162 A 
BRANCH  12  19
ATOM     18  C   UNL     1       3.351  -7.374  24.572  0.00  0.00    +0.277 C 
ATOM     19  O   UNL     1       4.734  -7.079  24.437  0.00  0.00    -0.491 OA
ENDBRANCH  12  19
BRANCH  17  20
ATOM     20  O   UNL     1       5.980  -6.359  26.610  0.00  0.00    -0.491 OA
ATOM     21  C   UNL     1       6.008  -6.028  27.989  0.00  0.00    +0.277 C 
ENDBRANCH  17  20
ENDBRANCH   1  15
BRANCH   5  22
ATOM     22  O   UNL     1       1.747   0.906  29.160  0.00  0.00    -0.495 OA
ATOM     23  C   UNL     1       1.064  -0.341  29.234  0.00  0.00    +0.277 C 
ENDBRANCH   5  22
BRANCH   7  24
ATOM     24  O   UNL     1       4.974   3.366  26.649  0.00  0.00    -0.494 OA
ATOM     25  C   UNL     1       6.205   3.716  27.272  0.00  0.00    +0.277 C 
ENDBRANCH   7  24
BRANCH  11  26
ATOM     26  O   UNL     1       7.246  -0.705  23.844  0.00  0.00    -0.453 OA
BRANCH  26  27
ATOM     27  C   UNL     1       8.554  -0.358  24.364  0.00  0.00    +0.340 C 
ATOM     28  O   UNL     1       8.681   1.050  24.638  0.00  0.00    -0.331 OA
ATOM     29  C   UNL     1       8.964   1.934  23.556  0.00  0.00    +0.179 C 
ATOM     30  C   UNL     1      10.128   1.433  22.686  0.00  0.00    +0.177 C 
ATOM     31  C   UNL     1       9.884  -0.006  22.239  0.00  0.00    +0.180 C 
ATOM     32  C   UNL     1       9.696  -0.891  23.467  0.00  0.00    +0.214 C 
BRANCH  30  33
ATOM     33  O   UNL     1      10.324   2.280  21.552  0.00  0.00    -0.386 OA
ATOM     34  H   UNL     1      10.843   1.765  20.902  0.00  0.00    +0.210 HD
ENDBRANCH  30  33
BRANCH  31  35
ATOM     35  O   UNL     1       8.751  -0.092  21.355  0.00  0.00    -0.386 OA
ATOM     36  H   UNL     1       9.003  -0.601  20.556  0.00  0.00    +0.210 HD
ENDBRANCH  31  35
BRANCH  32  37
ATOM     37  O   UNL     1       9.500  -2.250  23.054  0.00  0.00    -0.383 OA
ATOM     38  H   UNL     1      10.313  -2.736  23.303  0.00  0.00    +0.210 HD
ENDBRANCH  32  37
BRANCH  29  39
ATOM     39  C   UNL     1       9.322   3.307  24.165  0.00  0.00    +0.190 C 
BRANCH  39  40
ATOM     40  O   UNL     1       9.310   4.363  23.210  0.00  0.00    -0.392 OA
ATOM     41  H   UNL     1      10.091   4.928  23.384  0.00  0.00    +0.210 HD
ENDBRANCH  39  40
ENDBRANCH  29  39
ENDBRANCH  26  27
ENDBRANCH  11  26
TORSDOF 12
ENDMDL
MODEL 9
REMARK VINA RESULT:      -5.4      2.662      7.573
REMARK  Name = 
REMARK  16 active torsions:
REMARK  status: ('A' for Active; 'I' for Inactive)
REMARK    1  A    between atoms: C_1  and  O_2
REMARK    2  A    between atoms: O_2  and  C_3
REMARK    3  A    between atoms: C_4  and  O_39
REMARK    4  A    between atoms: C_6  and  C_9
REMARK    5  A    between atoms: C_10  and  O_24
REMARK    6  A    between atoms: C_17  and  O_22
REMARK    7  A    between atoms: C_19  and  O_20
REMARK    8  A    between atoms: O_20  and  C_21
REMARK    9  A    between atoms: O_22  and  C_23
REMARK   10  A    between atoms: O_24  and  C_25
REMARK   11  A    between atoms: C_27  and  O_38
REMARK   12  A    between atoms: C_28  and  O_37
REMARK   13  A    between atoms: C_30  and  O_36
REMARK   14  A    between atoms: C_32  and  C_34
REMARK   15  A    between atoms: C_34  and  O_35
REMARK   16  A    between atoms: O_39  and  C_40
REMARK                            x       y       z     vdW  Elec       q    Type
REMARK                         _______ _______ _______ _____ _____    ______ ____
ROOT
ATOM      1  C   UNL     1       7.127  -0.132  23.935  0.00  0.00    +0.181 A 
ATOM      2  O   UNL     1       7.054  -1.244  23.099  0.00  0.00    -0.451 OA
ATOM      3  C   UNL     1       7.312  -2.487  23.601  0.00  0.00    +0.147 A 
ATOM      4  C   UNL     1       7.361  -3.536  22.683  0.00  0.00    +0.092 A 
ATOM      5  C   UNL     1       7.574  -4.842  23.120  0.00  0.00    +0.127 A 
ATOM      6  C   UNL     1       7.785  -5.073  24.479  0.00  0.00    +0.092 A 
ATOM      7  C   UNL     1       7.731  -4.024  25.410  0.00  0.00    +0.138 A 
ATOM      8  C   UNL     1       7.446  -2.726  24.962  0.00  0.00    +0.109 A 
ATOM      9  C   UNL     1       7.055  -1.602  25.822  0.00  0.00    +0.238 A 
ATOM     10  O   UNL     1       6.498  -1.840  26.893  0.00  0.00    -0.283 OA
ATOM     11  C   UNL     1       7.192  -0.202  25.283  0.00  0.00    +0.214 A 
ENDROOT
BRANCH   1  15
ATOM     12  C   UNL     1       7.116   3.759  22.225  0.00  0.00    +0.162 A 
ATOM     13  C   UNL     1       8.262   2.966  22.201  0.00  0.00    +0.050 A 
ATOM     14  C   UNL     1       8.199   1.636  22.623  0.00  0.00    +0.015 A 
ATOM     15  C   UNL     1       7.000   1.082  23.100  0.00  0.00    +0.025 A 
ATOM     16  C   UNL     1       5.828   1.850  23.043  0.00  0.00    +0.061 A 
ATOM     17  C   UNL     1       5.882   3.181  22.592  0.00  0.00    +0.162 A 
BRANCH  12  19
ATOM     18  C   UNL     1       7.912   5.942  22.813  0.00  0.00    +0.277 C 
ATOM     19  O   UNL     1       7.109   5.112  21.986  0.00  0.00    -0.491 OA
ENDBRANCH  12  19
BRANCH  17  20
ATOM     20  O   UNL     1       4.802   4.030  22.535  0.00  0.00    -0.491 OA
ATOM     21  C   UNL     1       3.565   3.509  22.078  0.00  0.00    +0.277 C 
ENDBRANCH  17  20
ENDBRANCH   1  15
BRANCH   5  22
ATOM     22  O   UNL     1       7.535  -5.795  22.141  0.00  0.00    -0.495 OA
ATOM     23  C   UNL     1       6.416  -5.761  21.260  0.00  0.00    +0.277 C 
ENDBRANCH   5  22
BRANCH   7  24
ATOM     24  O   UNL     1       7.865  -4.445  26.705  0.00  0.00    -0.494 OA
ATOM     25  C   UNL     1       6.882  -5.361  27.178  0.00  0.00    +0.277 C 
ENDBRANCH   7  24
BRANCH  11  26
ATOM     26  O   UNL     1       7.255   0.929  26.116  0.00  0.00    -0.453 OA
BRANCH  26  27
ATOM     27  C   UNL     1       6.155   1.101  27.044  0.00  0.00    +0.340 C 
ATOM     28  O   UNL     1       5.008   1.718  26.430  0.00  0.00    -0.331 OA
ATOM     29  C   UNL     1       4.997   3.136  26.277  0.00  0.00    +0.179 C 
ATOM     30  C   UNL     1       5.389   3.863  27.573  0.00  0.00    +0.177 C 
ATOM     31  C   UNL     1       6.714   3.329  28.109  0.00  0.00    +0.180 C 
ATOM     32  C   UNL     1       6.595   1.825  28.339  0.00  0.00    +0.214 C 
BRANCH  30  33
ATOM     33  O   UNL     1       5.470   5.276  27.365  0.00  0.00    -0.386 OA
ATOM     34  H   UNL     1       4.746   5.512  26.751  0.00  0.00    +0.210 HD
ENDBRANCH  30  33
BRANCH  31  35
ATOM     35  O   UNL     1       7.801   3.636  27.216  0.00  0.00    -0.386 OA
ATOM     36  H   UNL     1       8.171   2.802  26.860  0.00  0.00    +0.210 HD
ENDBRANCH  31  35
BRANCH  32  37
ATOM     37  O   UNL     1       7.826   1.322  28.875  0.00  0.00    -0.383 OA
ATOM     38  H   UNL     1       7.674   1.180  29.831  0.00  0.00    +0.210 HD
ENDBRANCH  32  37
BRANCH  29  39
ATOM     39  C   UNL     1       3.565   3.543  25.864  0.00  0.00    +0.190 C 
BRANCH  39  40
ATOM     40  O   UNL     1       3.505   4.819  25.237  0.00  0.00    -0.392 OA
ATOM     41  H   UNL     1       4.407   5.039  24.926  0.00  0.00    +0.210 HD
ENDBRANCH  39  40
ENDBRANCH  29  39
ENDBRANCH  26  27
ENDBRANCH  11  26
TORSDOF 12
ENDMDL
