MODEL 1
REMARK VINA RESULT:      -7.3      0.000      0.000
REMARK  Name = 
REMARK  14 active torsions:
REMARK  status: ('A' for Active; 'I' for Inactive)
REMARK    1  A    between atoms: C_4  and  C_7
REMARK    2  A    between atoms: C_7  and  O_9
REMARK    3  A    between atoms: O_9  and  C_10
REMARK    4  A    between atoms: C_10  and  C_11
REMARK    5  A    between atoms: C_13  and  O_46
REMARK    6  A    between atoms: C_15  and  O_45
REMARK    7  A    between atoms: C_17  and  O_44
REMARK    8  A    between atoms: C_19  and  O_22
REMARK    9  A    between atoms: O_22  and  C_23
REMARK   10  A    between atoms: C_24  and  C_36
REMARK   11  A    between atoms: C_28  and  O_35
REMARK   12  A    between atoms: C_30  and  O_34
REMARK   13  A    between atoms: C_38  and  O_43
REMARK   14  A    between atoms: C_39  and  O_42
REMARK                            x       y       z     vdW  Elec       q    Type
REMARK                         _______ _______ _______ _____ _____    ______ ____
ROOT
ATOM      1  C   UNL     1       6.468  -0.860  26.558  0.00  0.00    +0.214 A 
ATOM      2  C   UNL     1       6.735   0.408  27.305  0.00  0.00    +0.238 A 
ATOM      3  O   UNL     1       7.303   0.422  28.389  0.00  0.00    -0.283 OA
ATOM      4  C   UNL     1       6.227   1.655  26.713  0.00  0.00    +0.109 A 
ATOM      5  C   UNL     1       5.350   1.555  25.636  0.00  0.00    +0.147 A 
ATOM      6  C   UNL     1       4.866   2.715  25.021  0.00  0.00    +0.092 A 
ATOM      7  C   UNL     1       5.250   3.961  25.513  0.00  0.00    +0.124 A 
ATOM      8  C   UNL     1       6.101   4.073  26.606  0.00  0.00    +0.091 A 
ATOM      9  O   UNL     1       4.903   0.348  25.151  0.00  0.00    -0.451 OA
ATOM     10  C   UNL     1       6.590   2.919  27.207  0.00  0.00    +0.135 A 
ATOM     11  C   UNL     1       5.512  -0.821  25.600  0.00  0.00    +0.181 A 
ENDROOT
BRANCH  11  12
ATOM     12  C   UNL     1       5.005  -2.059  24.924  0.00  0.00    +0.025 A 
ATOM     13  C   UNL     1       3.993  -2.851  25.499  0.00  0.00    +0.015 A 
ATOM     14  C   UNL     1       3.504  -3.992  24.841  0.00  0.00    +0.050 A 
ATOM     15  C   UNL     1       4.020  -4.344  23.604  0.00  0.00    +0.158 A 
ATOM     16  C   UNL     1       5.041  -3.598  23.034  0.00  0.00    +0.159 A 
ATOM     17  C   UNL     1       5.553  -2.486  23.695  0.00  0.00    +0.060 A 
BRANCH  15  18
ATOM     18  O   UNL     1       3.514  -5.426  22.943  0.00  0.00    -0.503 OA
ATOM     19  H   UNL     1       3.085  -5.961  23.642  0.00  0.00    +0.292 HD
ENDBRANCH  15  18
BRANCH  16  20
ATOM     20  O   UNL     1       5.512  -3.987  21.808  0.00  0.00    -0.503 OA
ATOM     21  H   UNL     1       5.455  -4.959  21.761  0.00  0.00    +0.292 HD
ENDBRANCH  16  20
ENDBRANCH  11  12
BRANCH   7  22
ATOM     22  O   UNL     1       4.813   5.123  24.952  0.00  0.00    -0.507 OA
ATOM     23  H   UNL     1       4.923   5.076  23.988  0.00  0.00    +0.292 HD
ENDBRANCH   7  22
BRANCH  10  24
ATOM     24  O   UNL     1       7.440   3.044  28.270  0.00  0.00    -0.506 OA
ATOM     25  H   UNL     1       8.302   3.384  27.981  0.00  0.00    +0.292 HD
ENDBRANCH  10  24
BRANCH   1  26
ATOM     26  O   UNL     1       7.146  -2.039  26.808  0.00  0.00    -0.453 OA
BRANCH  26  29
ATOM     27  C   UNL     1       9.858  -1.802  24.390  0.00  0.00    +0.191 C 
ATOM     28  O   UNL     1       8.630  -1.484  25.071  0.00  0.00    -0.330 OA
ATOM     29  C   UNL     1       8.416  -2.332  26.225  0.00  0.00    +0.340 C 
ATOM     30  C   UNL     1       8.381  -3.840  25.864  0.00  0.00    +0.214 C 
ATOM     31  C   UNL     1       9.599  -4.183  25.002  0.00  0.00    +0.180 C 
ATOM     32  C   UNL     1       9.699  -3.218  23.821  0.00  0.00    +0.178 C 
BRANCH  30  33
ATOM     33  O   UNL     1       8.380  -4.641  27.065  0.00  0.00    -0.383 OA
ATOM     34  H   UNL     1       8.672  -4.061  27.793  0.00  0.00    +0.210 HD
ENDBRANCH  30  33
BRANCH  31  35
ATOM     35  O   UNL     1       9.517  -5.552  24.590  0.00  0.00    -0.386 OA
ATOM     36  H   UNL     1       8.815  -5.979  25.113  0.00  0.00    +0.210 HD
ENDBRANCH  31  35
BRANCH  32  37
ATOM     37  O   UNL     1       8.510  -3.292  23.019  0.00  0.00    -0.386 OA
ATOM     38  H   UNL     1       7.808  -2.784  23.480  0.00  0.00    +0.210 HD
ENDBRANCH  32  37
BRANCH  27  39
ATOM     39  C   UNL     1      10.186  -0.816  23.252  0.00  0.00    +0.266 C 
BRANCH  39  40
ATOM     40  O   UNL     1       9.249   0.294  23.275  0.00  0.00    -0.458 OA
BRANCH  40  41
ATOM     41  C   UNL     1       9.752   1.476  23.714  0.00  0.00    +0.339 C 
ATOM     42  O   UNL     1      10.846   1.616  24.237  0.00  0.00    -0.245 OA
BRANCH  41  46
ATOM     43  C   UNL     1       7.397   4.935  22.739  0.00  0.00    +0.000 A 
ATOM     44  C   UNL     1       7.104   3.722  22.118  0.00  0.00    +0.001 A 
ATOM     45  C   UNL     1       7.833   2.569  22.440  0.00  0.00    +0.015 A 
ATOM     46  C   UNL     1       8.866   2.632  23.385  0.00  0.00    +0.059 A 
ATOM     47  C   UNL     1       9.142   3.861  24.017  0.00  0.00    +0.015 A 
ATOM     48  C   UNL     1       8.407   5.010  23.696  0.00  0.00    +0.001 A 
ENDBRANCH  41  46
ENDBRANCH  40  41
ENDBRANCH  39  40
ENDBRANCH  27  39
ENDBRANCH  26  29
ENDBRANCH   1  26
TORSDOF 14
ENDMDL
MODEL 2
REMARK VINA RESULT:      -7.2      1.988      7.733
REMARK  Name = 
REMARK  14 active torsions:
REMARK  status: ('A' for Active; 'I' for Inactive)
REMARK    1  A    between atoms: C_4  and  C_7
REMARK    2  A    between atoms: C_7  and  O_9
REMARK    3  A    between atoms: O_9  and  C_10
REMARK    4  A    between atoms: C_10  and  C_11
REMARK    5  A    between atoms: C_13  and  O_46
REMARK    6  A    between atoms: C_15  and  O_45
REMARK    7  A    between atoms: C_17  and  O_44
REMARK    8  A    between atoms: C_19  and  O_22
REMARK    9  A    between atoms: O_22  and  C_23
REMARK   10  A    between atoms: C_24  and  C_36
REMARK   11  A    between atoms: C_28  and  O_35
REMARK   12  A    between atoms: C_30  and  O_34
REMARK   13  A    between atoms: C_38  and  O_43
REMARK   14  A    between atoms: C_39  and  O_42
REMARK                            x       y       z     vdW  Elec       q    Type
REMARK                         _______ _______ _______ _____ _____    ______ ____
ROOT
ATOM      1  C   UNL     1       8.223  -1.032  24.877  0.00  0.00    +0.214 A 
ATOM      2  C   UNL     1       8.393  -2.503  25.088  0.00  0.00    +0.238 A 
ATOM      3  O   UNL     1       8.997  -2.961  26.049  0.00  0.00    -0.283 OA
ATOM      4  C   UNL     1       7.857  -3.397  24.050  0.00  0.00    +0.109 A 
ATOM      5  C   UNL     1       7.437  -2.824  22.851  0.00  0.00    +0.147 A 
ATOM      6  C   UNL     1       6.891  -3.631  21.848  0.00  0.00    +0.092 A 
ATOM      7  C   UNL     1       6.796  -5.007  22.052  0.00  0.00    +0.124 A 
ATOM      8  C   UNL     1       7.239  -5.592  23.232  0.00  0.00    +0.091 A 
ATOM      9  O   UNL     1       7.560  -1.480  22.586  0.00  0.00    -0.451 OA
ATOM     10  C   UNL     1       7.770  -4.786  24.232  0.00  0.00    +0.135 A 
ATOM     11  C   UNL     1       7.908  -0.622  23.625  0.00  0.00    +0.181 A 
ENDROOT
BRANCH  11  12
ATOM     12  C   UNL     1       7.912   0.824  23.232  0.00  0.00    +0.025 A 
ATOM     13  C   UNL     1       6.745   1.469  22.781  0.00  0.00    +0.015 A 
ATOM     14  C   UNL     1       6.753   2.833  22.445  0.00  0.00    +0.050 A 
ATOM     15  C   UNL     1       7.927   3.560  22.563  0.00  0.00    +0.158 A 
ATOM     16  C   UNL     1       9.098   2.939  22.972  0.00  0.00    +0.159 A 
ATOM     17  C   UNL     1       9.103   1.581  23.275  0.00  0.00    +0.060 A 
BRANCH  15  18
ATOM     18  O   UNL     1       7.925   4.896  22.280  0.00  0.00    -0.503 OA
ATOM     19  H   UNL     1       8.856   5.100  22.054  0.00  0.00    +0.292 HD
ENDBRANCH  15  18
BRANCH  16  20
ATOM     20  O   UNL     1      10.228   3.705  23.076  0.00  0.00    -0.503 OA
ATOM     21  H   UNL     1       9.952   4.625  23.237  0.00  0.00    +0.292 HD
ENDBRANCH  16  20
ENDBRANCH  11  12
BRANCH   7  22
ATOM     22  O   UNL     1       6.270  -5.841  21.111  0.00  0.00    -0.507 OA
ATOM     23  H   UNL     1       6.719  -6.701  21.157  0.00  0.00    +0.292 HD
ENDBRANCH   7  22
BRANCH  10  24
ATOM     24  O   UNL     1       8.185  -5.374  25.394  0.00  0.00    -0.506 OA
ATOM     25  H   UNL     1       8.281  -4.712  26.098  0.00  0.00    +0.292 HD
ENDBRANCH  10  24
BRANCH   1  26
ATOM     26  O   UNL     1       8.375  -0.103  25.889  0.00  0.00    -0.453 OA
BRANCH  26  29
ATOM     27  C   UNL     1       5.367  -0.781  27.827  0.00  0.00    +0.191 C 
ATOM     28  O   UNL     1       6.453  -0.997  26.905  0.00  0.00    -0.330 OA
ATOM     29  C   UNL     1       7.373   0.121  26.882  0.00  0.00    +0.340 C 
ATOM     30  C   UNL     1       6.685   1.457  26.498  0.00  0.00    +0.214 C 
ATOM     31  C   UNL     1       5.430   1.645  27.355  0.00  0.00    +0.180 C 
ATOM     32  C   UNL     1       4.549   0.398  27.283  0.00  0.00    +0.178 C 
BRANCH  30  33
ATOM     33  O   UNL     1       7.593   2.562  26.697  0.00  0.00    -0.383 OA
ATOM     34  H   UNL     1       7.068   3.297  27.065  0.00  0.00    +0.210 HD
ENDBRANCH  30  33
BRANCH  31  35
ATOM     35  O   UNL     1       4.744   2.830  26.936  0.00  0.00    -0.386 OA
ATOM     36  H   UNL     1       4.199   3.138  27.683  0.00  0.00    +0.210 HD
ENDBRANCH  31  35
BRANCH  32  37
ATOM     37  O   UNL     1       4.164   0.142  25.923  0.00  0.00    -0.386 OA
ATOM     38  H   UNL     1       3.574   0.873  25.639  0.00  0.00    +0.210 HD
ENDBRANCH  32  37
BRANCH  27  39
ATOM     39  C   UNL     1       4.460  -2.015  27.985  0.00  0.00    +0.266 C 
BRANCH  39  40
ATOM     40  O   UNL     1       4.342  -2.708  26.714  0.00  0.00    -0.458 OA
BRANCH  40  41
ATOM     41  C   UNL     1       5.017  -3.883  26.622  0.00  0.00    +0.339 C 
ATOM     42  O   UNL     1       5.929  -4.222  27.361  0.00  0.00    -0.245 OA
BRANCH  41  46
ATOM     43  C   UNL     1       3.493  -6.360  23.459  0.00  0.00    +0.000 A 
ATOM     44  C   UNL     1       4.043  -6.967  24.587  0.00  0.00    +0.001 A 
ATOM     45  C   UNL     1       4.518  -6.187  25.650  0.00  0.00    +0.015 A 
ATOM     46  C   UNL     1       4.449  -4.789  25.581  0.00  0.00    +0.059 A 
ATOM     47  C   UNL     1       3.878  -4.187  24.441  0.00  0.00    +0.015 A 
ATOM     48  C   UNL     1       3.399  -4.972  23.383  0.00  0.00    +0.001 A 
ENDBRANCH  41  46
ENDBRANCH  40  41
ENDBRANCH  39  40
ENDBRANCH  27  39
ENDBRANCH  26  29
ENDBRANCH   1  26
TORSDOF 14
ENDMDL
MODEL 3
REMARK VINA RESULT:      -7.0      2.799      6.620
REMARK  Name = 
REMARK  14 active torsions:
REMARK  status: ('A' for Active; 'I' for Inactive)
REMARK    1  A    between atoms: C_4  and  C_7
REMARK    2  A    between atoms: C_7  and  O_9
REMARK    3  A    between atoms: O_9  and  C_10
REMARK    4  A    between atoms: C_10  and  C_11
REMARK    5  A    between atoms: C_13  and  O_46
REMARK    6  A    between atoms: C_15  and  O_45
REMARK    7  A    between atoms: C_17  and  O_44
REMARK    8  A    between atoms: C_19  and  O_22
REMARK    9  A    between atoms: O_22  and  C_23
REMARK   10  A    between atoms: C_24  and  C_36
REMARK   11  A    between atoms: C_28  and  O_35
REMARK   12  A    between atoms: C_30  and  O_34
REMARK   13  A    between atoms: C_38  and  O_43
REMARK   14  A    between atoms: C_39  and  O_42
REMARK                            x       y       z     vdW  Elec       q    Type
REMARK                         _______ _______ _______ _____ _____    ______ ____
ROOT
ATOM      1  C   UNL     1       7.200  -2.286  26.186  0.00  0.00    +0.214 A 
ATOM      2  C   UNL     1       8.441  -2.500  25.380  0.00  0.00    +0.238 A 
ATOM      3  O   UNL     1       9.270  -3.354  25.666  0.00  0.00    -0.283 OA
ATOM      4  C   UNL     1       8.669  -1.591  24.246  0.00  0.00    +0.109 A 
ATOM      5  C   UNL     1       7.851  -0.469  24.136  0.00  0.00    +0.147 A 
ATOM      6  C   UNL     1       8.011   0.406  23.057  0.00  0.00    +0.092 A 
ATOM      7  C   UNL     1       9.008   0.157  22.114  0.00  0.00    +0.124 A 
ATOM      8  C   UNL     1       9.849  -0.943  22.231  0.00  0.00    +0.091 A 
ATOM      9  O   UNL     1       6.890  -0.155  25.069  0.00  0.00    -0.451 OA
ATOM     10  C   UNL     1       9.679  -1.818  23.297  0.00  0.00    +0.135 A 
ATOM     11  C   UNL     1       6.567  -1.098  26.041  0.00  0.00    +0.181 A 
ENDROOT
BRANCH  11  12
ATOM     12  C   UNL     1       5.440  -0.676  26.934  0.00  0.00    +0.025 A 
ATOM     13  C   UNL     1       5.675  -0.090  28.192  0.00  0.00    +0.015 A 
ATOM     14  C   UNL     1       4.611   0.330  29.007  0.00  0.00    +0.050 A 
ATOM     15  C   UNL     1       3.306   0.170  28.567  0.00  0.00    +0.158 A 
ATOM     16  C   UNL     1       3.049  -0.436  27.346  0.00  0.00    +0.159 A 
ATOM     17  C   UNL     1       4.098  -0.884  26.549  0.00  0.00    +0.060 A 
BRANCH  15  18
ATOM     18  O   UNL     1       2.273   0.619  29.337  0.00  0.00    -0.503 OA
ATOM     19  H   UNL     1       1.801   1.259  28.766  0.00  0.00    +0.292 HD
ENDBRANCH  15  18
BRANCH  16  20
ATOM     20  O   UNL     1       1.742  -0.566  26.957  0.00  0.00    -0.503 OA
ATOM     21  H   UNL     1       1.508  -1.511  27.006  0.00  0.00    +0.292 HD
ENDBRANCH  16  20
ENDBRANCH  11  12
BRANCH   7  22
ATOM     22  O   UNL     1       9.206   0.973  21.042  0.00  0.00    -0.507 OA
ATOM     23  H   UNL     1      10.127   1.280  21.038  0.00  0.00    +0.292 HD
ENDBRANCH   7  22
BRANCH  10  24
ATOM     24  O   UNL     1      10.503  -2.905  23.389  0.00  0.00    -0.506 OA
ATOM     25  H   UNL     1      10.005  -3.725  23.240  0.00  0.00    +0.292 HD
ENDBRANCH  10  24
BRANCH   1  26
ATOM     26  O   UNL     1       6.693  -3.236  27.055  0.00  0.00    -0.453 OA
BRANCH  26  29
ATOM     27  C   UNL     1       3.964  -5.365  25.924  0.00  0.00    +0.191 C 
ATOM     28  O   UNL     1       4.671  -4.169  26.302  0.00  0.00    -0.330 OA
ATOM     29  C   UNL     1       6.063  -4.433  26.599  0.00  0.00    +0.340 C 
ATOM     30  C   UNL     1       6.247  -5.471  27.736  0.00  0.00    +0.214 C 
ATOM     31  C   UNL     1       5.384  -6.701  27.445  0.00  0.00    +0.180 C 
ATOM     32  C   UNL     1       3.943  -6.278  27.157  0.00  0.00    +0.178 C 
BRANCH  30  33
ATOM     33  O   UNL     1       7.636  -5.853  27.843  0.00  0.00    -0.383 OA
ATOM     34  H   UNL     1       7.695  -6.785  27.563  0.00  0.00    +0.210 HD
ENDBRANCH  30  33
BRANCH  31  35
ATOM     35  O   UNL     1       5.480  -7.618  28.541  0.00  0.00    -0.386 OA
ATOM     36  H   UNL     1       6.238  -7.347  29.089  0.00  0.00    +0.210 HD
ENDBRANCH  31  35
BRANCH  32  37
ATOM     37  O   UNL     1       3.401  -5.570  28.282  0.00  0.00    -0.386 OA
ATOM     38  H   UNL     1       3.403  -4.613  28.059  0.00  0.00    +0.210 HD
ENDBRANCH  32  37
BRANCH  27  39
ATOM     39  C   UNL     1       2.523  -5.089  25.455  0.00  0.00    +0.266 C 
BRANCH  39  40
ATOM     40  O   UNL     1       2.534  -4.589  24.091  0.00  0.00    -0.458 OA
BRANCH  40  41
ATOM     41  C   UNL     1       3.135  -5.393  23.177  0.00  0.00    +0.339 C 
ATOM     42  O   UNL     1       2.587  -6.316  22.594  0.00  0.00    -0.245 OA
BRANCH  41  46
ATOM     43  C   UNL     1       7.135  -4.279  22.072  0.00  0.00    +0.000 A 
ATOM     44  C   UNL     1       6.234  -3.281  22.440  0.00  0.00    +0.001 A 
ATOM     45  C   UNL     1       4.932  -3.616  22.837  0.00  0.00    +0.015 A 
ATOM     46  C   UNL     1       4.528  -4.957  22.860  0.00  0.00    +0.059 A 
ATOM     47  C   UNL     1       5.453  -5.958  22.500  0.00  0.00    +0.015 A 
ATOM     48  C   UNL     1       6.756  -5.619  22.109  0.00  0.00    +0.001 A 
ENDBRANCH  41  46
ENDBRANCH  40  41
ENDBRANCH  39  40
ENDBRANCH  27  39
ENDBRANCH  26  29
ENDBRANCH   1  26
TORSDOF 14
ENDMDL
MODEL 4
REMARK VINA RESULT:      -6.8      2.252      6.647
REMARK  Name = 
REMARK  14 active torsions:
REMARK  status: ('A' for Active; 'I' for Inactive)
REMARK    1  A    between atoms: C_4  and  C_7
REMARK    2  A    between atoms: C_7  and  O_9
REMARK    3  A    between atoms: O_9  and  C_10
REMARK    4  A    between atoms: C_10  and  C_11
REMARK    5  A    between atoms: C_13  and  O_46
REMARK    6  A    between atoms: C_15  and  O_45
REMARK    7  A    between atoms: C_17  and  O_44
REMARK    8  A    between atoms: C_19  and  O_22
REMARK    9  A    between atoms: O_22  and  C_23
REMARK   10  A    between atoms: C_24  and  C_36
REMARK   11  A    between atoms: C_28  and  O_35
REMARK   12  A    between atoms: C_30  and  O_34
REMARK   13  A    between atoms: C_38  and  O_43
REMARK   14  A    between atoms: C_39  and  O_42
REMARK                            x       y       z     vdW  Elec       q    Type
REMARK                         _______ _______ _______ _____ _____    ______ ____
ROOT
ATOM      1  C   UNL     1       7.558  -1.746  24.896  0.00  0.00    +0.214 A 
ATOM      2  C   UNL     1       6.984  -3.061  25.318  0.00  0.00    +0.238 A 
ATOM      3  O   UNL     1       6.919  -3.402  26.492  0.00  0.00    -0.283 OA
ATOM      4  C   UNL     1       6.550  -3.977  24.252  0.00  0.00    +0.109 A 
ATOM      5  C   UNL     1       6.903  -3.664  22.941  0.00  0.00    +0.147 A 
ATOM      6  C   UNL     1       6.486  -4.489  21.891  0.00  0.00    +0.092 A 
ATOM      7  C   UNL     1       5.738  -5.631  22.174  0.00  0.00    +0.124 A 
ATOM      8  C   UNL     1       5.404  -5.968  23.480  0.00  0.00    +0.091 A 
ATOM      9  O   UNL     1       7.684  -2.578  22.620  0.00  0.00    -0.451 OA
ATOM     10  C   UNL     1       5.810  -5.140  24.520  0.00  0.00    +0.135 A 
ATOM     11  C   UNL     1       7.948  -1.630  23.605  0.00  0.00    +0.181 A 
ENDROOT
BRANCH  11  12
ATOM     12  C   UNL     1       8.723  -0.448  23.106  0.00  0.00    +0.025 A 
ATOM     13  C   UNL     1       8.371   0.216  21.916  0.00  0.00    +0.015 A 
ATOM     14  C   UNL     1       9.085   1.342  21.474  0.00  0.00    +0.050 A 
ATOM     15  C   UNL     1      10.152   1.813  22.223  0.00  0.00    +0.158 A 
ATOM     16  C   UNL     1      10.539   1.156  23.382  0.00  0.00    +0.159 A 
ATOM     17  C   UNL     1       9.856   0.021  23.807  0.00  0.00    +0.060 A 
BRANCH  15  18
ATOM     18  O   UNL     1      10.818   2.934  21.820  0.00  0.00    -0.503 OA
ATOM     19  H   UNL     1      10.462   3.123  20.927  0.00  0.00    +0.292 HD
ENDBRANCH  15  18
BRANCH  16  20
ATOM     20  O   UNL     1      11.597   1.666  24.086  0.00  0.00    -0.503 OA
ATOM     21  H   UNL     1      11.681   2.609  23.857  0.00  0.00    +0.292 HD
ENDBRANCH  16  20
ENDBRANCH  11  12
BRANCH   7  22
ATOM     22  O   UNL     1       5.301  -6.468  21.191  0.00  0.00    -0.507 OA
ATOM     23  H   UNL     1       4.352  -6.324  21.045  0.00  0.00    +0.292 HD
ENDBRANCH   7  22
BRANCH  10  24
ATOM     24  O   UNL     1       5.460  -5.475  25.798  0.00  0.00    -0.506 OA
ATOM     25  H   UNL     1       4.601  -5.087  26.031  0.00  0.00    +0.292 HD
ENDBRANCH  10  24
BRANCH   1  26
ATOM     26  O   UNL     1       7.702  -0.675  25.760  0.00  0.00    -0.453 OA
BRANCH  26  29
ATOM     27  C   UNL     1       6.227   2.654  25.709  0.00  0.00    +0.191 C 
ATOM     28  O   UNL     1       7.180   1.600  25.477  0.00  0.00    -0.330 OA
ATOM     29  C   UNL     1       6.687   0.315  25.928  0.00  0.00    +0.340 C 
ATOM     30  C   UNL     1       6.330   0.307  27.437  0.00  0.00    +0.214 C 
ATOM     31  C   UNL     1       5.439   1.511  27.754  0.00  0.00    +0.180 C 
ATOM     32  C   UNL     1       6.081   2.795  27.230  0.00  0.00    +0.178 C 
BRANCH  30  33
ATOM     33  O   UNL     1       5.650  -0.920  27.782  0.00  0.00    -0.383 OA
ATOM     34  H   UNL     1       5.900  -1.581  27.110  0.00  0.00    +0.210 HD
ENDBRANCH  30  33
BRANCH  31  35
ATOM     35  O   UNL     1       5.187   1.556  29.163  0.00  0.00    -0.386 OA
ATOM     36  H   UNL     1       4.611   0.802  29.386  0.00  0.00    +0.210 HD
ENDBRANCH  31  35
BRANCH  32  37
ATOM     37  O   UNL     1       7.372   2.984  27.831  0.00  0.00    -0.386 OA
ATOM     38  H   UNL     1       8.049   2.789  27.147  0.00  0.00    +0.210 HD
ENDBRANCH  32  37
BRANCH  27  39
ATOM     39  C   UNL     1       6.662   4.001  25.100  0.00  0.00    +0.266 C 
BRANCH  39  40
ATOM     40  O   UNL     1       8.097   4.168  25.245  0.00  0.00    -0.458 OA
BRANCH  40  41
ATOM     41  C   UNL     1       8.738   4.699  24.171  0.00  0.00    +0.339 C 
ATOM     42  O   UNL     1       8.372   4.577  23.013  0.00  0.00    -0.245 OA
BRANCH  41  46
ATOM     43  C   UNL     1      12.037   7.098  25.521  0.00  0.00    +0.000 A 
ATOM     44  C   UNL     1      12.182   6.344  24.357  0.00  0.00    +0.001 A 
ATOM     45  C   UNL     1      11.113   5.577  23.874  0.00  0.00    +0.015 A 
ATOM     46  C   UNL     1       9.893   5.560  24.563  0.00  0.00    +0.059 A 
ATOM     47  C   UNL     1       9.754   6.338  25.730  0.00  0.00    +0.015 A 
ATOM     48  C   UNL     1      10.823   7.108  26.206  0.00  0.00    +0.001 A 
ENDBRANCH  41  46
ENDBRANCH  40  41
ENDBRANCH  39  40
ENDBRANCH  27  39
ENDBRANCH  26  29
ENDBRANCH   1  26
TORSDOF 14
ENDMDL
MODEL 5
REMARK VINA RESULT:      -6.8      2.536      4.578
REMARK  Name = 
REMARK  14 active torsions:
REMARK  status: ('A' for Active; 'I' for Inactive)
REMARK    1  A    between atoms: C_4  and  C_7
REMARK    2  A    between atoms: C_7  and  O_9
REMARK    3  A    between atoms: O_9  and  C_10
REMARK    4  A    between atoms: C_10  and  C_11
REMARK    5  A    between atoms: C_13  and  O_46
REMARK    6  A    between atoms: C_15  and  O_45
REMARK    7  A    between atoms: C_17  and  O_44
REMARK    8  A    between atoms: C_19  and  O_22
REMARK    9  A    between atoms: O_22  and  C_23
REMARK   10  A    between atoms: C_24  and  C_36
REMARK   11  A    between atoms: C_28  and  O_35
REMARK   12  A    between atoms: C_30  and  O_34
REMARK   13  A    between atoms: C_38  and  O_43
REMARK   14  A    between atoms: C_39  and  O_42
REMARK                            x       y       z     vdW  Elec       q    Type
REMARK                         _______ _______ _______ _____ _____    ______ ____
ROOT
ATOM      1  C   UNL     1       4.652  -3.086  25.647  0.00  0.00    +0.214 A 
ATOM      2  C   UNL     1       5.221  -1.836  25.055  0.00  0.00    +0.238 A 
ATOM      3  O   UNL     1       5.701  -1.804  23.929  0.00  0.00    -0.283 OA
ATOM      4  C   UNL     1       5.243  -0.638  25.908  0.00  0.00    +0.109 A 
ATOM      5  C   UNL     1       4.950  -0.797  27.261  0.00  0.00    +0.147 A 
ATOM      6  C   UNL     1       4.928   0.319  28.104  0.00  0.00    +0.092 A 
ATOM      7  C   UNL     1       5.225   1.577  27.583  0.00  0.00    +0.124 A 
ATOM      8  C   UNL     1       5.547   1.743  26.241  0.00  0.00    +0.091 A 
ATOM      9  O   UNL     1       4.703  -2.025  27.829  0.00  0.00    -0.451 OA
ATOM     10  C   UNL     1       5.556   0.634  25.403  0.00  0.00    +0.135 A 
ATOM     11  C   UNL     1       4.519  -3.124  26.994  0.00  0.00    +0.181 A 
ENDROOT
BRANCH  11  12
ATOM     12  C   UNL     1       4.159  -4.380  27.727  0.00  0.00    +0.025 A 
ATOM     13  C   UNL     1       2.886  -4.561  28.302  0.00  0.00    +0.015 A 
ATOM     14  C   UNL     1       2.550  -5.755  28.960  0.00  0.00    +0.050 A 
ATOM     15  C   UNL     1       3.483  -6.777  29.044  0.00  0.00    +0.158 A 
ATOM     16  C   UNL     1       4.754  -6.610  28.515  0.00  0.00    +0.159 A 
ATOM     17  C   UNL     1       5.104  -5.417  27.891  0.00  0.00    +0.060 A 
BRANCH  15  18
ATOM     18  O   UNL     1       3.142  -7.956  29.643  0.00  0.00    -0.503 OA
ATOM     19  H   UNL     1       3.917  -8.182  30.197  0.00  0.00    +0.292 HD
ENDBRANCH  15  18
BRANCH  16  20
ATOM     20  O   UNL     1       5.635  -7.652  28.621  0.00  0.00    -0.503 OA
ATOM     21  H   UNL     1       6.375  -7.362  29.186  0.00  0.00    +0.292 HD
ENDBRANCH  16  20
ENDBRANCH  11  12
BRANCH   7  22
ATOM     22  O   UNL     1       5.215   2.698  28.357  0.00  0.00    -0.507 OA
ATOM     23  H   UNL     1       5.840   3.346  27.993  0.00  0.00    +0.292 HD
ENDBRANCH   7  22
BRANCH  10  24
ATOM     24  O   UNL     1       5.858   0.815  24.082  0.00  0.00    -0.506 OA
ATOM     25  H   UNL     1       6.460   0.121  23.770  0.00  0.00    +0.292 HD
ENDBRANCH  10  24
BRANCH   1  26
ATOM     26  O   UNL     1       4.270  -4.175  24.885  0.00  0.00    -0.453 OA
BRANCH  26  29
ATOM     27  C   UNL     1       7.557  -5.499  24.045  0.00  0.00    +0.191 C 
ATOM     28  O   UNL     1       6.559  -4.668  24.666  0.00  0.00    -0.330 OA
ATOM     29  C   UNL     1       5.216  -5.084  24.321  0.00  0.00    +0.340 C 
ATOM     30  C   UNL     1       4.958  -5.072  22.792  0.00  0.00    +0.214 C 
ATOM     31  C   UNL     1       6.091  -5.818  22.080  0.00  0.00    +0.180 C 
ATOM     32  C   UNL     1       7.446  -5.274  22.532  0.00  0.00    +0.178 C 
BRANCH  30  33
ATOM     33  O   UNL     1       3.689  -5.694  22.494  0.00  0.00    -0.383 OA
ATOM     34  H   UNL     1       3.697  -6.570  22.922  0.00  0.00    +0.210 HD
ENDBRANCH  30  33
BRANCH  31  35
ATOM     35  O   UNL     1       5.903  -5.725  20.664  0.00  0.00    -0.386 OA
ATOM     36  H   UNL     1       5.396  -6.507  20.379  0.00  0.00    +0.210 HD
ENDBRANCH  31  35
BRANCH  32  37
ATOM     37  O   UNL     1       7.539  -3.871  22.237  0.00  0.00    -0.386 OA
ATOM     38  H   UNL     1       8.361  -3.534  22.656  0.00  0.00    +0.210 HD
ENDBRANCH  32  37
BRANCH  27  39
ATOM     39  C   UNL     1       8.987  -5.175  24.517  0.00  0.00    +0.266 C 
BRANCH  39  40
ATOM     40  O   UNL     1       9.337  -3.817  24.137  0.00  0.00    -0.458 OA
BRANCH  40  41
ATOM     41  C   UNL     1       9.099  -2.865  25.076  0.00  0.00    +0.339 C 
ATOM     42  O   UNL     1       8.778  -3.093  26.232  0.00  0.00    -0.245 OA
BRANCH  41  46
ATOM     43  C   UNL     1       9.808   1.047  23.447  0.00  0.00    +0.000 A 
ATOM     44  C   UNL     1       9.372   0.933  24.766  0.00  0.00    +0.001 A 
ATOM     45  C   UNL     1       9.163  -0.330  25.336  0.00  0.00    +0.015 A 
ATOM     46  C   UNL     1       9.387  -1.488  24.579  0.00  0.00    +0.059 A 
ATOM     47  C   UNL     1       9.842  -1.360  23.251  0.00  0.00    +0.015 A 
ATOM     48  C   UNL     1      10.055  -0.095  22.687  0.00  0.00    +0.001 A 
ENDBRANCH  41  46
ENDBRANCH  40  41
ENDBRANCH  39  40
ENDBRANCH  27  39
ENDBRANCH  26  29
ENDBRANCH   1  26
TORSDOF 14
ENDMDL
MODEL 6
REMARK VINA RESULT:      -6.8      1.670      2.611
REMARK  Name = 
REMARK  14 active torsions:
REMARK  status: ('A' for Active; 'I' for Inactive)
REMARK    1  A    between atoms: C_4  and  C_7
REMARK    2  A    between atoms: C_7  and  O_9
REMARK    3  A    between atoms: O_9  and  C_10
REMARK    4  A    between atoms: C_10  and  C_11
REMARK    5  A    between atoms: C_13  and  O_46
REMARK    6  A    between atoms: C_15  and  O_45
REMARK    7  A    between atoms: C_17  and  O_44
REMARK    8  A    between atoms: C_19  and  O_22
REMARK    9  A    between atoms: O_22  and  C_23
REMARK   10  A    between atoms: C_24  and  C_36
REMARK   11  A    between atoms: C_28  and  O_35
REMARK   12  A    between atoms: C_30  and  O_34
REMARK   13  A    between atoms: C_38  and  O_43
REMARK   14  A    between atoms: C_39  and  O_42
REMARK                            x       y       z     vdW  Elec       q    Type
REMARK                         _______ _______ _______ _____ _____    ______ ____
ROOT
ATOM      1  C   UNL     1       7.020  -0.878  26.087  0.00  0.00    +0.214 A 
ATOM      2  C   UNL     1       7.046   0.230  27.090  0.00  0.00    +0.238 A 
ATOM      3  O   UNL     1       7.947   0.350  27.910  0.00  0.00    -0.283 OA
ATOM      4  C   UNL     1       5.900   1.153  27.102  0.00  0.00    +0.109 A 
ATOM      5  C   UNL     1       4.780   0.809  26.349  0.00  0.00    +0.147 A 
ATOM      6  C   UNL     1       3.679   1.671  26.305  0.00  0.00    +0.092 A 
ATOM      7  C   UNL     1       3.708   2.856  27.038  0.00  0.00    +0.124 A 
ATOM      8  C   UNL     1       4.809   3.195  27.815  0.00  0.00    +0.091 A 
ATOM      9  O   UNL     1       4.686  -0.374  25.654  0.00  0.00    -0.451 OA
ATOM     10  C   UNL     1       5.907   2.343  27.847  0.00  0.00    +0.135 A 
ATOM     11  C   UNL     1       5.827  -1.159  25.510  0.00  0.00    +0.181 A 
ENDROOT
BRANCH  11  12
ATOM     12  C   UNL     1       5.619  -2.368  24.650  0.00  0.00    +0.025 A 
ATOM     13  C   UNL     1       5.300  -3.622  25.204  0.00  0.00    +0.015 A 
ATOM     14  C   UNL     1       5.076  -4.742  24.386  0.00  0.00    +0.050 A 
ATOM     15  C   UNL     1       5.165  -4.612  23.009  0.00  0.00    +0.158 A 
ATOM     16  C   UNL     1       5.512  -3.395  22.441  0.00  0.00    +0.159 A 
ATOM     17  C   UNL     1       5.767  -2.291  23.248  0.00  0.00    +0.060 A 
BRANCH  15  18
ATOM     18  O   UNL     1       4.903  -5.688  22.210  0.00  0.00    -0.503 OA
ATOM     19  H   UNL     1       4.231  -6.201  22.703  0.00  0.00    +0.292 HD
ENDBRANCH  15  18
BRANCH  16  20
ATOM     20  O   UNL     1       5.582  -3.321  21.075  0.00  0.00    -0.503 OA
ATOM     21  H   UNL     1       4.945  -3.960  20.708  0.00  0.00    +0.292 HD
ENDBRANCH  16  20
ENDBRANCH  11  12
BRANCH   7  22
ATOM     22  O   UNL     1       2.666   3.735  27.029  0.00  0.00    -0.507 OA
ATOM     23  H   UNL     1       2.806   4.405  27.717  0.00  0.00    +0.292 HD
ENDBRANCH   7  22
BRANCH  10  24
ATOM     24  O   UNL     1       6.989   2.698  28.603  0.00  0.00    -0.506 OA
ATOM     25  H   UNL     1       6.763   3.425  29.204  0.00  0.00    +0.292 HD
ENDBRANCH  10  24
BRANCH   1  26
ATOM     26  O   UNL     1       8.142  -1.609  25.741  0.00  0.00    -0.453 OA
BRANCH  26  29
ATOM     27  C   UNL     1      10.052   0.993  24.054  0.00  0.00    +0.191 C 
ATOM     28  O   UNL     1       9.027   0.385  24.862  0.00  0.00    -0.330 OA
ATOM     29  C   UNL     1       9.231  -1.041  25.011  0.00  0.00    +0.340 C 
ATOM     30  C   UNL     1       9.269  -1.788  23.653  0.00  0.00    +0.214 C 
ATOM     31  C   UNL     1      10.237  -1.072  22.708  0.00  0.00    +0.180 C 
ATOM     32  C   UNL     1       9.904   0.418  22.639  0.00  0.00    +0.178 C 
BRANCH  30  33
ATOM     33  O   UNL     1       9.684  -3.157  23.847  0.00  0.00    -0.383 OA
ATOM     34  H   UNL     1       8.992  -3.721  23.454  0.00  0.00    +0.210 HD
ENDBRANCH  30  33
BRANCH  31  35
ATOM     35  O   UNL     1      10.201  -1.705  21.424  0.00  0.00    -0.386 OA
ATOM     36  H   UNL     1       9.580  -2.454  21.479  0.00  0.00    +0.210 HD
ENDBRANCH  31  35
BRANCH  32  37
ATOM     37  O   UNL     1       8.558   0.603  22.173  0.00  0.00    -0.386 OA
ATOM     38  H   UNL     1       8.271  -0.237  21.754  0.00  0.00    +0.210 HD
ENDBRANCH  32  37
BRANCH  27  39
ATOM     39  C   UNL     1       9.945   2.529  24.006  0.00  0.00    +0.266 C 
BRANCH  39  40
ATOM     40  O   UNL     1       8.594   2.920  23.642  0.00  0.00    -0.458 OA
BRANCH  40  41
ATOM     41  C   UNL     1       7.828   3.394  24.659  0.00  0.00    +0.339 C 
ATOM     42  O   UNL     1       8.227   3.599  25.794  0.00  0.00    -0.245 OA
BRANCH  41  46
ATOM     43  C   UNL     1       3.791   4.214  23.437  0.00  0.00    +0.000 A 
ATOM     44  C   UNL     1       4.456   5.141  24.237  0.00  0.00    +0.001 A 
ATOM     45  C   UNL     1       5.784   4.918  24.625  0.00  0.00    +0.015 A 
ATOM     46  C   UNL     1       6.449   3.755  24.214  0.00  0.00    +0.059 A 
ATOM     47  C   UNL     1       5.771   2.832  23.392  0.00  0.00    +0.015 A 
ATOM     48  C   UNL     1       4.445   3.062  23.003  0.00  0.00    +0.001 A 
ENDBRANCH  41  46
ENDBRANCH  40  41
ENDBRANCH  39  40
ENDBRANCH  27  39
ENDBRANCH  26  29
ENDBRANCH   1  26
TORSDOF 14
ENDMDL
MODEL 7
REMARK VINA RESULT:      -6.8      2.069      6.702
REMARK  Name = 
REMARK  14 active torsions:
REMARK  status: ('A' for Active; 'I' for Inactive)
REMARK    1  A    between atoms: C_4  and  C_7
REMARK    2  A    between atoms: C_7  and  O_9
REMARK    3  A    between atoms: O_9  and  C_10
REMARK    4  A    between atoms: C_10  and  C_11
REMARK    5  A    between atoms: C_13  and  O_46
REMARK    6  A    between atoms: C_15  and  O_45
REMARK    7  A    between atoms: C_17  and  O_44
REMARK    8  A    between atoms: C_19  and  O_22
REMARK    9  A    between atoms: O_22  and  C_23
REMARK   10  A    between atoms: C_24  and  C_36
REMARK   11  A    between atoms: C_28  and  O_35
REMARK   12  A    between atoms: C_30  and  O_34
REMARK   13  A    between atoms: C_38  and  O_43
REMARK   14  A    between atoms: C_39  and  O_42
REMARK                            x       y       z     vdW  Elec       q    Type
REMARK                         _______ _______ _______ _____ _____    ______ ____
ROOT
ATOM      1  C   UNL     1       6.967  -1.385  25.392  0.00  0.00    +0.214 A 
ATOM      2  C   UNL     1       6.381  -2.711  25.757  0.00  0.00    +0.238 A 
ATOM      3  O   UNL     1       5.948  -2.951  26.877  0.00  0.00    -0.283 OA
ATOM      4  C   UNL     1       6.398  -3.760  24.725  0.00  0.00    +0.109 A 
ATOM      5  C   UNL     1       7.150  -3.529  23.575  0.00  0.00    +0.147 A 
ATOM      6  C   UNL     1       7.171  -4.484  22.554  0.00  0.00    +0.092 A 
ATOM      7  C   UNL     1       6.456  -5.671  22.711  0.00  0.00    +0.124 A 
ATOM      8  C   UNL     1       5.726  -5.924  23.866  0.00  0.00    +0.091 A 
ATOM      9  O   UNL     1       7.913  -2.398  23.400  0.00  0.00    -0.451 OA
ATOM     10  C   UNL     1       5.697  -4.967  24.874  0.00  0.00    +0.135 A 
ATOM     11  C   UNL     1       7.761  -1.343  24.296  0.00  0.00    +0.181 A 
ENDROOT
BRANCH  11  12
ATOM     12  C   UNL     1       8.572  -0.134  23.940  0.00  0.00    +0.025 A 
ATOM     13  C   UNL     1       9.713   0.233  24.678  0.00  0.00    +0.015 A 
ATOM     14  C   UNL     1      10.483   1.351  24.317  0.00  0.00    +0.050 A 
ATOM     15  C   UNL     1      10.118   2.105  23.213  0.00  0.00    +0.158 A 
ATOM     16  C   UNL     1       8.978   1.784  22.490  0.00  0.00    +0.159 A 
ATOM     17  C   UNL     1       8.193   0.697  22.864  0.00  0.00    +0.060 A 
BRANCH  15  18
ATOM     18  O   UNL     1      10.891   3.165  22.833  0.00  0.00    -0.503 OA
ATOM     19  H   UNL     1      11.151   3.593  23.674  0.00  0.00    +0.292 HD
ENDBRANCH  15  18
BRANCH  16  20
ATOM     20  O   UNL     1       8.665   2.560  21.406  0.00  0.00    -0.503 OA
ATOM     21  H   UNL     1       7.735   2.387  21.173  0.00  0.00    +0.292 HD
ENDBRANCH  16  20
ENDBRANCH  11  12
BRANCH   7  22
ATOM     22  O   UNL     1       6.437  -6.634  21.747  0.00  0.00    -0.507 OA
ATOM     23  H   UNL     1       5.520  -6.914  21.591  0.00  0.00    +0.292 HD
ENDBRANCH   7  22
BRANCH  10  24
ATOM     24  O   UNL     1       4.961  -5.223  25.997  0.00  0.00    -0.506 OA
ATOM     25  H   UNL     1       5.285  -4.698  26.746  0.00  0.00    +0.292 HD
ENDBRANCH  10  24
BRANCH   1  26
ATOM     26  O   UNL     1       6.735  -0.232  26.120  0.00  0.00    -0.453 OA
BRANCH  26  29
ATOM     27  C   UNL     1       4.141   2.214  25.381  0.00  0.00    +0.191 C 
ATOM     28  O   UNL     1       5.389   1.503  25.280  0.00  0.00    -0.330 OA
ATOM     29  C   UNL     1       5.447   0.381  26.193  0.00  0.00    +0.340 C 
ATOM     30  C   UNL     1       5.260   0.802  27.674  0.00  0.00    +0.214 C 
ATOM     31  C   UNL     1       4.022   1.695  27.795  0.00  0.00    +0.180 C 
ATOM     32  C   UNL     1       4.095   2.838  26.782  0.00  0.00    +0.178 C 
BRANCH  30  33
ATOM     33  O   UNL     1       5.114  -0.366  28.511  0.00  0.00    -0.383 OA
ATOM     34  H   UNL     1       4.236  -0.304  28.932  0.00  0.00    +0.210 HD
ENDBRANCH  30  33
BRANCH  31  35
ATOM     35  O   UNL     1       3.903   2.160  29.144  0.00  0.00    -0.386 OA
ATOM     36  H   UNL     1       3.511   3.052  29.117  0.00  0.00    +0.210 HD
ENDBRANCH  31  35
BRANCH  32  37
ATOM     37  O   UNL     1       5.275   3.624  27.008  0.00  0.00    -0.386 OA
ATOM     38  H   UNL     1       4.987   4.545  27.193  0.00  0.00    +0.210 HD
ENDBRANCH  32  37
BRANCH  27  39
ATOM     39  C   UNL     1       3.991   3.317  24.315  0.00  0.00    +0.266 C 
BRANCH  39  40
ATOM     40  O   UNL     1       5.120   4.228  24.384  0.00  0.00    -0.458 OA
BRANCH  40  41
ATOM     41  C   UNL     1       6.066   4.063  23.424  0.00  0.00    +0.339 C 
ATOM     42  O   UNL     1       5.885   3.496  22.358  0.00  0.00    -0.245 OA
BRANCH  41  46
ATOM     43  C   UNL     1       9.642   6.271  24.318  0.00  0.00    +0.000 A 
ATOM     44  C   UNL     1       9.185   5.325  25.235  0.00  0.00    +0.001 A 
ATOM     45  C   UNL     1       8.041   4.566  24.957  0.00  0.00    +0.015 A 
ATOM     46  C   UNL     1       7.345   4.759  23.756  0.00  0.00    +0.059 A 
ATOM     47  C   UNL     1       7.825   5.707  22.830  0.00  0.00    +0.015 A 
ATOM     48  C   UNL     1       8.973   6.460  23.110  0.00  0.00    +0.001 A 
ENDBRANCH  41  46
ENDBRANCH  40  41
ENDBRANCH  39  40
ENDBRANCH  27  39
ENDBRANCH  26  29
ENDBRANCH   1  26
TORSDOF 14
ENDMDL
MODEL 8
REMARK VINA RESULT:      -6.7      2.289      6.224
REMARK  Name = 
REMARK  14 active torsions:
REMARK  status: ('A' for Active; 'I' for Inactive)
REMARK    1  A    between atoms: C_4  and  C_7
REMARK    2  A    between atoms: C_7  and  O_9
REMARK    3  A    between atoms: O_9  and  C_10
REMARK    4  A    between atoms: C_10  and  C_11
REMARK    5  A    between atoms: C_13  and  O_46
REMARK    6  A    between atoms: C_15  and  O_45
REMARK    7  A    between atoms: C_17  and  O_44
REMARK    8  A    between atoms: C_19  and  O_22
REMARK    9  A    between atoms: O_22  and  C_23
REMARK   10  A    between atoms: C_24  and  C_36
REMARK   11  A    between atoms: C_28  and  O_35
REMARK   12  A    between atoms: C_30  and  O_34
REMARK   13  A    between atoms: C_38  and  O_43
REMARK   14  A    between atoms: C_39  and  O_42
REMARK                            x       y       z     vdW  Elec       q    Type
REMARK                         _______ _______ _______ _____ _____    ______ ____
ROOT
ATOM      1  C   UNL     1       6.327  -3.373  26.175  0.00  0.00    +0.214 A 
ATOM      2  C   UNL     1       5.379  -4.240  26.940  0.00  0.00    +0.238 A 
ATOM      3  O   UNL     1       5.181  -4.095  28.140  0.00  0.00    -0.283 OA
ATOM      4  C   UNL     1       4.728  -5.335  26.205  0.00  0.00    +0.109 A 
ATOM      5  C   UNL     1       5.198  -5.632  24.928  0.00  0.00    +0.147 A 
ATOM      6  C   UNL     1       4.589  -6.644  24.179  0.00  0.00    +0.092 A 
ATOM      7  C   UNL     1       3.530  -7.362  24.733  0.00  0.00    +0.124 A 
ATOM      8  C   UNL     1       3.072  -7.095  26.018  0.00  0.00    +0.091 A 
ATOM      9  O   UNL     1       6.273  -4.985  24.362  0.00  0.00    -0.451 OA
ATOM     10  C   UNL     1       3.672  -6.080  26.755  0.00  0.00    +0.135 A 
ATOM     11  C   UNL     1       6.774  -3.847  24.988  0.00  0.00    +0.181 A 
ENDROOT
BRANCH  11  12
ATOM     12  C   UNL     1       7.876  -3.179  24.223  0.00  0.00    +0.025 A 
ATOM     13  C   UNL     1       9.228  -3.350  24.577  0.00  0.00    +0.015 A 
ATOM     14  C   UNL     1      10.254  -2.744  23.833  0.00  0.00    +0.050 A 
ATOM     15  C   UNL     1       9.935  -1.968  22.730  0.00  0.00    +0.158 A 
ATOM     16  C   UNL     1       8.609  -1.758  22.382  0.00  0.00    +0.159 A 
ATOM     17  C   UNL     1       7.587  -2.328  23.134  0.00  0.00    +0.060 A 
BRANCH  15  18
ATOM     18  O   UNL     1      10.933  -1.417  21.980  0.00  0.00    -0.503 OA
ATOM     19  H   UNL     1      11.500  -2.175  21.730  0.00  0.00    +0.292 HD
ENDBRANCH  15  18
BRANCH  16  20
ATOM     20  O   UNL     1       8.349  -0.986  21.281  0.00  0.00    -0.503 OA
ATOM     21  H   UNL     1       8.135  -1.584  20.542  0.00  0.00    +0.292 HD
ENDBRANCH  16  20
ENDBRANCH  11  12
BRANCH   7  22
ATOM     22  O   UNL     1       2.897  -8.356  24.048  0.00  0.00    -0.507 OA
ATOM     23  H   UNL     1       2.147  -8.680  24.573  0.00  0.00    +0.292 HD
ENDBRANCH   7  22
BRANCH  10  24
ATOM     24  O   UNL     1       3.199  -5.816  28.010  0.00  0.00    -0.506 OA
ATOM     25  H   UNL     1       2.814  -6.614  28.405  0.00  0.00    +0.292 HD
ENDBRANCH  10  24
BRANCH   1  26
ATOM     26  O   UNL     1       6.753  -2.138  26.629  0.00  0.00    -0.453 OA
BRANCH  26  29
ATOM     27  C   UNL     1       6.313   1.192  25.223  0.00  0.00    +0.191 C 
ATOM     28  O   UNL     1       6.922  -0.083  25.498  0.00  0.00    -0.330 OA
ATOM     29  C   UNL     1       6.068  -0.926  26.309  0.00  0.00    +0.340 C 
ATOM     30  C   UNL     1       5.699  -0.275  27.667  0.00  0.00    +0.214 C 
ATOM     31  C   UNL     1       5.192   1.149  27.425  0.00  0.00    +0.180 C 
ATOM     32  C   UNL     1       6.189   1.925  26.565  0.00  0.00    +0.178 C 
BRANCH  30  33
ATOM     33  O   UNL     1       4.685  -1.056  28.336  0.00  0.00    -0.383 OA
ATOM     34  H   UNL     1       4.137  -0.431  28.847  0.00  0.00    +0.210 HD
ENDBRANCH  30  33
BRANCH  31  35
ATOM     35  O   UNL     1       4.940   1.783  28.684  0.00  0.00    -0.386 OA
ATOM     36  H   UNL     1       4.741   2.721  28.511  0.00  0.00    +0.210 HD
ENDBRANCH  31  35
BRANCH  32  37
ATOM     37  O   UNL     1       7.469   1.978  27.215  0.00  0.00    -0.386 OA
ATOM     38  H   UNL     1       8.099   1.457  26.672  0.00  0.00    +0.210 HD
ENDBRANCH  32  37
BRANCH  27  39
ATOM     39  C   UNL     1       7.132   2.047  24.236  0.00  0.00    +0.266 C 
BRANCH  39  40
ATOM     40  O   UNL     1       8.545   1.954  24.556  0.00  0.00    -0.458 OA
BRANCH  40  41
ATOM     41  C   UNL     1       9.397   2.203  23.528  0.00  0.00    +0.339 C 
ATOM     42  O   UNL     1       9.521   1.498  22.539  0.00  0.00    -0.245 OA
BRANCH  41  46
ATOM     43  C   UNL     1      11.511   5.939  23.728  0.00  0.00    +0.000 A 
ATOM     44  C   UNL     1      10.168   5.902  24.101  0.00  0.00    +0.001 A 
ATOM     45  C   UNL     1       9.461   4.692  24.078  0.00  0.00    +0.015 A 
ATOM     46  C   UNL     1      10.100   3.513  23.673  0.00  0.00    +0.059 A 
ATOM     47  C   UNL     1      11.462   3.560  23.313  0.00  0.00    +0.015 A 
ATOM     48  C   UNL     1      12.166   4.771  23.343  0.00  0.00    +0.001 A 
ENDBRANCH  41  46
ENDBRANCH  40  41
ENDBRANCH  39  40
ENDBRANCH  27  39
ENDBRANCH  26  29
ENDBRANCH   1  26
TORSDOF 14
ENDMDL
MODEL 9
REMARK VINA RESULT:      -6.7      1.945      6.071
REMARK  Name = 
REMARK  14 active torsions:
REMARK  status: ('A' for Active; 'I' for Inactive)
REMARK    1  A    between atoms: C_4  and  C_7
REMARK    2  A    between atoms: C_7  and  O_9
REMARK    3  A    between atoms: O_9  and  C_10
REMARK    4  A    between atoms: C_10  and  C_11
REMARK    5  A    between atoms: C_13  and  O_46
REMARK    6  A    between atoms: C_15  and  O_45
REMARK    7  A    between atoms: C_17  and  O_44
REMARK    8  A    between atoms: C_19  and  O_22
REMARK    9  A    between atoms: O_22  and  C_23
REMARK   10  A    between atoms: C_24  and  C_36
REMARK   11  A    between atoms: C_28  and  O_35
REMARK   12  A    between atoms: C_30  and  O_34
REMARK   13  A    between atoms: C_38  and  O_43
REMARK   14  A    between atoms: C_39  and  O_42
REMARK                            x       y       z     vdW  Elec       q    Type
REMARK                         _______ _______ _______ _____ _____    ______ ____
ROOT
ATOM      1  C   UNL     1       5.753  -2.079  23.960  0.00  0.00    +0.214 A 
ATOM      2  C   UNL     1       5.252  -3.318  23.289  0.00  0.00    +0.238 A 
ATOM      3  O   UNL     1       5.124  -3.399  22.074  0.00  0.00    -0.283 OA
ATOM      4  C   UNL     1       4.849  -4.436  24.156  0.00  0.00    +0.109 A 
ATOM      5  C   UNL     1       4.746  -4.194  25.524  0.00  0.00    +0.147 A 
ATOM      6  C   UNL     1       4.397  -5.235  26.391  0.00  0.00    +0.092 A 
ATOM      7  C   UNL     1       4.133  -6.500  25.870  0.00  0.00    +0.124 A 
ATOM      8  C   UNL     1       4.205  -6.746  24.504  0.00  0.00    +0.091 A 
ATOM      9  O   UNL     1       4.946  -2.950  26.076  0.00  0.00    -0.451 OA
ATOM     10  C   UNL     1       4.563  -5.713  23.646  0.00  0.00    +0.135 A 
ATOM     11  C   UNL     1       5.486  -1.943  25.280  0.00  0.00    +0.181 A 
ENDROOT
BRANCH  11  12
ATOM     12  C   UNL     1       5.748  -0.668  26.023  0.00  0.00    +0.025 A 
ATOM     13  C   UNL     1       4.978   0.489  25.796  0.00  0.00    +0.015 A 
ATOM     14  C   UNL     1       5.212   1.669  26.521  0.00  0.00    +0.050 A 
ATOM     15  C   UNL     1       6.214   1.698  27.478  0.00  0.00    +0.158 A 
ATOM     16  C   UNL     1       7.008   0.582  27.695  0.00  0.00    +0.159 A 
ATOM     17  C   UNL     1       6.802  -0.580  26.958  0.00  0.00    +0.060 A 
BRANCH  15  18
ATOM     18  O   UNL     1       6.412   2.830  28.215  0.00  0.00    -0.503 OA
ATOM     19  H   UNL     1       5.536   3.025  28.607  0.00  0.00    +0.292 HD
ENDBRANCH  15  18
BRANCH  16  20
ATOM     20  O   UNL     1       7.980   0.663  28.655  0.00  0.00    -0.503 OA
ATOM     21  H   UNL     1       8.029  -0.201  29.105  0.00  0.00    +0.292 HD
ENDBRANCH  16  20
ENDBRANCH  11  12
BRANCH   7  22
ATOM     22  O   UNL     1       3.793  -7.551  26.668  0.00  0.00    -0.507 OA
ATOM     23  H   UNL     1       3.621  -7.229  27.568  0.00  0.00    +0.292 HD
ENDBRANCH   7  22
BRANCH  10  24
ATOM     24  O   UNL     1       4.647  -5.973  22.307  0.00  0.00    -0.506 OA
ATOM     25  H   UNL     1       3.814  -5.749  21.862  0.00  0.00    +0.292 HD
ENDBRANCH  10  24
BRANCH   1  26
ATOM     26  O   UNL     1       6.458  -1.093  23.293  0.00  0.00    -0.453 OA
BRANCH  26  29
ATOM     27  C   UNL     1       9.346   1.050  23.861  0.00  0.00    +0.191 C 
ATOM     28  O   UNL     1       7.976   0.669  23.632  0.00  0.00    -0.330 OA
ATOM     29  C   UNL     1       7.811  -0.769  23.614  0.00  0.00    +0.340 C 
ATOM     30  C   UNL     1       8.681  -1.460  22.532  0.00  0.00    +0.214 C 
ATOM     31  C   UNL     1      10.123  -0.957  22.645  0.00  0.00    +0.180 C 
ATOM     32  C   UNL     1      10.151   0.571  22.646  0.00  0.00    +0.178 C 
BRANCH  30  33
ATOM     33  O   UNL     1       8.641  -2.894  22.699  0.00  0.00    -0.383 OA
ATOM     34  H   UNL     1       7.706  -3.162  22.617  0.00  0.00    +0.210 HD
ENDBRANCH  30  33
BRANCH  31  35
ATOM     35  O   UNL     1      10.906  -1.522  21.588  0.00  0.00    -0.386 OA
ATOM     36  H   UNL     1      11.842  -1.325  21.773  0.00  0.00    +0.210 HD
ENDBRANCH  31  35
BRANCH  32  37
ATOM     37  O   UNL     1       9.562   1.078  21.437  0.00  0.00    -0.386 OA
ATOM     38  H   UNL     1       9.727   0.418  20.729  0.00  0.00    +0.210 HD
ENDBRANCH  32  37
BRANCH  27  39
ATOM     39  C   UNL     1       9.525   2.570  24.038  0.00  0.00    +0.266 C 
BRANCH  39  40
ATOM     40  O   UNL     1       8.840   3.276  22.969  0.00  0.00    -0.458 OA
BRANCH  40  41
ATOM     41  C   UNL     1       8.226   4.433  23.330  0.00  0.00    +0.339 C 
ATOM     42  O   UNL     1       8.790   5.506  23.470  0.00  0.00    -0.245 OA
BRANCH  41  46
ATOM     43  C   UNL     1       3.988   3.774  23.599  0.00  0.00    +0.000 A 
ATOM     44  C   UNL     1       4.589   4.674  24.478  0.00  0.00    +0.001 A 
ATOM     45  C   UNL     1       5.964   4.935  24.393  0.00  0.00    +0.015 A 
ATOM     46  C   UNL     1       6.743   4.286  23.426  0.00  0.00    +0.059 A 
ATOM     47  C   UNL     1       6.121   3.390  22.534  0.00  0.00    +0.015 A 
ATOM     48  C   UNL     1       4.746   3.136  22.618  0.00  0.00    +0.001 A 
ENDBRANCH  41  46
ENDBRANCH  40  41
ENDBRANCH  39  40
ENDBRANCH  27  39
ENDBRANCH  26  29
ENDBRANCH   1  26
TORSDOF 14
ENDMDL
