MODEL 1
REMARK VINA RESULT:      -7.1      0.000      0.000
REMARK  Name = 
REMARK  14 active torsions:
REMARK  status: ('A' for Active; 'I' for Inactive)
REMARK    1  A    between atoms: C_1  and  C_2
REMARK    2  A    between atoms: C_3  and  O_38
REMARK    3  A    between atoms: C_5  and  O_37
REMARK    4  A    between atoms: C_6  and  O_36
REMARK    5  A    between atoms: C_8  and  O_11
REMARK    6  A    between atoms: O_11  and  C_12
REMARK    7  A    between atoms: C_13  and  C_26
REMARK    8  A    between atoms: C_17  and  O_24
REMARK    9  A    between atoms: C_19  and  O_23
REMARK   10  A    between atoms: O_24  and  C_25
REMARK   11  A    between atoms: C_28  and  O_34
REMARK   12  A    between atoms: C_29  and  O_32
REMARK   13  A    between atoms: O_32  and  C_33
REMARK   14  A    between atoms: O_34  and  C_35
REMARK                            x       y       z     vdW  Elec       q    Type
REMARK                         _______ _______ _______ _____ _____    ______ ____
ROOT
ATOM      1  C   UNL     1       7.453   1.851  23.746  0.00  0.00    +0.214 A 
ATOM      2  C   UNL     1       7.592   3.326  23.534  0.00  0.00    +0.238 A 
ATOM      3  O   UNL     1       6.673   4.021  23.117  0.00  0.00    -0.283 OA
ATOM      4  C   UNL     1       8.928   3.908  23.672  0.00  0.00    +0.109 A 
ATOM      5  C   UNL     1      10.012   3.044  23.586  0.00  0.00    +0.147 A 
ATOM      6  C   UNL     1      11.313   3.561  23.500  0.00  0.00    +0.092 A 
ATOM      7  C   UNL     1      11.512   4.947  23.502  0.00  0.00    +0.127 A 
ATOM      8  C   UNL     1      10.422   5.807  23.644  0.00  0.00    +0.092 A 
ATOM      9  O   UNL     1       9.865   1.677  23.535  0.00  0.00    -0.451 OA
ATOM     10  C   UNL     1       9.134   5.292  23.738  0.00  0.00    +0.135 A 
ATOM     11  C   UNL     1       8.590   1.118  23.678  0.00  0.00    +0.181 A 
ENDROOT
BRANCH  11  12
ATOM     12  C   UNL     1       8.613  -0.384  23.716  0.00  0.00    +0.025 A 
ATOM     13  C   UNL     1       9.352  -1.058  24.705  0.00  0.00    +0.015 A 
ATOM     14  C   UNL     1       9.399  -2.459  24.756  0.00  0.00    +0.050 A 
ATOM     15  C   UNL     1       8.694  -3.227  23.827  0.00  0.00    +0.162 A 
ATOM     16  C   UNL     1       7.970  -2.579  22.808  0.00  0.00    +0.162 A 
ATOM     17  C   UNL     1       7.954  -1.174  22.755  0.00  0.00    +0.061 A 
BRANCH  15  18
ATOM     18  O   UNL     1       8.651  -4.599  23.815  0.00  0.00    -0.491 OA
ATOM     19  C   UNL     1       8.903  -5.285  25.031  0.00  0.00    +0.277 C 
ENDBRANCH  15  18
BRANCH  16  20
ATOM     20  O   UNL     1       7.312  -3.400  21.926  0.00  0.00    -0.491 OA
ATOM     21  C   UNL     1       5.893  -3.372  21.922  0.00  0.00    +0.277 C 
ENDBRANCH  16  20
ENDBRANCH  11  12
BRANCH   7  22
ATOM     22  O   UNL     1      12.706   5.602  23.370  0.00  0.00    -0.495 OA
ATOM     23  C   UNL     1      13.311   5.605  22.087  0.00  0.00    +0.277 C 
ENDBRANCH   7  22
BRANCH  10  24
ATOM     24  O   UNL     1       8.089   6.155  23.906  0.00  0.00    -0.506 OA
ATOM     25  H   UNL     1       7.246   5.682  23.819  0.00  0.00    +0.292 HD
ENDBRANCH  10  24
BRANCH   1  26
ATOM     26  O   UNL     1       6.213   1.245  23.916  0.00  0.00    -0.453 OA
BRANCH  26  30
ATOM     27  C   UNL     1       6.228  -1.965  26.812  0.00  0.00    +0.041 C 
ATOM     28  C   UNL     1       4.971  -1.383  26.167  0.00  0.00    +0.150 C 
ATOM     29  O   UNL     1       5.254  -0.650  24.966  0.00  0.00    -0.334 OA
ATOM     30  C   UNL     1       5.931   0.598  25.164  0.00  0.00    +0.339 C 
ATOM     31  C   UNL     1       5.076   1.546  26.028  0.00  0.00    +0.214 C 
ATOM     32  C   UNL     1       4.778   0.853  27.365  0.00  0.00    +0.180 C 
ATOM     33  C   UNL     1       4.145  -0.531  27.141  0.00  0.00    +0.174 C 
BRANCH  31  34
ATOM     34  O   UNL     1       3.830   1.883  25.382  0.00  0.00    -0.383 OA
ATOM     35  H   UNL     1       3.385   1.027  25.226  0.00  0.00    +0.210 HD
ENDBRANCH  31  34
BRANCH  32  36
ATOM     36  O   UNL     1       3.879   1.678  28.124  0.00  0.00    -0.386 OA
ATOM     37  H   UNL     1       2.997   1.533  27.729  0.00  0.00    +0.210 HD
ENDBRANCH  32  36
BRANCH  33  38
ATOM     38  O   UNL     1       2.823  -0.329  26.607  0.00  0.00    -0.387 OA
ATOM     39  H   UNL     1       2.553   0.575  26.887  0.00  0.00    +0.210 HD
ENDBRANCH  33  38
ENDBRANCH  26  30
ENDBRANCH   1  26
TORSDOF 10
ENDMDL
MODEL 2
REMARK VINA RESULT:      -6.8      3.518      5.899
REMARK  Name = 
REMARK  14 active torsions:
REMARK  status: ('A' for Active; 'I' for Inactive)
REMARK    1  A    between atoms: C_1  and  C_2
REMARK    2  A    between atoms: C_3  and  O_38
REMARK    3  A    between atoms: C_5  and  O_37
REMARK    4  A    between atoms: C_6  and  O_36
REMARK    5  A    between atoms: C_8  and  O_11
REMARK    6  A    between atoms: O_11  and  C_12
REMARK    7  A    between atoms: C_13  and  C_26
REMARK    8  A    between atoms: C_17  and  O_24
REMARK    9  A    between atoms: C_19  and  O_23
REMARK   10  A    between atoms: O_24  and  C_25
REMARK   11  A    between atoms: C_28  and  O_34
REMARK   12  A    between atoms: C_29  and  O_32
REMARK   13  A    between atoms: O_32  and  C_33
REMARK   14  A    between atoms: O_34  and  C_35
REMARK                            x       y       z     vdW  Elec       q    Type
REMARK                         _______ _______ _______ _____ _____    ______ ____
ROOT
ATOM      1  C   UNL     1       7.197  -2.864  25.238  0.00  0.00    +0.214 A 
ATOM      2  C   UNL     1       8.068  -1.690  25.561  0.00  0.00    +0.238 A 
ATOM      3  O   UNL     1       8.615  -1.556  26.649  0.00  0.00    -0.283 OA
ATOM      4  C   UNL     1       8.114  -0.593  24.593  0.00  0.00    +0.109 A 
ATOM      5  C   UNL     1       7.079  -0.514  23.669  0.00  0.00    +0.147 A 
ATOM      6  C   UNL     1       6.954   0.623  22.857  0.00  0.00    +0.092 A 
ATOM      7  C   UNL     1       7.873   1.672  22.981  0.00  0.00    +0.127 A 
ATOM      8  C   UNL     1       8.941   1.560  23.873  0.00  0.00    +0.092 A 
ATOM      9  O   UNL     1       6.126  -1.497  23.540  0.00  0.00    -0.451 OA
ATOM     10  C   UNL     1       9.068   0.429  24.671  0.00  0.00    +0.135 A 
ATOM     11  C   UNL     1       6.249  -2.673  24.288  0.00  0.00    +0.181 A 
ENDROOT
BRANCH  11  12
ATOM     12  C   UNL     1       5.197  -3.691  23.950  0.00  0.00    +0.025 A 
ATOM     13  C   UNL     1       5.479  -4.730  23.045  0.00  0.00    +0.015 A 
ATOM     14  C   UNL     1       4.511  -5.687  22.703  0.00  0.00    +0.050 A 
ATOM     15  C   UNL     1       3.237  -5.641  23.271  0.00  0.00    +0.162 A 
ATOM     16  C   UNL     1       2.917  -4.596  24.160  0.00  0.00    +0.162 A 
ATOM     17  C   UNL     1       3.890  -3.629  24.471  0.00  0.00    +0.061 A 
BRANCH  15  18
ATOM     18  O   UNL     1       2.236  -6.548  23.028  0.00  0.00    -0.491 OA
ATOM     19  C   UNL     1       2.269  -7.782  23.728  0.00  0.00    +0.277 C 
ENDBRANCH  15  18
BRANCH  16  20
ATOM     20  O   UNL     1       1.643  -4.611  24.669  0.00  0.00    -0.491 OA
ATOM     21  C   UNL     1       1.075  -3.376  25.078  0.00  0.00    +0.277 C 
ENDBRANCH  16  20
ENDBRANCH  11  12
BRANCH   7  22
ATOM     22  O   UNL     1       7.853   2.861  22.305  0.00  0.00    -0.495 OA
ATOM     23  C   UNL     1       7.988   4.049  23.070  0.00  0.00    +0.277 C 
ENDBRANCH   7  22
BRANCH  10  24
ATOM     24  O   UNL     1      10.139   0.333  25.513  0.00  0.00    -0.506 OA
ATOM     25  H   UNL     1      10.491   1.217  25.710  0.00  0.00    +0.292 HD
ENDBRANCH  10  24
BRANCH   1  26
ATOM     26  O   UNL     1       7.290  -4.064  25.933  0.00  0.00    -0.453 OA
BRANCH  26  30
ATOM     27  C   UNL     1       3.540  -3.640  28.042  0.00  0.00    +0.041 C 
ATOM     28  C   UNL     1       4.878  -3.962  28.706  0.00  0.00    +0.150 C 
ATOM     29  O   UNL     1       6.001  -3.635  27.874  0.00  0.00    -0.334 OA
ATOM     30  C   UNL     1       6.176  -4.483  26.732  0.00  0.00    +0.339 C 
ATOM     31  C   UNL     1       6.406  -5.942  27.172  0.00  0.00    +0.214 C 
ATOM     32  C   UNL     1       5.209  -6.389  28.023  0.00  0.00    +0.180 C 
ATOM     33  C   UNL     1       4.965  -5.417  29.188  0.00  0.00    +0.174 C 
BRANCH  31  34
ATOM     34  O   UNL     1       7.616  -6.085  27.944  0.00  0.00    -0.383 OA
ATOM     35  H   UNL     1       7.326  -6.431  28.811  0.00  0.00    +0.210 HD
ENDBRANCH  31  34
BRANCH  32  36
ATOM     36  O   UNL     1       5.475  -7.704  28.540  0.00  0.00    -0.386 OA
ATOM     37  H   UNL     1       5.327  -7.640  29.503  0.00  0.00    +0.210 HD
ENDBRANCH  32  36
BRANCH  33  38
ATOM     38  O   UNL     1       6.061  -5.555  30.114  0.00  0.00    -0.387 OA
ATOM     39  H   UNL     1       6.530  -6.381  29.857  0.00  0.00    +0.210 HD
ENDBRANCH  33  38
ENDBRANCH  26  30
ENDBRANCH   1  26
TORSDOF 10
ENDMDL
MODEL 3
REMARK VINA RESULT:      -6.8      1.269      2.039
REMARK  Name = 
REMARK  14 active torsions:
REMARK  status: ('A' for Active; 'I' for Inactive)
REMARK    1  A    between atoms: C_1  and  C_2
REMARK    2  A    between atoms: C_3  and  O_38
REMARK    3  A    between atoms: C_5  and  O_37
REMARK    4  A    between atoms: C_6  and  O_36
REMARK    5  A    between atoms: C_8  and  O_11
REMARK    6  A    between atoms: O_11  and  C_12
REMARK    7  A    between atoms: C_13  and  C_26
REMARK    8  A    between atoms: C_17  and  O_24
REMARK    9  A    between atoms: C_19  and  O_23
REMARK   10  A    between atoms: O_24  and  C_25
REMARK   11  A    between atoms: C_28  and  O_34
REMARK   12  A    between atoms: C_29  and  O_32
REMARK   13  A    between atoms: O_32  and  C_33
REMARK   14  A    between atoms: O_34  and  C_35
REMARK                            x       y       z     vdW  Elec       q    Type
REMARK                         _______ _______ _______ _____ _____    ______ ____
ROOT
ATOM      1  C   UNL     1       6.821   0.791  24.075  0.00  0.00    +0.214 A 
ATOM      2  C   UNL     1       7.007   2.276  24.065  0.00  0.00    +0.238 A 
ATOM      3  O   UNL     1       6.069   3.057  23.962  0.00  0.00    -0.283 OA
ATOM      4  C   UNL     1       8.377   2.788  24.002  0.00  0.00    +0.109 A 
ATOM      5  C   UNL     1       9.364   1.915  23.558  0.00  0.00    +0.147 A 
ATOM      6  C   UNL     1      10.649   2.400  23.277  0.00  0.00    +0.092 A 
ATOM      7  C   UNL     1      10.933   3.761  23.448  0.00  0.00    +0.127 A 
ATOM      8  C   UNL     1       9.952   4.619  23.947  0.00  0.00    +0.092 A 
ATOM      9  O   UNL     1       9.123   0.580  23.333  0.00  0.00    -0.451 OA
ATOM     10  C   UNL     1       8.681   4.135  24.233  0.00  0.00    +0.135 A 
ATOM     11  C   UNL     1       7.871   0.044  23.657  0.00  0.00    +0.181 A 
ENDROOT
BRANCH  11  12
ATOM     12  C   UNL     1       7.806  -1.443  23.460  0.00  0.00    +0.025 A 
ATOM     13  C   UNL     1       6.855  -2.004  22.589  0.00  0.00    +0.015 A 
ATOM     14  C   UNL     1       6.766  -3.390  22.396  0.00  0.00    +0.050 A 
ATOM     15  C   UNL     1       7.637  -4.257  23.058  0.00  0.00    +0.162 A 
ATOM     16  C   UNL     1       8.581  -3.726  23.959  0.00  0.00    +0.162 A 
ATOM     17  C   UNL     1       8.640  -2.336  24.161  0.00  0.00    +0.061 A 
BRANCH  15  18
ATOM     18  O   UNL     1       7.651  -5.621  22.910  0.00  0.00    -0.491 OA
ATOM     19  C   UNL     1       6.821  -6.192  21.910  0.00  0.00    +0.277 C 
ENDBRANCH  15  18
BRANCH  16  20
ATOM     20  O   UNL     1       9.396  -4.639  24.581  0.00  0.00    -0.491 OA
ATOM     21  C   UNL     1       9.240  -4.826  25.979  0.00  0.00    +0.277 C 
ENDBRANCH  16  20
ENDBRANCH  11  12
BRANCH   7  22
ATOM     22  O   UNL     1      12.114   4.392  23.167  0.00  0.00    -0.495 OA
ATOM     23  C   UNL     1      12.354   5.639  23.799  0.00  0.00    +0.277 C 
ENDBRANCH   7  22
BRANCH  10  24
ATOM     24  O   UNL     1       7.749   4.991  24.748  0.00  0.00    -0.506 OA
ATOM     25  H   UNL     1       7.934   5.900  24.461  0.00  0.00    +0.292 HD
ENDBRANCH  10  24
BRANCH   1  26
ATOM     26  O   UNL     1       5.606   0.204  24.410  0.00  0.00    -0.453 OA
BRANCH  26  30
ATOM     27  C   UNL     1       5.971  -3.245  26.991  0.00  0.00    +0.041 C 
ATOM     28  C   UNL     1       4.650  -2.564  26.633  0.00  0.00    +0.150 C 
ATOM     29  O   UNL     1       4.753  -1.739  25.463  0.00  0.00    -0.334 OA
ATOM     30  C   UNL     1       5.517  -0.539  25.633  0.00  0.00    +0.339 C 
ATOM     31  C   UNL     1       4.880   0.360  26.711  0.00  0.00    +0.214 C 
ATOM     32  C   UNL     1       4.789  -0.436  28.020  0.00  0.00    +0.180 C 
ATOM     33  C   UNL     1       4.056  -1.770  27.806  0.00  0.00    +0.174 C 
BRANCH  31  34
ATOM     34  O   UNL     1       3.558   0.797  26.331  0.00  0.00    -0.383 OA
ATOM     35  H   UNL     1       3.698   1.418  25.590  0.00  0.00    +0.210 HD
ENDBRANCH  31  34
BRANCH  32  36
ATOM     36  O   UNL     1       4.083   0.352  28.993  0.00  0.00    -0.386 OA
ATOM     37  H   UNL     1       4.688   1.084  29.223  0.00  0.00    +0.210 HD
ENDBRANCH  32  36
BRANCH  33  38
ATOM     38  O   UNL     1       2.672  -1.474  27.538  0.00  0.00    -0.387 OA
ATOM     39  H   UNL     1       2.335  -2.225  26.999  0.00  0.00    +0.210 HD
ENDBRANCH  33  38
ENDBRANCH  26  30
ENDBRANCH   1  26
TORSDOF 10
ENDMDL
MODEL 4
REMARK VINA RESULT:      -6.7      2.685      6.345
REMARK  Name = 
REMARK  14 active torsions:
REMARK  status: ('A' for Active; 'I' for Inactive)
REMARK    1  A    between atoms: C_1  and  C_2
REMARK    2  A    between atoms: C_3  and  O_38
REMARK    3  A    between atoms: C_5  and  O_37
REMARK    4  A    between atoms: C_6  and  O_36
REMARK    5  A    between atoms: C_8  and  O_11
REMARK    6  A    between atoms: O_11  and  C_12
REMARK    7  A    between atoms: C_13  and  C_26
REMARK    8  A    between atoms: C_17  and  O_24
REMARK    9  A    between atoms: C_19  and  O_23
REMARK   10  A    between atoms: O_24  and  C_25
REMARK   11  A    between atoms: C_28  and  O_34
REMARK   12  A    between atoms: C_29  and  O_32
REMARK   13  A    between atoms: O_32  and  C_33
REMARK   14  A    between atoms: O_34  and  C_35
REMARK                            x       y       z     vdW  Elec       q    Type
REMARK                         _______ _______ _______ _____ _____    ______ ____
ROOT
ATOM      1  C   UNL     1       7.610  -2.960  25.011  0.00  0.00    +0.214 A 
ATOM      2  C   UNL     1       8.838  -2.612  24.227  0.00  0.00    +0.238 A 
ATOM      3  O   UNL     1       9.794  -3.371  24.130  0.00  0.00    -0.283 OA
ATOM      4  C   UNL     1       8.950  -1.246  23.714  0.00  0.00    +0.109 A 
ATOM      5  C   UNL     1       8.148  -0.275  24.302  0.00  0.00    +0.147 A 
ATOM      6  C   UNL     1       8.358   1.079  24.003  0.00  0.00    +0.092 A 
ATOM      7  C   UNL     1       9.372   1.446  23.110  0.00  0.00    +0.127 A 
ATOM      8  C   UNL     1      10.136   0.461  22.481  0.00  0.00    +0.092 A 
ATOM      9  O   UNL     1       7.169  -0.581  25.219  0.00  0.00    -0.451 OA
ATOM     10  C   UNL     1       9.921  -0.881  22.773  0.00  0.00    +0.135 A 
ATOM     11  C   UNL     1       6.888  -1.923  25.500  0.00  0.00    +0.181 A 
ENDROOT
BRANCH  11  12
ATOM     12  C   UNL     1       5.720  -2.091  26.430  0.00  0.00    +0.025 A 
ATOM     13  C   UNL     1       4.570  -1.297  26.275  0.00  0.00    +0.015 A 
ATOM     14  C   UNL     1       3.470  -1.426  27.136  0.00  0.00    +0.050 A 
ATOM     15  C   UNL     1       3.483  -2.366  28.169  0.00  0.00    +0.162 A 
ATOM     16  C   UNL     1       4.633  -3.155  28.365  0.00  0.00    +0.162 A 
ATOM     17  C   UNL     1       5.738  -2.995  27.510  0.00  0.00    +0.061 A 
BRANCH  15  18
ATOM     18  O   UNL     1       2.446  -2.591  29.039  0.00  0.00    -0.491 OA
ATOM     19  C   UNL     1       1.231  -3.103  28.512  0.00  0.00    +0.277 C 
ENDBRANCH  15  18
BRANCH  16  20
ATOM     20  O   UNL     1       4.576  -4.049  29.405  0.00  0.00    -0.491 OA
ATOM     21  C   UNL     1       5.362  -5.227  29.314  0.00  0.00    +0.277 C 
ENDBRANCH  16  20
ENDBRANCH  11  12
BRANCH   7  22
ATOM     22  O   UNL     1       9.734   2.718  22.760  0.00  0.00    -0.495 OA
ATOM     23  C   UNL     1      10.875   3.270  23.398  0.00  0.00    +0.277 C 
ENDBRANCH   7  22
BRANCH  10  24
ATOM     24  O   UNL     1      10.663  -1.825  22.121  0.00  0.00    -0.506 OA
ATOM     25  H   UNL     1      11.474  -1.427  21.766  0.00  0.00    +0.292 HD
ENDBRANCH  10  24
BRANCH   1  26
ATOM     26  O   UNL     1       7.271  -4.276  25.301  0.00  0.00    -0.453 OA
BRANCH  26  30
ATOM     27  C   UNL     1       6.817  -5.774  21.271  0.00  0.00    +0.041 C 
ATOM     28  C   UNL     1       5.729  -5.037  22.051  0.00  0.00    +0.150 C 
ATOM     29  O   UNL     1       6.252  -4.294  23.162  0.00  0.00    -0.334 OA
ATOM     30  C   UNL     1       6.727  -5.091  24.254  0.00  0.00    +0.339 C 
ATOM     31  C   UNL     1       5.585  -5.946  24.837  0.00  0.00    +0.214 C 
ATOM     32  C   UNL     1       5.008  -6.821  23.715  0.00  0.00    +0.180 C 
ATOM     33  C   UNL     1       4.594  -5.967  22.506  0.00  0.00    +0.174 C 
BRANCH  31  34
ATOM     34  O   UNL     1       4.532  -5.129  25.389  0.00  0.00    -0.383 OA
ATOM     35  H   UNL     1       4.789  -4.209  25.183  0.00  0.00    +0.210 HD
ENDBRANCH  31  34
BRANCH  32  36
ATOM     36  O   UNL     1       3.863  -7.527  24.222  0.00  0.00    -0.386 OA
ATOM     37  H   UNL     1       3.147  -7.358  23.578  0.00  0.00    +0.210 HD
ENDBRANCH  32  36
BRANCH  33  38
ATOM     38  O   UNL     1       3.451  -5.180  22.893  0.00  0.00    -0.387 OA
ATOM     39  H   UNL     1       2.993  -4.938  22.055  0.00  0.00    +0.210 HD
ENDBRANCH  33  38
ENDBRANCH  26  30
ENDBRANCH   1  26
TORSDOF 10
ENDMDL
MODEL 5
REMARK VINA RESULT:      -6.7      2.627      8.232
REMARK  Name = 
REMARK  14 active torsions:
REMARK  status: ('A' for Active; 'I' for Inactive)
REMARK    1  A    between atoms: C_1  and  C_2
REMARK    2  A    between atoms: C_3  and  O_38
REMARK    3  A    between atoms: C_5  and  O_37
REMARK    4  A    between atoms: C_6  and  O_36
REMARK    5  A    between atoms: C_8  and  O_11
REMARK    6  A    between atoms: O_11  and  C_12
REMARK    7  A    between atoms: C_13  and  C_26
REMARK    8  A    between atoms: C_17  and  O_24
REMARK    9  A    between atoms: C_19  and  O_23
REMARK   10  A    between atoms: O_24  and  C_25
REMARK   11  A    between atoms: C_28  and  O_34
REMARK   12  A    between atoms: C_29  and  O_32
REMARK   13  A    between atoms: O_32  and  C_33
REMARK   14  A    between atoms: O_34  and  C_35
REMARK                            x       y       z     vdW  Elec       q    Type
REMARK                         _______ _______ _______ _____ _____    ______ ____
ROOT
ATOM      1  C   UNL     1       8.430  -0.737  25.964  0.00  0.00    +0.214 A 
ATOM      2  C   UNL     1       8.762  -2.055  25.335  0.00  0.00    +0.238 A 
ATOM      3  O   UNL     1       9.416  -2.146  24.304  0.00  0.00    -0.283 OA
ATOM      4  C   UNL     1       8.128  -3.251  25.891  0.00  0.00    +0.109 A 
ATOM      5  C   UNL     1       6.988  -3.067  26.666  0.00  0.00    +0.147 A 
ATOM      6  C   UNL     1       6.220  -4.175  27.050  0.00  0.00    +0.092 A 
ATOM      7  C   UNL     1       6.604  -5.462  26.653  0.00  0.00    +0.127 A 
ATOM      8  C   UNL     1       7.780  -5.642  25.922  0.00  0.00    +0.092 A 
ATOM      9  O   UNL     1       6.544  -1.821  27.043  0.00  0.00    -0.451 OA
ATOM     10  C   UNL     1       8.545  -4.543  25.549  0.00  0.00    +0.135 A 
ATOM     11  C   UNL     1       7.314  -0.695  26.732  0.00  0.00    +0.181 A 
ENDROOT
BRANCH  11  12
ATOM     12  C   UNL     1       6.754   0.572  27.311  0.00  0.00    +0.025 A 
ATOM     13  C   UNL     1       7.193   1.035  28.565  0.00  0.00    +0.015 A 
ATOM     14  C   UNL     1       6.678   2.209  29.134  0.00  0.00    +0.050 A 
ATOM     15  C   UNL     1       5.718   2.965  28.456  0.00  0.00    +0.162 A 
ATOM     16  C   UNL     1       5.239   2.510  27.212  0.00  0.00    +0.162 A 
ATOM     17  C   UNL     1       5.746   1.317  26.668  0.00  0.00    +0.061 A 
BRANCH  15  18
ATOM     18  O   UNL     1       5.180   4.141  28.913  0.00  0.00    -0.491 OA
ATOM     19  C   UNL     1       6.013   5.291  28.937  0.00  0.00    +0.277 C 
ENDBRANCH  15  18
BRANCH  16  20
ATOM     20  O   UNL     1       4.290   3.299  26.611  0.00  0.00    -0.491 OA
ATOM     21  C   UNL     1       3.576   2.758  25.510  0.00  0.00    +0.277 C 
ENDBRANCH  16  20
ENDBRANCH  11  12
BRANCH   7  22
ATOM     22  O   UNL     1       5.935  -6.629  26.899  0.00  0.00    -0.495 OA
ATOM     23  C   UNL     1       4.637  -6.767  26.342  0.00  0.00    +0.277 C 
ENDBRANCH   7  22
BRANCH  10  24
ATOM     24  O   UNL     1       9.706  -4.751  24.860  0.00  0.00    -0.506 OA
ATOM     25  H   UNL     1       9.517  -5.162  24.001  0.00  0.00    +0.292 HD
ENDBRANCH  10  24
BRANCH   1  26
ATOM     26  O   UNL     1       9.174   0.408  25.708  0.00  0.00    -0.453 OA
BRANCH  26  30
ATOM     27  C   UNL     1       6.485   2.585  23.115  0.00  0.00    +0.041 C 
ATOM     28  C   UNL     1       7.332   1.390  22.681  0.00  0.00    +0.150 C 
ATOM     29  O   UNL     1       7.795   0.607  23.792  0.00  0.00    -0.334 OA
ATOM     30  C   UNL     1       8.798   1.236  24.599  0.00  0.00    +0.339 C 
ATOM     31  C   UNL     1      10.057   1.537  23.761  0.00  0.00    +0.214 C 
ATOM     32  C   UNL     1       9.652   2.427  22.577  0.00  0.00    +0.180 C 
ATOM     33  C   UNL     1       8.505   1.792  21.775  0.00  0.00    +0.174 C 
BRANCH  31  34
ATOM     34  O   UNL     1      10.668   0.331  23.259  0.00  0.00    -0.383 OA
ATOM     35  H   UNL     1      10.015  -0.046  22.638  0.00  0.00    +0.210 HD
ENDBRANCH  31  34
BRANCH  32  36
ATOM     36  O   UNL     1      10.795   2.608  21.723  0.00  0.00    -0.386 OA
ATOM     37  H   UNL     1      10.433   2.889  20.860  0.00  0.00    +0.210 HD
ENDBRANCH  32  36
BRANCH  33  38
ATOM     38  O   UNL     1       9.025   0.625  21.110  0.00  0.00    -0.387 OA
ATOM     39  H   UNL     1       9.736   0.275  21.694  0.00  0.00    +0.210 HD
ENDBRANCH  33  38
ENDBRANCH  26  30
ENDBRANCH   1  26
TORSDOF 10
ENDMDL
MODEL 6
REMARK VINA RESULT:      -6.6      2.813      8.551
REMARK  Name = 
REMARK  14 active torsions:
REMARK  status: ('A' for Active; 'I' for Inactive)
REMARK    1  A    between atoms: C_1  and  C_2
REMARK    2  A    between atoms: C_3  and  O_38
REMARK    3  A    between atoms: C_5  and  O_37
REMARK    4  A    between atoms: C_6  and  O_36
REMARK    5  A    between atoms: C_8  and  O_11
REMARK    6  A    between atoms: O_11  and  C_12
REMARK    7  A    between atoms: C_13  and  C_26
REMARK    8  A    between atoms: C_17  and  O_24
REMARK    9  A    between atoms: C_19  and  O_23
REMARK   10  A    between atoms: O_24  and  C_25
REMARK   11  A    between atoms: C_28  and  O_34
REMARK   12  A    between atoms: C_29  and  O_32
REMARK   13  A    between atoms: O_32  and  C_33
REMARK   14  A    between atoms: O_34  and  C_35
REMARK                            x       y       z     vdW  Elec       q    Type
REMARK                         _______ _______ _______ _____ _____    ______ ____
ROOT
ATOM      1  C   UNL     1       5.933  -1.779  23.830  0.00  0.00    +0.214 A 
ATOM      2  C   UNL     1       5.617  -2.931  22.928  0.00  0.00    +0.238 A 
ATOM      3  O   UNL     1       5.433  -2.794  21.725  0.00  0.00    -0.283 OA
ATOM      4  C   UNL     1       5.354  -4.229  23.552  0.00  0.00    +0.109 A 
ATOM      5  C   UNL     1       5.018  -4.232  24.900  0.00  0.00    +0.147 A 
ATOM      6  C   UNL     1       4.553  -5.411  25.501  0.00  0.00    +0.092 A 
ATOM      7  C   UNL     1       4.431  -6.580  24.739  0.00  0.00    +0.127 A 
ATOM      8  C   UNL     1       4.823  -6.581  23.399  0.00  0.00    +0.092 A 
ATOM      9  O   UNL     1       5.078  -3.100  25.680  0.00  0.00    -0.451 OA
ATOM     10  C   UNL     1       5.292  -5.414  22.808  0.00  0.00    +0.135 A 
ATOM     11  C   UNL     1       5.593  -1.918  25.135  0.00  0.00    +0.181 A 
ENDROOT
BRANCH  11  12
ATOM     12  C   UNL     1       5.698  -0.810  26.143  0.00  0.00    +0.025 A 
ATOM     13  C   UNL     1       6.875  -0.643  26.895  0.00  0.00    +0.015 A 
ATOM     14  C   UNL     1       6.995   0.377  27.850  0.00  0.00    +0.050 A 
ATOM     15  C   UNL     1       5.945   1.272  28.069  0.00  0.00    +0.162 A 
ATOM     16  C   UNL     1       4.744   1.111  27.351  0.00  0.00    +0.162 A 
ATOM     17  C   UNL     1       4.630   0.067  26.416  0.00  0.00    +0.061 A 
BRANCH  15  18
ATOM     18  O   UNL     1       5.979   2.320  28.955  0.00  0.00    -0.491 OA
ATOM     19  C   UNL     1       6.797   3.436  28.637  0.00  0.00    +0.277 C 
ENDBRANCH  15  18
BRANCH  16  20
ATOM     20  O   UNL     1       3.754   2.021  27.628  0.00  0.00    -0.491 OA
ATOM     21  C   UNL     1       3.385   2.934  26.606  0.00  0.00    +0.277 C 
ENDBRANCH  16  20
ENDBRANCH  11  12
BRANCH   7  22
ATOM     22  O   UNL     1       3.945  -7.786  25.164  0.00  0.00    -0.495 OA
ATOM     23  C   UNL     1       2.539  -7.973  25.124  0.00  0.00    +0.277 C 
ENDBRANCH   7  22
BRANCH  10  24
ATOM     24  O   UNL     1       5.696  -5.451  21.504  0.00  0.00    -0.506 OA
ATOM     25  H   UNL     1       6.597  -5.807  21.442  0.00  0.00    +0.292 HD
ENDBRANCH  10  24
BRANCH   1  26
ATOM     26  O   UNL     1       6.465  -0.590  23.347  0.00  0.00    -0.453 OA
BRANCH  26  30
ATOM     27  C   UNL     1      10.534  -2.032  23.112  0.00  0.00    +0.041 C 
ATOM     28  C   UNL     1      10.096  -0.791  23.888  0.00  0.00    +0.150 C 
ATOM     29  O   UNL     1       8.685  -0.773  24.153  0.00  0.00    -0.334 OA
ATOM     30  C   UNL     1       7.857  -0.550  23.005  0.00  0.00    +0.339 C 
ATOM     31  C   UNL     1       8.170   0.819  22.369  0.00  0.00    +0.214 C 
ATOM     32  C   UNL     1       9.659   0.856  22.000  0.00  0.00    +0.180 C 
ATOM     33  C   UNL     1      10.539   0.516  23.214  0.00  0.00    +0.174 C 
BRANCH  31  34
ATOM     34  O   UNL     1       7.878   1.907  23.270  0.00  0.00    -0.383 OA
ATOM     35  H   UNL     1       7.051   2.303  22.932  0.00  0.00    +0.210 HD
ENDBRANCH  31  34
BRANCH  32  36
ATOM     36  O   UNL     1       9.984   2.173  21.522  0.00  0.00    -0.386 OA
ATOM     37  H   UNL     1      10.679   2.504  22.124  0.00  0.00    +0.210 HD
ENDBRANCH  32  36
BRANCH  33  38
ATOM     38  O   UNL     1      10.434   1.604  24.152  0.00  0.00    -0.387 OA
ATOM     39  H   UNL     1       9.629   2.108  23.893  0.00  0.00    +0.210 HD
ENDBRANCH  33  38
ENDBRANCH  26  30
ENDBRANCH   1  26
TORSDOF 10
ENDMDL
MODEL 7
REMARK VINA RESULT:      -6.5      2.585      8.318
REMARK  Name = 
REMARK  14 active torsions:
REMARK  status: ('A' for Active; 'I' for Inactive)
REMARK    1  A    between atoms: C_1  and  C_2
REMARK    2  A    between atoms: C_3  and  O_38
REMARK    3  A    between atoms: C_5  and  O_37
REMARK    4  A    between atoms: C_6  and  O_36
REMARK    5  A    between atoms: C_8  and  O_11
REMARK    6  A    between atoms: O_11  and  C_12
REMARK    7  A    between atoms: C_13  and  C_26
REMARK    8  A    between atoms: C_17  and  O_24
REMARK    9  A    between atoms: C_19  and  O_23
REMARK   10  A    between atoms: O_24  and  C_25
REMARK   11  A    between atoms: C_28  and  O_34
REMARK   12  A    between atoms: C_29  and  O_32
REMARK   13  A    between atoms: O_32  and  C_33
REMARK   14  A    between atoms: O_34  and  C_35
REMARK                            x       y       z     vdW  Elec       q    Type
REMARK                         _______ _______ _______ _____ _____    ______ ____
ROOT
ATOM      1  C   UNL     1       7.937  -1.008  25.951  0.00  0.00    +0.214 A 
ATOM      2  C   UNL     1       8.482  -2.394  25.797  0.00  0.00    +0.238 A 
ATOM      3  O   UNL     1       9.363  -2.669  24.992  0.00  0.00    -0.283 OA
ATOM      4  C   UNL     1       7.806  -3.473  26.519  0.00  0.00    +0.109 A 
ATOM      5  C   UNL     1       6.509  -3.232  26.957  0.00  0.00    +0.147 A 
ATOM      6  C   UNL     1       5.737  -4.287  27.465  0.00  0.00    +0.092 A 
ATOM      7  C   UNL     1       6.277  -5.577  27.531  0.00  0.00    +0.127 A 
ATOM      8  C   UNL     1       7.599  -5.799  27.140  0.00  0.00    +0.092 A 
ATOM      9  O   UNL     1       5.918  -1.993  26.872  0.00  0.00    -0.451 OA
ATOM     10  C   UNL     1       8.366  -4.750  26.645  0.00  0.00    +0.135 A 
ATOM     11  C   UNL     1       6.673  -0.902  26.426  0.00  0.00    +0.181 A 
ENDROOT
BRANCH  11  12
ATOM     12  C   UNL     1       5.920   0.396  26.501  0.00  0.00    +0.025 A 
ATOM     13  C   UNL     1       5.926   1.153  27.686  0.00  0.00    +0.015 A 
ATOM     14  C   UNL     1       5.223   2.363  27.785  0.00  0.00    +0.050 A 
ATOM     15  C   UNL     1       4.505   2.859  26.694  0.00  0.00    +0.162 A 
ATOM     16  C   UNL     1       4.459   2.107  25.504  0.00  0.00    +0.162 A 
ATOM     17  C   UNL     1       5.147   0.883  25.429  0.00  0.00    +0.061 A 
BRANCH  15  18
ATOM     18  O   UNL     1       3.816   4.045  26.682  0.00  0.00    -0.491 OA
ATOM     19  C   UNL     1       4.560   5.251  26.776  0.00  0.00    +0.277 C 
ENDBRANCH  15  18
BRANCH  16  20
ATOM     20  O   UNL     1       3.726   2.653  24.479  0.00  0.00    -0.491 OA
ATOM     21  C   UNL     1       4.424   3.103  23.328  0.00  0.00    +0.277 C 
ENDBRANCH  16  20
ENDBRANCH  11  12
BRANCH   7  22
ATOM     22  O   UNL     1       5.637  -6.712  27.947  0.00  0.00    -0.495 OA
ATOM     23  C   UNL     1       4.855  -6.624  29.128  0.00  0.00    +0.277 C 
ENDBRANCH   7  22
BRANCH  10  24
ATOM     24  O   UNL     1       9.665  -4.989  26.299  0.00  0.00    -0.506 OA
ATOM     25  H   UNL     1      10.263  -4.480  26.869  0.00  0.00    +0.292 HD
ENDBRANCH  10  24
BRANCH   1  26
ATOM     26  O   UNL     1       8.652   0.113  25.547  0.00  0.00    -0.453 OA
BRANCH  26  30
ATOM     27  C   UNL     1       9.380  -0.574  21.341  0.00  0.00    +0.041 C 
ATOM     28  C   UNL     1      10.115   0.461  22.192  0.00  0.00    +0.150 C 
ATOM     29  O   UNL     1       9.998   0.204  23.599  0.00  0.00    -0.334 OA
ATOM     30  C   UNL     1       8.695   0.433  24.150  0.00  0.00    +0.339 C 
ATOM     31  C   UNL     1       8.283   1.907  23.970  0.00  0.00    +0.214 C 
ATOM     32  C   UNL     1       8.325   2.246  22.473  0.00  0.00    +0.180 C 
ATOM     33  C   UNL     1       9.695   1.902  21.867  0.00  0.00    +0.174 C 
BRANCH  31  34
ATOM     34  O   UNL     1       9.163   2.801  24.682  0.00  0.00    -0.383 OA
ATOM     35  H   UNL     1       8.572   3.406  25.171  0.00  0.00    +0.210 HD
ENDBRANCH  31  34
BRANCH  32  36
ATOM     36  O   UNL     1       8.064   3.650  22.309  0.00  0.00    -0.386 OA
ATOM     37  H   UNL     1       7.478   3.894  23.052  0.00  0.00    +0.210 HD
ENDBRANCH  32  36
BRANCH  33  38
ATOM     38  O   UNL     1      10.661   2.821  22.411  0.00  0.00    -0.387 OA
ATOM     39  H   UNL     1      11.542   2.409  22.260  0.00  0.00    +0.210 HD
ENDBRANCH  33  38
ENDBRANCH  26  30
ENDBRANCH   1  26
TORSDOF 10
ENDMDL
MODEL 8
REMARK VINA RESULT:      -6.5      2.638      6.232
REMARK  Name = 
REMARK  14 active torsions:
REMARK  status: ('A' for Active; 'I' for Inactive)
REMARK    1  A    between atoms: C_1  and  C_2
REMARK    2  A    between atoms: C_3  and  O_38
REMARK    3  A    between atoms: C_5  and  O_37
REMARK    4  A    between atoms: C_6  and  O_36
REMARK    5  A    between atoms: C_8  and  O_11
REMARK    6  A    between atoms: O_11  and  C_12
REMARK    7  A    between atoms: C_13  and  C_26
REMARK    8  A    between atoms: C_17  and  O_24
REMARK    9  A    between atoms: C_19  and  O_23
REMARK   10  A    between atoms: O_24  and  C_25
REMARK   11  A    between atoms: C_28  and  O_34
REMARK   12  A    between atoms: C_29  and  O_32
REMARK   13  A    between atoms: O_32  and  C_33
REMARK   14  A    between atoms: O_34  and  C_35
REMARK                            x       y       z     vdW  Elec       q    Type
REMARK                         _______ _______ _______ _____ _____    ______ ____
ROOT
ATOM      1  C   UNL     1       7.503  -2.953  24.947  0.00  0.00    +0.214 A 
ATOM      2  C   UNL     1       8.772  -2.610  24.230  0.00  0.00    +0.238 A 
ATOM      3  O   UNL     1       9.739  -3.361  24.209  0.00  0.00    -0.283 OA
ATOM      4  C   UNL     1       8.901  -1.256  23.690  0.00  0.00    +0.109 A 
ATOM      5  C   UNL     1       8.056  -0.281  24.205  0.00  0.00    +0.147 A 
ATOM      6  C   UNL     1       8.270   1.068  23.884  0.00  0.00    +0.092 A 
ATOM      7  C   UNL     1       9.333   1.425  23.046  0.00  0.00    +0.127 A 
ATOM      8  C   UNL     1      10.143   0.433  22.489  0.00  0.00    +0.092 A 
ATOM      9  O   UNL     1       7.026  -0.575  25.068  0.00  0.00    -0.451 OA
ATOM     10  C   UNL     1       9.924  -0.904  22.801  0.00  0.00    +0.135 A 
ATOM     11  C   UNL     1       6.742  -1.913  25.366  0.00  0.00    +0.181 A 
ENDROOT
BRANCH  11  12
ATOM     12  C   UNL     1       5.522  -2.071  26.227  0.00  0.00    +0.025 A 
ATOM     13  C   UNL     1       5.651  -2.248  27.616  0.00  0.00    +0.015 A 
ATOM     14  C   UNL     1       4.528  -2.408  28.442  0.00  0.00    +0.050 A 
ATOM     15  C   UNL     1       3.241  -2.382  27.902  0.00  0.00    +0.162 A 
ATOM     16  C   UNL     1       3.082  -2.235  26.510  0.00  0.00    +0.162 A 
ATOM     17  C   UNL     1       4.219  -2.102  25.693  0.00  0.00    +0.061 A 
BRANCH  15  18
ATOM     18  O   UNL     1       2.083  -2.496  28.629  0.00  0.00    -0.491 OA
ATOM     19  C   UNL     1       1.821  -3.731  29.277  0.00  0.00    +0.277 C 
ENDBRANCH  15  18
BRANCH  16  20
ATOM     20  O   UNL     1       1.788  -2.229  26.052  0.00  0.00    -0.491 OA
ATOM     21  C   UNL     1       1.343  -3.348  25.301  0.00  0.00    +0.277 C 
ENDBRANCH  16  20
ENDBRANCH  11  12
BRANCH   7  22
ATOM     22  O   UNL     1       9.703   2.692  22.687  0.00  0.00    -0.495 OA
ATOM     23  C   UNL     1       9.699   3.684  23.701  0.00  0.00    +0.277 C 
ENDBRANCH   7  22
BRANCH  10  24
ATOM     24  O   UNL     1      10.713  -1.854  22.218  0.00  0.00    -0.506 OA
ATOM     25  H   UNL     1      11.064  -1.528  21.374  0.00  0.00    +0.292 HD
ENDBRANCH  10  24
BRANCH   1  26
ATOM     26  O   UNL     1       7.159  -4.266  25.248  0.00  0.00    -0.453 OA
BRANCH  26  30
ATOM     27  C   UNL     1       6.587  -5.705  21.212  0.00  0.00    +0.041 C 
ATOM     28  C   UNL     1       5.503  -5.040  22.059  0.00  0.00    +0.150 C 
ATOM     29  O   UNL     1       6.041  -4.293  23.160  0.00  0.00    -0.334 OA
ATOM     30  C   UNL     1       6.607  -5.087  24.211  0.00  0.00    +0.339 C 
ATOM     31  C   UNL     1       5.538  -6.009  24.828  0.00  0.00    +0.214 C 
ATOM     32  C   UNL     1       4.952  -6.890  23.716  0.00  0.00    +0.180 C 
ATOM     33  C   UNL     1       4.439  -6.035  22.546  0.00  0.00    +0.174 C 
BRANCH  31  34
ATOM     34  O   UNL     1       4.474  -5.257  25.447  0.00  0.00    -0.383 OA
ATOM     35  H   UNL     1       3.916  -4.948  24.706  0.00  0.00    +0.210 HD
ENDBRANCH  31  34
BRANCH  32  36
ATOM     36  O   UNL     1       3.869  -7.663  24.260  0.00  0.00    -0.386 OA
ATOM     37  H   UNL     1       4.084  -7.781  25.206  0.00  0.00    +0.210 HD
ENDBRANCH  32  36
BRANCH  33  38
ATOM     38  O   UNL     1       3.278  -5.315  23.003  0.00  0.00    -0.387 OA
ATOM     39  H   UNL     1       3.153  -4.571  22.370  0.00  0.00    +0.210 HD
ENDBRANCH  33  38
ENDBRANCH  26  30
ENDBRANCH   1  26
TORSDOF 10
ENDMDL
MODEL 9
REMARK VINA RESULT:      -6.4      2.085      6.938
REMARK  Name = 
REMARK  14 active torsions:
REMARK  status: ('A' for Active; 'I' for Inactive)
REMARK    1  A    between atoms: C_1  and  C_2
REMARK    2  A    between atoms: C_3  and  O_38
REMARK    3  A    between atoms: C_5  and  O_37
REMARK    4  A    between atoms: C_6  and  O_36
REMARK    5  A    between atoms: C_8  and  O_11
REMARK    6  A    between atoms: O_11  and  C_12
REMARK    7  A    between atoms: C_13  and  C_26
REMARK    8  A    between atoms: C_17  and  O_24
REMARK    9  A    between atoms: C_19  and  O_23
REMARK   10  A    between atoms: O_24  and  C_25
REMARK   11  A    between atoms: C_28  and  O_34
REMARK   12  A    between atoms: C_29  and  O_32
REMARK   13  A    between atoms: O_32  and  C_33
REMARK   14  A    between atoms: O_34  and  C_35
REMARK                            x       y       z     vdW  Elec       q    Type
REMARK                         _______ _______ _______ _____ _____    ______ ____
ROOT
ATOM      1  C   UNL     1       8.069  -1.346  25.841  0.00  0.00    +0.214 A 
ATOM      2  C   UNL     1       7.699  -2.787  26.009  0.00  0.00    +0.238 A 
ATOM      3  O   UNL     1       7.783  -3.367  27.085  0.00  0.00    -0.283 OA
ATOM      4  C   UNL     1       7.394  -3.555  24.801  0.00  0.00    +0.109 A 
ATOM      5  C   UNL     1       7.845  -3.044  23.590  0.00  0.00    +0.147 A 
ATOM      6  C   UNL     1       7.770  -3.829  22.430  0.00  0.00    +0.092 A 
ATOM      7  C   UNL     1       7.239  -5.123  22.498  0.00  0.00    +0.127 A 
ATOM      8  C   UNL     1       6.738  -5.607  23.707  0.00  0.00    +0.092 A 
ATOM      9  O   UNL     1       8.416  -1.797  23.480  0.00  0.00    -0.451 OA
ATOM     10  C   UNL     1       6.805  -4.824  24.854  0.00  0.00    +0.135 A 
ATOM     11  C   UNL     1       8.455  -0.960  24.601  0.00  0.00    +0.181 A 
ENDROOT
BRANCH  11  12
ATOM     12  C   UNL     1       9.002   0.404  24.290  0.00  0.00    +0.025 A 
ATOM     13  C   UNL     1      10.383   0.654  24.384  0.00  0.00    +0.015 A 
ATOM     14  C   UNL     1      10.917   1.922  24.110  0.00  0.00    +0.050 A 
ATOM     15  C   UNL     1      10.087   2.973  23.717  0.00  0.00    +0.162 A 
ATOM     16  C   UNL     1       8.697   2.759  23.642  0.00  0.00    +0.162 A 
ATOM     17  C   UNL     1       8.173   1.490  23.946  0.00  0.00    +0.061 A 
BRANCH  15  18
ATOM     18  O   UNL     1      10.517   4.236  23.395  0.00  0.00    -0.491 OA
ATOM     19  C   UNL     1      11.916   4.476  23.364  0.00  0.00    +0.277 C 
ENDBRANCH  15  18
BRANCH  16  20
ATOM     20  O   UNL     1       7.943   3.841  23.260  0.00  0.00    -0.491 OA
ATOM     21  C   UNL     1       6.928   3.636  22.290  0.00  0.00    +0.277 C 
ENDBRANCH  16  20
ENDBRANCH  11  12
BRANCH   7  22
ATOM     22  O   UNL     1       7.149  -6.025  21.473  0.00  0.00    -0.495 OA
ATOM     23  C   UNL     1       6.026  -5.924  20.612  0.00  0.00    +0.277 C 
ENDBRANCH   7  22
BRANCH  10  24
ATOM     24  O   UNL     1       6.280  -5.312  26.017  0.00  0.00    -0.506 OA
ATOM     25  H   UNL     1       5.824  -4.605  26.502  0.00  0.00    +0.292 HD
ENDBRANCH  10  24
BRANCH   1  26
ATOM     26  O   UNL     1       8.103  -0.465  26.915  0.00  0.00    -0.453 OA
BRANCH  26  30
ATOM     27  C   UNL     1       3.886  -0.672  27.842  0.00  0.00    +0.041 C 
ATOM     28  C   UNL     1       4.541   0.436  27.019  0.00  0.00    +0.150 C 
ATOM     29  O   UNL     1       5.829   0.060  26.510  0.00  0.00    -0.334 OA
ATOM     30  C   UNL     1       6.863  -0.045  27.498  0.00  0.00    +0.339 C 
ATOM     31  C   UNL     1       7.081   1.311  28.198  0.00  0.00    +0.214 C 
ATOM     32  C   UNL     1       5.752   1.757  28.824  0.00  0.00    +0.180 C 
ATOM     33  C   UNL     1       4.625   1.768  27.779  0.00  0.00    +0.174 C 
BRANCH  31  34
ATOM     34  O   UNL     1       7.533   2.324  27.276  0.00  0.00    -0.383 OA
ATOM     35  H   UNL     1       7.592   3.143  27.805  0.00  0.00    +0.210 HD
ENDBRANCH  31  34
BRANCH  32  36
ATOM     36  O   UNL     1       5.918   3.076  29.370  0.00  0.00    -0.386 OA
ATOM     37  H   UNL     1       6.878   3.254  29.334  0.00  0.00    +0.210 HD
ENDBRANCH  32  36
BRANCH  33  38
ATOM     38  O   UNL     1       4.894   2.838  26.852  0.00  0.00    -0.387 OA
ATOM     39  H   UNL     1       5.874   2.930  26.823  0.00  0.00    +0.210 HD
ENDBRANCH  33  38
ENDBRANCH  26  30
ENDBRANCH   1  26
TORSDOF 10
ENDMDL
