MODEL 1
REMARK VINA RESULT:      -7.9      0.000      0.000
REMARK  Name = 
REMARK  23 active torsions:
REMARK  status: ('A' for Active; 'I' for Inactive)
REMARK    1  A    between atoms: C_1  and  C_2
REMARK    2  A    between atoms: C_2  and  O_4
REMARK    3  A    between atoms: O_4  and  C_5
REMARK    4  A    between atoms: C_5  and  C_6
REMARK    5  A    between atoms: C_8  and  O_53
REMARK    6  A    between atoms: C_10  and  O_49
REMARK    7  A    between atoms: C_11  and  O_14
REMARK    8  A    between atoms: O_14  and  C_15
REMARK    9  A    between atoms: C_15  and  C_16
REMARK   10  A    between atoms: C_17  and  O_48
REMARK   11  A    between atoms: C_19  and  O_47
REMARK   12  A    between atoms: C_20  and  O_46
REMARK   13  A    between atoms: C_21  and  O_24
REMARK   14  A    between atoms: O_24  and  C_25
REMARK   15  A    between atoms: C_26  and  C_38
REMARK   16  A    between atoms: C_30  and  O_37
REMARK   17  A    between atoms: C_32  and  O_36
REMARK   18  A    between atoms: C_40  and  O_45
REMARK   19  A    between atoms: C_41  and  O_44
REMARK   20  A    between atoms: O_49  and  C_50
REMARK   21  A    between atoms: C_50  and  C_52
REMARK   22  A    between atoms: O_53  and  C_54
REMARK   23  A    between atoms: C_54  and  C_56
REMARK                            x       y       z     vdW  Elec       q    Type
REMARK                         _______ _______ _______ _____ _____    ______ ____
ROOT
ATOM      1  C   UNL     1       9.402  -1.455  25.489  0.00  0.00    +0.179 C 
ATOM      2  O   UNL     1       9.562  -0.013  25.611  0.00  0.00    -0.331 OA
ATOM      3  C   UNL     1       8.736   0.777  24.715  0.00  0.00    +0.340 C 
ATOM      4  C   UNL     1       9.076   0.397  23.259  0.00  0.00    +0.214 C 
ATOM      5  C   UNL     1       8.921  -1.107  23.025  0.00  0.00    +0.180 C 
ATOM      6  C   UNL     1       9.746  -1.898  24.054  0.00  0.00    +0.177 C 
ENDROOT
BRANCH   6   7
ATOM      7  O   UNL     1       9.578  -3.299  23.862  0.00  0.00    -0.386 OA
ATOM      8  H   UNL     1      10.234  -3.586  23.203  0.00  0.00    +0.210 HD
ENDBRANCH   6   7
BRANCH   5   9
ATOM      9  O   UNL     1       9.379  -1.403  21.692  0.00  0.00    -0.386 OA
ATOM     10  H   UNL     1       8.638  -1.875  21.262  0.00  0.00    +0.210 HD
ENDBRANCH   5   9
BRANCH   4  11
ATOM     11  O   UNL     1      10.456   0.740  22.957  0.00  0.00    -0.383 OA
ATOM     12  H   UNL     1      10.429   1.389  22.226  0.00  0.00    +0.210 HD
ENDBRANCH   4  11
BRANCH   3  13
ATOM     13  O   UNL     1       9.052   2.182  24.922  0.00  0.00    -0.453 OA
BRANCH  13  14
ATOM     14  C   UNL     1       8.166   3.173  24.481  0.00  0.00    +0.214 A 
ATOM     15  C   UNL     1       6.682   2.962  24.489  0.00  0.00    +0.238 A 
ATOM     16  O   UNL     1       6.181   2.010  25.076  0.00  0.00    -0.283 OA
ATOM     17  C   UNL     1       5.841   3.928  23.760  0.00  0.00    +0.109 A 
ATOM     18  C   UNL     1       6.419   5.143  23.413  0.00  0.00    +0.147 A 
ATOM     19  C   UNL     1       5.641   6.155  22.834  0.00  0.00    +0.092 A 
ATOM     20  C   UNL     1       4.292   5.917  22.574  0.00  0.00    +0.124 A 
ATOM     21  C   UNL     1       3.715   4.685  22.858  0.00  0.00    +0.091 A 
ATOM     22  O   UNL     1       7.751   5.404  23.605  0.00  0.00    -0.451 OA
ATOM     23  C   UNL     1       4.492   3.690  23.450  0.00  0.00    +0.135 A 
ATOM     24  C   UNL     1       8.602   4.374  24.019  0.00  0.00    +0.181 A 
BRANCH  24  25
ATOM     25  C   UNL     1      10.040   4.728  23.801  0.00  0.00    +0.025 A 
ATOM     26  C   UNL     1      10.808   3.903  22.944  0.00  0.00    +0.015 A 
ATOM     27  C   UNL     1      12.184   4.097  22.776  0.00  0.00    +0.050 A 
ATOM     28  C   UNL     1      12.799   5.147  23.427  0.00  0.00    +0.158 A 
ATOM     29  C   UNL     1      12.053   6.027  24.202  0.00  0.00    +0.159 A 
ATOM     30  C   UNL     1      10.683   5.826  24.405  0.00  0.00    +0.060 A 
BRANCH  29  31
ATOM     31  O   UNL     1      12.727   7.079  24.758  0.00  0.00    -0.503 OA
ATOM     32  H   UNL     1      13.463   6.711  25.277  0.00  0.00    +0.292 HD
ENDBRANCH  29  31
BRANCH  28  33
ATOM     33  O   UNL     1      14.153   5.292  23.328  0.00  0.00    -0.503 OA
ATOM     34  H   UNL     1      14.511   4.384  23.380  0.00  0.00    +0.292 HD
ENDBRANCH  28  33
ENDBRANCH  24  25
BRANCH  23  35
ATOM     35  O   UNL     1       3.920   2.472  23.693  0.00  0.00    -0.506 OA
ATOM     36  H   UNL     1       3.422   2.496  24.527  0.00  0.00    +0.292 HD
ENDBRANCH  23  35
BRANCH  20  37
ATOM     37  O   UNL     1       3.486   6.868  22.023  0.00  0.00    -0.507 OA
ATOM     38  H   UNL     1       2.640   6.894  22.502  0.00  0.00    +0.292 HD
ENDBRANCH  20  37
ENDBRANCH  13  14
ENDBRANCH   3  13
BRANCH   1  39
ATOM     39  C   UNL     1       8.043  -1.965  26.048  0.00  0.00    +0.197 C 
BRANCH  39  40
ATOM     40  O   UNL     1       7.035  -2.253  25.040  0.00  0.00    -0.345 OA
BRANCH  40  43
ATOM     41  C   UNL     1       7.015  -5.299  26.528  0.00  0.00    +0.203 C 
ATOM     42  O   UNL     1       6.747  -3.895  26.689  0.00  0.00    -0.337 OA
ATOM     43  C   UNL     1       6.246  -3.383  25.446  0.00  0.00    +0.295 C 
ATOM     44  C   UNL     1       6.103  -4.591  24.465  0.00  0.00    +0.275 C 
ATOM     45  C   UNL     1       6.036  -5.773  25.452  0.00  0.00    +0.254 C 
BRANCH  44  46
ATOM     46  O   UNL     1       7.194  -4.780  23.532  0.00  0.00    -0.453 OA
BRANCH  46  47
ATOM     47  C   UNL     1       6.831  -4.514  22.236  0.00  0.00    +0.304 C 
ATOM     48  C   UNL     1       6.507  -5.766  21.471  0.00  0.00    +0.136 C 
ATOM     49  O   UNL     1       6.771  -3.396  21.744  0.00  0.00    -0.251 OA
ENDBRANCH  46  47
ENDBRANCH  44  46
BRANCH  41  50
ATOM     50  C   UNL     1       6.912  -5.961  27.902  0.00  0.00    +0.267 C 
BRANCH  50  51
ATOM     51  O   UNL     1       6.136  -5.154  28.811  0.00  0.00    -0.462 OA
BRANCH  51  53
ATOM     52  C   UNL     1       4.239  -4.801  30.138  0.00  0.00    +0.136 C 
ATOM     53  C   UNL     1       5.096  -5.793  29.409  0.00  0.00    +0.304 C 
ATOM     54  O   UNL     1       4.892  -6.997  29.372  0.00  0.00    -0.251 OA
ENDBRANCH  51  53
ENDBRANCH  50  51
ENDBRANCH  41  50
BRANCH  45  55
ATOM     55  O   UNL     1       4.687  -5.891  25.960  0.00  0.00    -0.455 OA
BRANCH  55  56
ATOM     56  C   UNL     1       3.937  -6.898  25.427  0.00  0.00    +0.304 C 
ATOM     57  C   UNL     1       2.696  -7.126  26.233  0.00  0.00    +0.136 C 
ATOM     58  O   UNL     1       4.273  -7.599  24.483  0.00  0.00    -0.251 OA
ENDBRANCH  55  56
ENDBRANCH  45  55
ENDBRANCH  40  43
ENDBRANCH  39  40
ENDBRANCH   1  39
TORSDOF 20
ENDMDL
MODEL 2
REMARK VINA RESULT:      -7.7      1.221      3.306
REMARK  Name = 
REMARK  23 active torsions:
REMARK  status: ('A' for Active; 'I' for Inactive)
REMARK    1  A    between atoms: C_1  and  C_2
REMARK    2  A    between atoms: C_2  and  O_4
REMARK    3  A    between atoms: O_4  and  C_5
REMARK    4  A    between atoms: C_5  and  C_6
REMARK    5  A    between atoms: C_8  and  O_53
REMARK    6  A    between atoms: C_10  and  O_49
REMARK    7  A    between atoms: C_11  and  O_14
REMARK    8  A    between atoms: O_14  and  C_15
REMARK    9  A    between atoms: C_15  and  C_16
REMARK   10  A    between atoms: C_17  and  O_48
REMARK   11  A    between atoms: C_19  and  O_47
REMARK   12  A    between atoms: C_20  and  O_46
REMARK   13  A    between atoms: C_21  and  O_24
REMARK   14  A    between atoms: O_24  and  C_25
REMARK   15  A    between atoms: C_26  and  C_38
REMARK   16  A    between atoms: C_30  and  O_37
REMARK   17  A    between atoms: C_32  and  O_36
REMARK   18  A    between atoms: C_40  and  O_45
REMARK   19  A    between atoms: C_41  and  O_44
REMARK   20  A    between atoms: O_49  and  C_50
REMARK   21  A    between atoms: C_50  and  C_52
REMARK   22  A    between atoms: O_53  and  C_54
REMARK   23  A    between atoms: C_54  and  C_56
REMARK                            x       y       z     vdW  Elec       q    Type
REMARK                         _______ _______ _______ _____ _____    ______ ____
ROOT
ATOM      1  C   UNL     1       8.957  -1.599  25.407  0.00  0.00    +0.179 C 
ATOM      2  O   UNL     1       9.130  -0.169  25.617  0.00  0.00    -0.331 OA
ATOM      3  C   UNL     1       8.704   0.671  24.512  0.00  0.00    +0.340 C 
ATOM      4  C   UNL     1       9.512   0.289  23.254  0.00  0.00    +0.214 C 
ATOM      5  C   UNL     1       9.379  -1.203  22.940  0.00  0.00    +0.180 C 
ATOM      6  C   UNL     1       9.758  -2.046  24.169  0.00  0.00    +0.177 C 
ENDROOT
BRANCH   6   7
ATOM      7  O   UNL     1       9.603  -3.435  23.893  0.00  0.00    -0.386 OA
ATOM      8  H   UNL     1       8.779  -3.543  23.387  0.00  0.00    +0.210 HD
ENDBRANCH   6   7
BRANCH   5   9
ATOM      9  O   UNL     1      10.258  -1.509  21.841  0.00  0.00    -0.386 OA
ATOM     10  H   UNL     1      10.372  -0.666  21.358  0.00  0.00    +0.210 HD
ENDBRANCH   5   9
BRANCH   4  11
ATOM     11  O   UNL     1      10.925   0.561  23.459  0.00  0.00    -0.383 OA
ATOM     12  H   UNL     1      11.060   1.507  23.251  0.00  0.00    +0.210 HD
ENDBRANCH   4  11
BRANCH   3  13
ATOM     13  O   UNL     1       8.993   2.056  24.854  0.00  0.00    -0.453 OA
BRANCH  13  14
ATOM     14  C   UNL     1       8.115   3.074  24.459  0.00  0.00    +0.214 A 
ATOM     15  C   UNL     1       6.629   2.881  24.474  0.00  0.00    +0.238 A 
ATOM     16  O   UNL     1       6.121   1.914  25.029  0.00  0.00    -0.283 OA
ATOM     17  C   UNL     1       5.793   3.885  23.790  0.00  0.00    +0.109 A 
ATOM     18  C   UNL     1       6.384   5.105  23.484  0.00  0.00    +0.147 A 
ATOM     19  C   UNL     1       5.612   6.147  22.952  0.00  0.00    +0.092 A 
ATOM     20  C   UNL     1       4.259   5.935  22.696  0.00  0.00    +0.124 A 
ATOM     21  C   UNL     1       3.668   4.701  22.938  0.00  0.00    +0.091 A 
ATOM     22  O   UNL     1       7.721   5.341  23.673  0.00  0.00    -0.451 OA
ATOM     23  C   UNL     1       4.438   3.675  23.484  0.00  0.00    +0.135 A 
ATOM     24  C   UNL     1       8.562   4.286  24.039  0.00  0.00    +0.181 A 
BRANCH  24  25
ATOM     25  C   UNL     1      10.003   4.630  23.820  0.00  0.00    +0.025 A 
ATOM     26  C   UNL     1      10.776   3.775  23.000  0.00  0.00    +0.015 A 
ATOM     27  C   UNL     1      12.154   3.960  22.836  0.00  0.00    +0.050 A 
ATOM     28  C   UNL     1      12.765   5.033  23.455  0.00  0.00    +0.158 A 
ATOM     29  C   UNL     1      12.013   5.941  24.191  0.00  0.00    +0.159 A 
ATOM     30  C   UNL     1      10.641   5.749  24.389  0.00  0.00    +0.060 A 
BRANCH  29  31
ATOM     31  O   UNL     1      12.685   7.012  24.714  0.00  0.00    -0.503 OA
ATOM     32  H   UNL     1      12.039   7.546  25.208  0.00  0.00    +0.292 HD
ENDBRANCH  29  31
BRANCH  28  33
ATOM     33  O   UNL     1      14.120   5.172  23.362  0.00  0.00    -0.503 OA
ATOM     34  H   UNL     1      14.297   6.102  23.602  0.00  0.00    +0.292 HD
ENDBRANCH  28  33
ENDBRANCH  24  25
BRANCH  23  35
ATOM     35  O   UNL     1       3.853   2.455  23.687  0.00  0.00    -0.506 OA
ATOM     36  H   UNL     1       3.632   2.044  22.836  0.00  0.00    +0.292 HD
ENDBRANCH  23  35
BRANCH  20  37
ATOM     37  O   UNL     1       3.459   6.917  22.189  0.00  0.00    -0.507 OA
ATOM     38  H   UNL     1       3.096   7.449  22.917  0.00  0.00    +0.292 HD
ENDBRANCH  20  37
ENDBRANCH  13  14
ENDBRANCH   3  13
BRANCH   1  39
ATOM     39  C   UNL     1       7.466  -2.043  25.445  0.00  0.00    +0.197 C 
BRANCH  39  40
ATOM     40  O   UNL     1       6.971  -2.417  26.760  0.00  0.00    -0.345 OA
BRANCH  40  43
ATOM     41  C   UNL     1       5.249  -4.875  25.185  0.00  0.00    +0.203 C 
ATOM     42  O   UNL     1       6.541  -4.288  25.413  0.00  0.00    -0.337 OA
ATOM     43  C   UNL     1       6.587  -3.802  26.762  0.00  0.00    +0.295 C 
ATOM     44  C   UNL     1       5.245  -4.208  27.453  0.00  0.00    +0.275 C 
ATOM     45  C   UNL     1       4.787  -5.375  26.555  0.00  0.00    +0.254 C 
BRANCH  44  46
ATOM     46  O   UNL     1       4.223  -3.183  27.500  0.00  0.00    -0.453 OA
BRANCH  46  47
ATOM     47  C   UNL     1       4.128  -2.591  28.734  0.00  0.00    +0.304 C 
ATOM     48  C   UNL     1       3.807  -3.586  29.814  0.00  0.00    +0.136 C 
ATOM     49  O   UNL     1       4.283  -1.398  28.950  0.00  0.00    -0.251 OA
ENDBRANCH  46  47
ENDBRANCH  44  46
BRANCH  41  50
ATOM     50  C   UNL     1       5.392  -5.920  24.077  0.00  0.00    +0.267 C 
BRANCH  50  51
ATOM     51  O   UNL     1       4.916  -5.406  22.815  0.00  0.00    -0.462 OA
BRANCH  51  53
ATOM     52  C   UNL     1       7.076  -6.036  22.172  0.00  0.00    +0.136 C 
ATOM     53  C   UNL     1       5.877  -5.185  21.880  0.00  0.00    +0.304 C 
ATOM     54  O   UNL     1       5.786  -4.402  20.946  0.00  0.00    -0.251 OA
ENDBRANCH  51  53
ENDBRANCH  50  51
ENDBRANCH  41  50
BRANCH  45  55
ATOM     55  O   UNL     1       5.479  -6.580  26.955  0.00  0.00    -0.455 OA
BRANCH  55  56
ATOM     56  C   UNL     1       5.207  -7.032  28.213  0.00  0.00    +0.304 C 
ATOM     57  C   UNL     1       3.734  -7.014  28.483  0.00  0.00    +0.136 C 
ATOM     58  O   UNL     1       6.049  -7.315  29.054  0.00  0.00    -0.251 OA
ENDBRANCH  55  56
ENDBRANCH  45  55
ENDBRANCH  40  43
ENDBRANCH  39  40
ENDBRANCH   1  39
TORSDOF 20
ENDMDL
MODEL 3
REMARK VINA RESULT:      -7.6      2.360      3.709
REMARK  Name = 
REMARK  23 active torsions:
REMARK  status: ('A' for Active; 'I' for Inactive)
REMARK    1  A    between atoms: C_1  and  C_2
REMARK    2  A    between atoms: C_2  and  O_4
REMARK    3  A    between atoms: O_4  and  C_5
REMARK    4  A    between atoms: C_5  and  C_6
REMARK    5  A    between atoms: C_8  and  O_53
REMARK    6  A    between atoms: C_10  and  O_49
REMARK    7  A    between atoms: C_11  and  O_14
REMARK    8  A    between atoms: O_14  and  C_15
REMARK    9  A    between atoms: C_15  and  C_16
REMARK   10  A    between atoms: C_17  and  O_48
REMARK   11  A    between atoms: C_19  and  O_47
REMARK   12  A    between atoms: C_20  and  O_46
REMARK   13  A    between atoms: C_21  and  O_24
REMARK   14  A    between atoms: O_24  and  C_25
REMARK   15  A    between atoms: C_26  and  C_38
REMARK   16  A    between atoms: C_30  and  O_37
REMARK   17  A    between atoms: C_32  and  O_36
REMARK   18  A    between atoms: C_40  and  O_45
REMARK   19  A    between atoms: C_41  and  O_44
REMARK   20  A    between atoms: O_49  and  C_50
REMARK   21  A    between atoms: C_50  and  C_52
REMARK   22  A    between atoms: O_53  and  C_54
REMARK   23  A    between atoms: C_54  and  C_56
REMARK                            x       y       z     vdW  Elec       q    Type
REMARK                         _______ _______ _______ _____ _____    ______ ____
ROOT
ATOM      1  C   UNL     1      10.078  -1.290  23.810  0.00  0.00    +0.179 C 
ATOM      2  O   UNL     1       9.634  -0.346  24.825  0.00  0.00    -0.331 OA
ATOM      3  C   UNL     1       8.339   0.263  24.575  0.00  0.00    +0.340 C 
ATOM      4  C   UNL     1       8.395   1.021  23.232  0.00  0.00    +0.214 C 
ATOM      5  C   UNL     1       8.840   0.103  22.092  0.00  0.00    +0.180 C 
ATOM      6  C   UNL     1      10.170  -0.583  22.444  0.00  0.00    +0.177 C 
ENDROOT
BRANCH   6   7
ATOM      7  O   UNL     1      10.571  -1.466  21.401  0.00  0.00    -0.386 OA
ATOM      8  H   UNL     1       9.792  -1.637  20.845  0.00  0.00    +0.210 HD
ENDBRANCH   6   7
BRANCH   5   9
ATOM      9  O   UNL     1       8.995   0.904  20.906  0.00  0.00    -0.386 OA
ATOM     10  H   UNL     1       9.959   1.038  20.808  0.00  0.00    +0.210 HD
ENDBRANCH   5   9
BRANCH   4  11
ATOM     11  O   UNL     1       9.355   2.110  23.307  0.00  0.00    -0.383 OA
ATOM     12  H   UNL     1      10.240   1.711  23.185  0.00  0.00    +0.210 HD
ENDBRANCH   4  11
BRANCH   3  13
ATOM     13  O   UNL     1       8.068   1.214  25.642  0.00  0.00    -0.453 OA
BRANCH  13  14
ATOM     14  C   UNL     1       6.751   1.443  26.062  0.00  0.00    +0.214 A 
ATOM     15  C   UNL     1       6.002   0.438  26.884  0.00  0.00    +0.238 A 
ATOM     16  O   UNL     1       6.576  -0.515  27.397  0.00  0.00    -0.283 OA
ATOM     17  C   UNL     1       4.548   0.623  27.048  0.00  0.00    +0.109 A 
ATOM     18  C   UNL     1       4.025   1.872  26.739  0.00  0.00    +0.147 A 
ATOM     19  C   UNL     1       2.676   2.155  26.995  0.00  0.00    +0.092 A 
ATOM     20  C   UNL     1       1.857   1.159  27.523  0.00  0.00    +0.124 A 
ATOM     21  C   UNL     1       2.351  -0.115  27.779  0.00  0.00    +0.091 A 
ATOM     22  O   UNL     1       4.782   2.866  26.173  0.00  0.00    -0.451 OA
ATOM     23  C   UNL     1       3.698  -0.382  27.539  0.00  0.00    +0.135 A 
ATOM     24  C   UNL     1       6.082   2.581  25.744  0.00  0.00    +0.181 A 
BRANCH  24  25
ATOM     25  C   UNL     1       6.600   3.640  24.820  0.00  0.00    +0.025 A 
ATOM     26  C   UNL     1       6.043   3.724  23.522  0.00  0.00    +0.015 A 
ATOM     27  C   UNL     1       6.547   4.608  22.561  0.00  0.00    +0.050 A 
ATOM     28  C   UNL     1       7.586   5.451  22.904  0.00  0.00    +0.158 A 
ATOM     29  C   UNL     1       8.091   5.453  24.198  0.00  0.00    +0.159 A 
ATOM     30  C   UNL     1       7.618   4.552  25.159  0.00  0.00    +0.060 A 
BRANCH  29  31
ATOM     31  O   UNL     1       9.073   6.366  24.472  0.00  0.00    -0.503 OA
ATOM     32  H   UNL     1       9.799   6.207  23.846  0.00  0.00    +0.292 HD
ENDBRANCH  29  31
BRANCH  28  33
ATOM     33  O   UNL     1       8.132   6.258  21.947  0.00  0.00    -0.503 OA
ATOM     34  H   UNL     1       9.090   6.264  22.136  0.00  0.00    +0.292 HD
ENDBRANCH  28  33
ENDBRANCH  24  25
BRANCH  23  35
ATOM     35  O   UNL     1       4.164  -1.648  27.764  0.00  0.00    -0.506 OA
ATOM     36  H   UNL     1       4.241  -2.131  26.924  0.00  0.00    +0.292 HD
ENDBRANCH  23  35
BRANCH  20  37
ATOM     37  O   UNL     1       0.541   1.381  27.801  0.00  0.00    -0.507 OA
ATOM     38  H   UNL     1       0.184   0.631  28.306  0.00  0.00    +0.292 HD
ENDBRANCH  20  37
ENDBRANCH  13  14
ENDBRANCH   3  13
BRANCH   1  39
ATOM     39  C   UNL     1       9.277  -2.624  23.829  0.00  0.00    +0.197 C 
BRANCH  39  40
ATOM     40  O   UNL     1       9.236  -3.296  25.118  0.00  0.00    -0.345 OA
BRANCH  40  43
ATOM     41  C   UNL     1       7.003  -5.350  26.630  0.00  0.00    +0.203 C 
ATOM     42  O   UNL     1       7.839  -4.190  26.777  0.00  0.00    -0.337 OA
ATOM     43  C   UNL     1       7.871  -3.492  25.523  0.00  0.00    +0.295 C 
ATOM     44  C   UNL     1       6.899  -4.233  24.549  0.00  0.00    +0.275 C 
ATOM     45  C   UNL     1       5.990  -4.982  25.545  0.00  0.00    +0.254 C 
BRANCH  44  46
ATOM     46  O   UNL     1       7.514  -5.170  23.633  0.00  0.00    -0.453 OA
BRANCH  46  47
ATOM     47  C   UNL     1       6.806  -5.306  22.466  0.00  0.00    +0.304 C 
ATOM     48  C   UNL     1       6.269  -3.992  21.974  0.00  0.00    +0.136 C 
ATOM     49  O   UNL     1       6.624  -6.364  21.879  0.00  0.00    -0.251 OA
ENDBRANCH  46  47
ENDBRANCH  44  46
BRANCH  41  50
ATOM     50  C   UNL     1       6.446  -5.710  28.008  0.00  0.00    +0.267 C 
BRANCH  50  51
ATOM     51  O   UNL     1       5.612  -6.885  27.940  0.00  0.00    -0.462 OA
BRANCH  51  53
ATOM     52  C   UNL     1       3.314  -6.455  28.045  0.00  0.00    +0.136 C 
ATOM     53  C   UNL     1       4.545  -6.888  28.782  0.00  0.00    +0.304 C 
ATOM     54  O   UNL     1       4.581  -7.186  29.967  0.00  0.00    -0.251 OA
ENDBRANCH  51  53
ENDBRANCH  50  51
ENDBRANCH  41  50
BRANCH  45  55
ATOM     55  O   UNL     1       4.976  -4.074  26.035  0.00  0.00    -0.455 OA
BRANCH  55  56
ATOM     56  C   UNL     1       3.860  -3.955  25.259  0.00  0.00    +0.304 C 
ATOM     57  C   UNL     1       3.579  -5.229  24.525  0.00  0.00    +0.136 C 
ATOM     58  O   UNL     1       3.227  -2.921  25.094  0.00  0.00    -0.251 OA
ENDBRANCH  55  56
ENDBRANCH  45  55
ENDBRANCH  40  43
ENDBRANCH  39  40
ENDBRANCH   1  39
TORSDOF 20
ENDMDL
MODEL 4
REMARK VINA RESULT:      -7.5      2.464      9.180
REMARK  Name = 
REMARK  23 active torsions:
REMARK  status: ('A' for Active; 'I' for Inactive)
REMARK    1  A    between atoms: C_1  and  C_2
REMARK    2  A    between atoms: C_2  and  O_4
REMARK    3  A    between atoms: O_4  and  C_5
REMARK    4  A    between atoms: C_5  and  C_6
REMARK    5  A    between atoms: C_8  and  O_53
REMARK    6  A    between atoms: C_10  and  O_49
REMARK    7  A    between atoms: C_11  and  O_14
REMARK    8  A    between atoms: O_14  and  C_15
REMARK    9  A    between atoms: C_15  and  C_16
REMARK   10  A    between atoms: C_17  and  O_48
REMARK   11  A    between atoms: C_19  and  O_47
REMARK   12  A    between atoms: C_20  and  O_46
REMARK   13  A    between atoms: C_21  and  O_24
REMARK   14  A    between atoms: O_24  and  C_25
REMARK   15  A    between atoms: C_26  and  C_38
REMARK   16  A    between atoms: C_30  and  O_37
REMARK   17  A    between atoms: C_32  and  O_36
REMARK   18  A    between atoms: C_40  and  O_45
REMARK   19  A    between atoms: C_41  and  O_44
REMARK   20  A    between atoms: O_49  and  C_50
REMARK   21  A    between atoms: C_50  and  C_52
REMARK   22  A    between atoms: O_53  and  C_54
REMARK   23  A    between atoms: C_54  and  C_56
REMARK                            x       y       z     vdW  Elec       q    Type
REMARK                         _______ _______ _______ _____ _____    ______ ____
ROOT
ATOM      1  C   UNL     1       8.670   0.530  22.012  0.00  0.00    +0.179 C 
ATOM      2  O   UNL     1       8.534  -0.636  22.872  0.00  0.00    -0.331 OA
ATOM      3  C   UNL     1       8.579  -0.360  24.296  0.00  0.00    +0.340 C 
ATOM      4  C   UNL     1       9.930   0.304  24.632  0.00  0.00    +0.214 C 
ATOM      5  C   UNL     1      10.161   1.558  23.786  0.00  0.00    +0.180 C 
ATOM      6  C   UNL     1      10.015   1.229  22.290  0.00  0.00    +0.177 C 
ENDROOT
BRANCH   6   7
ATOM      7  O   UNL     1      10.194   2.400  21.499  0.00  0.00    -0.386 OA
ATOM      8  H   UNL     1      11.148   2.590  21.468  0.00  0.00    +0.210 HD
ENDBRANCH   6   7
BRANCH   5   9
ATOM      9  O   UNL     1      11.488   2.044  24.057  0.00  0.00    -0.386 OA
ATOM     10  H   UNL     1      11.554   2.898  23.583  0.00  0.00    +0.210 HD
ENDBRANCH   5   9
BRANCH   4  11
ATOM     11  O   UNL     1      11.026  -0.610  24.354  0.00  0.00    -0.383 OA
ATOM     12  H   UNL     1      11.469  -0.278  23.548  0.00  0.00    +0.210 HD
ENDBRANCH   4  11
BRANCH   3  13
ATOM     13  O   UNL     1       8.485  -1.625  25.010  0.00  0.00    -0.453 OA
BRANCH  13  14
ATOM     14  C   UNL     1       7.391  -2.472  24.795  0.00  0.00    +0.214 A 
ATOM     15  C   UNL     1       7.526  -3.752  24.027  0.00  0.00    +0.238 A 
ATOM     16  O   UNL     1       8.628  -4.209  23.746  0.00  0.00    -0.283 OA
ATOM     17  C   UNL     1       6.293  -4.443  23.609  0.00  0.00    +0.109 A 
ATOM     18  C   UNL     1       5.109  -4.070  24.234  0.00  0.00    +0.147 A 
ATOM     19  C   UNL     1       3.924  -4.774  23.978  0.00  0.00    +0.092 A 
ATOM     20  C   UNL     1       3.936  -5.823  23.060  0.00  0.00    +0.124 A 
ATOM     21  C   UNL     1       5.098  -6.166  22.379  0.00  0.00    +0.091 A 
ATOM     22  O   UNL     1       5.040  -3.015  25.106  0.00  0.00    -0.451 OA
ATOM     23  C   UNL     1       6.277  -5.473  22.654  0.00  0.00    +0.135 A 
ATOM     24  C   UNL     1       6.151  -2.179  25.265  0.00  0.00    +0.181 A 
BRANCH  24  25
ATOM     25  C   UNL     1       5.778  -0.891  25.931  0.00  0.00    +0.025 A 
ATOM     26  C   UNL     1       5.916  -0.801  27.337  0.00  0.00    +0.015 A 
ATOM     27  C   UNL     1       5.484   0.324  28.048  0.00  0.00    +0.050 A 
ATOM     28  C   UNL     1       4.950   1.392  27.355  0.00  0.00    +0.158 A 
ATOM     29  C   UNL     1       4.887   1.368  25.967  0.00  0.00    +0.159 A 
ATOM     30  C   UNL     1       5.286   0.237  25.246  0.00  0.00    +0.060 A 
BRANCH  29  31
ATOM     31  O   UNL     1       4.408   2.494  25.355  0.00  0.00    -0.503 OA
ATOM     32  H   UNL     1       3.852   2.961  26.001  0.00  0.00    +0.292 HD
ENDBRANCH  29  31
BRANCH  28  33
ATOM     33  O   UNL     1       4.456   2.458  28.051  0.00  0.00    -0.503 OA
ATOM     34  H   UNL     1       3.678   2.111  28.529  0.00  0.00    +0.292 HD
ENDBRANCH  28  33
ENDBRANCH  24  25
BRANCH  23  35
ATOM     35  O   UNL     1       7.405  -5.800  21.954  0.00  0.00    -0.506 OA
ATOM     36  H   UNL     1       8.175  -5.815  22.546  0.00  0.00    +0.292 HD
ENDBRANCH  23  35
BRANCH  20  37
ATOM     37  O   UNL     1       2.816  -6.548  22.780  0.00  0.00    -0.507 OA
ATOM     38  H   UNL     1       2.587  -7.101  23.545  0.00  0.00    +0.292 HD
ENDBRANCH  20  37
ENDBRANCH  13  14
ENDBRANCH   3  13
BRANCH   1  39
ATOM     39  C   UNL     1       7.414   1.448  22.028  0.00  0.00    +0.197 C 
BRANCH  39  40
ATOM     40  O   UNL     1       7.696   2.871  22.137  0.00  0.00    -0.345 OA
BRANCH  40  43
ATOM     41  C   UNL     1       5.617   5.235  23.393  0.00  0.00    +0.203 C 
ATOM     42  O   UNL     1       5.742   3.867  22.970  0.00  0.00    -0.337 OA
ATOM     43  C   UNL     1       7.059   3.407  23.309  0.00  0.00    +0.295 C 
ATOM     44  C   UNL     1       7.771   4.557  24.091  0.00  0.00    +0.275 C 
ATOM     45  C   UNL     1       6.562   5.375  24.587  0.00  0.00    +0.254 C 
BRANCH  44  46
ATOM     46  O   UNL     1       8.656   5.397  23.312  0.00  0.00    -0.453 OA
BRANCH  46  47
ATOM     47  C   UNL     1       9.916   5.475  23.850  0.00  0.00    +0.304 C 
ATOM     48  C   UNL     1      10.008   6.521  24.926  0.00  0.00    +0.136 C 
ATOM     49  O   UNL     1      10.865   4.783  23.509  0.00  0.00    -0.251 OA
ENDBRANCH  46  47
ENDBRANCH  44  46
BRANCH  41  50
ATOM     50  C   UNL     1       4.135   5.519  23.643  0.00  0.00    +0.267 C 
BRANCH  50  51
ATOM     51  O   UNL     1       3.313   4.932  22.613  0.00  0.00    -0.462 OA
BRANCH  51  53
ATOM     52  C   UNL     1       1.052   4.939  23.220  0.00  0.00    +0.136 C 
ATOM     53  C   UNL     1       2.307   4.135  23.059  0.00  0.00    +0.304 C 
ATOM     54  O   UNL     1       2.408   2.941  23.305  0.00  0.00    -0.251 OA
ENDBRANCH  51  53
ENDBRANCH  50  51
ENDBRANCH  41  50
BRANCH  45  55
ATOM     55  O   UNL     1       6.028   4.754  25.779  0.00  0.00    -0.455 OA
BRANCH  55  56
ATOM     56  C   UNL     1       6.776   4.897  26.911  0.00  0.00    +0.304 C 
ATOM     57  C   UNL     1       6.979   6.344  27.240  0.00  0.00    +0.136 C 
ATOM     58  O   UNL     1       7.304   3.980  27.523  0.00  0.00    -0.251 OA
ENDBRANCH  55  56
ENDBRANCH  45  55
ENDBRANCH  40  43
ENDBRANCH  39  40
ENDBRANCH   1  39
TORSDOF 20
ENDMDL
MODEL 5
REMARK VINA RESULT:      -7.4      2.198      5.779
REMARK  Name = 
REMARK  23 active torsions:
REMARK  status: ('A' for Active; 'I' for Inactive)
REMARK    1  A    between atoms: C_1  and  C_2
REMARK    2  A    between atoms: C_2  and  O_4
REMARK    3  A    between atoms: O_4  and  C_5
REMARK    4  A    between atoms: C_5  and  C_6
REMARK    5  A    between atoms: C_8  and  O_53
REMARK    6  A    between atoms: C_10  and  O_49
REMARK    7  A    between atoms: C_11  and  O_14
REMARK    8  A    between atoms: O_14  and  C_15
REMARK    9  A    between atoms: C_15  and  C_16
REMARK   10  A    between atoms: C_17  and  O_48
REMARK   11  A    between atoms: C_19  and  O_47
REMARK   12  A    between atoms: C_20  and  O_46
REMARK   13  A    between atoms: C_21  and  O_24
REMARK   14  A    between atoms: O_24  and  C_25
REMARK   15  A    between atoms: C_26  and  C_38
REMARK   16  A    between atoms: C_30  and  O_37
REMARK   17  A    between atoms: C_32  and  O_36
REMARK   18  A    between atoms: C_40  and  O_45
REMARK   19  A    between atoms: C_41  and  O_44
REMARK   20  A    between atoms: O_49  and  C_50
REMARK   21  A    between atoms: C_50  and  C_52
REMARK   22  A    between atoms: O_53  and  C_54
REMARK   23  A    between atoms: C_54  and  C_56
REMARK                            x       y       z     vdW  Elec       q    Type
REMARK                         _______ _______ _______ _____ _____    ______ ____
ROOT
ATOM      1  C   UNL     1       8.614  -3.613  25.984  0.00  0.00    +0.179 C 
ATOM      2  O   UNL     1       8.955  -2.247  26.354  0.00  0.00    -0.331 OA
ATOM      3  C   UNL     1       8.243  -1.215  25.623  0.00  0.00    +0.340 C 
ATOM      4  C   UNL     1       8.542  -1.373  24.118  0.00  0.00    +0.214 C 
ATOM      5  C   UNL     1       8.199  -2.781  23.627  0.00  0.00    +0.180 C 
ATOM      6  C   UNL     1       8.909  -3.838  24.489  0.00  0.00    +0.177 C 
ENDROOT
BRANCH   6   7
ATOM      7  O   UNL     1       8.565  -5.151  24.058  0.00  0.00    -0.386 OA
ATOM      8  H   UNL     1       9.226  -5.427  23.400  0.00  0.00    +0.210 HD
ENDBRANCH   6   7
BRANCH   5   9
ATOM      9  O   UNL     1       8.625  -2.894  22.256  0.00  0.00    -0.386 OA
ATOM     10  H   UNL     1       9.593  -2.754  22.273  0.00  0.00    +0.210 HD
ENDBRANCH   5   9
BRANCH   4  11
ATOM     11  O   UNL     1       9.957  -1.160  23.859  0.00  0.00    -0.383 OA
ATOM     12  H   UNL     1      10.114  -1.421  22.930  0.00  0.00    +0.210 HD
ENDBRANCH   4  11
BRANCH   3  13
ATOM     13  O   UNL     1       8.734   0.081  26.068  0.00  0.00    -0.453 OA
BRANCH  13  14
ATOM     14  C   UNL     1       8.234   1.257  25.494  0.00  0.00    +0.214 A 
ATOM     15  C   UNL     1       9.100   2.157  24.665  0.00  0.00    +0.238 A 
ATOM     16  O   UNL     1      10.206   1.796  24.283  0.00  0.00    -0.283 OA
ATOM     17  C   UNL     1       8.585   3.499  24.333  0.00  0.00    +0.109 A 
ATOM     18  C   UNL     1       7.223   3.718  24.498  0.00  0.00    +0.147 A 
ATOM     19  C   UNL     1       6.648   4.926  24.079  0.00  0.00    +0.092 A 
ATOM     20  C   UNL     1       7.461   5.919  23.534  0.00  0.00    +0.124 A 
ATOM     21  C   UNL     1       8.834   5.737  23.420  0.00  0.00    +0.091 A 
ATOM     22  O   UNL     1       6.394   2.791  25.074  0.00  0.00    -0.451 OA
ATOM     23  C   UNL     1       9.396   4.526  23.822  0.00  0.00    +0.135 A 
ATOM     24  C   UNL     1       6.943   1.646  25.660  0.00  0.00    +0.181 A 
BRANCH  24  25
ATOM     25  C   UNL     1       5.960   0.964  26.560  0.00  0.00    +0.025 A 
ATOM     26  C   UNL     1       6.104   1.134  27.957  0.00  0.00    +0.015 A 
ATOM     27  C   UNL     1       5.300   0.442  28.869  0.00  0.00    +0.050 A 
ATOM     28  C   UNL     1       4.310  -0.394  28.392  0.00  0.00    +0.158 A 
ATOM     29  C   UNL     1       4.087  -0.510  27.026  0.00  0.00    +0.159 A 
ATOM     30  C   UNL     1       4.905   0.151  26.102  0.00  0.00    +0.060 A 
BRANCH  29  31
ATOM     31  O   UNL     1       3.043  -1.306  26.640  0.00  0.00    -0.503 OA
ATOM     32  H   UNL     1       2.887  -1.141  25.694  0.00  0.00    +0.292 HD
ENDBRANCH  29  31
BRANCH  28  33
ATOM     33  O   UNL     1       3.576  -1.131  29.277  0.00  0.00    -0.503 OA
ATOM     34  H   UNL     1       3.317  -1.934  28.787  0.00  0.00    +0.292 HD
ENDBRANCH  28  33
ENDBRANCH  24  25
BRANCH  23  35
ATOM     35  O   UNL     1      10.752   4.373  23.735  0.00  0.00    -0.506 OA
ATOM     36  H   UNL     1      11.196   5.222  23.898  0.00  0.00    +0.292 HD
ENDBRANCH  23  35
BRANCH  20  37
ATOM     37  O   UNL     1       6.954   7.108  23.101  0.00  0.00    -0.507 OA
ATOM     38  H   UNL     1       5.998   7.136  23.273  0.00  0.00    +0.292 HD
ENDBRANCH  20  37
ENDBRANCH  13  14
ENDBRANCH   3  13
BRANCH   1  39
ATOM     39  C   UNL     1       7.196  -4.037  26.466  0.00  0.00    +0.197 C 
BRANCH  39  40
ATOM     40  O   UNL     1       7.063  -5.441  26.819  0.00  0.00    -0.345 OA
BRANCH  40  43
ATOM     41  C   UNL     1       4.323  -4.925  24.890  0.00  0.00    +0.203 C 
ATOM     42  O   UNL     1       5.730  -5.222  24.901  0.00  0.00    -0.337 OA
ATOM     43  C   UNL     1       6.012  -6.042  26.044  0.00  0.00    +0.295 C 
ATOM     44  C   UNL     1       4.650  -6.357  26.743  0.00  0.00    +0.275 C 
ATOM     45  C   UNL     1       3.657  -6.112  25.589  0.00  0.00    +0.254 C 
BRANCH  44  46
ATOM     46  O   UNL     1       4.314  -5.521  27.876  0.00  0.00    -0.453 OA
BRANCH  46  47
ATOM     47  C   UNL     1       4.659  -6.094  29.074  0.00  0.00    +0.304 C 
ATOM     48  C   UNL     1       4.958  -5.065  30.128  0.00  0.00    +0.136 C 
ATOM     49  O   UNL     1       4.721  -7.298  29.280  0.00  0.00    -0.251 OA
ENDBRANCH  46  47
ENDBRANCH  44  46
BRANCH  41  50
ATOM     50  C   UNL     1       3.909  -4.649  23.444  0.00  0.00    +0.267 C 
BRANCH  50  51
ATOM     51  O   UNL     1       4.677  -5.449  22.522  0.00  0.00    -0.462 OA
BRANCH  51  53
ATOM     52  C   UNL     1       6.621  -5.701  21.242  0.00  0.00    +0.136 C 
ATOM     53  C   UNL     1       5.579  -4.762  21.772  0.00  0.00    +0.304 C 
ATOM     54  O   UNL     1       5.555  -3.558  21.566  0.00  0.00    -0.251 OA
ENDBRANCH  51  53
ENDBRANCH  50  51
ENDBRANCH  41  50
BRANCH  45  55
ATOM     55  O   UNL     1       3.614  -7.285  24.745  0.00  0.00    -0.455 OA
BRANCH  55  56
ATOM     56  C   UNL     1       2.435  -7.971  24.740  0.00  0.00    +0.304 C 
ATOM     57  C   UNL     1       1.269  -7.032  24.709  0.00  0.00    +0.136 C 
ATOM     58  O   UNL     1       2.329  -9.184  24.852  0.00  0.00    -0.251 OA
ENDBRANCH  55  56
ENDBRANCH  45  55
ENDBRANCH  40  43
ENDBRANCH  39  40
ENDBRANCH   1  39
TORSDOF 20
ENDMDL
MODEL 6
REMARK VINA RESULT:      -7.1      2.552     10.151
REMARK  Name = 
REMARK  23 active torsions:
REMARK  status: ('A' for Active; 'I' for Inactive)
REMARK    1  A    between atoms: C_1  and  C_2
REMARK    2  A    between atoms: C_2  and  O_4
REMARK    3  A    between atoms: O_4  and  C_5
REMARK    4  A    between atoms: C_5  and  C_6
REMARK    5  A    between atoms: C_8  and  O_53
REMARK    6  A    between atoms: C_10  and  O_49
REMARK    7  A    between atoms: C_11  and  O_14
REMARK    8  A    between atoms: O_14  and  C_15
REMARK    9  A    between atoms: C_15  and  C_16
REMARK   10  A    between atoms: C_17  and  O_48
REMARK   11  A    between atoms: C_19  and  O_47
REMARK   12  A    between atoms: C_20  and  O_46
REMARK   13  A    between atoms: C_21  and  O_24
REMARK   14  A    between atoms: O_24  and  C_25
REMARK   15  A    between atoms: C_26  and  C_38
REMARK   16  A    between atoms: C_30  and  O_37
REMARK   17  A    between atoms: C_32  and  O_36
REMARK   18  A    between atoms: C_40  and  O_45
REMARK   19  A    between atoms: C_41  and  O_44
REMARK   20  A    between atoms: O_49  and  C_50
REMARK   21  A    between atoms: C_50  and  C_52
REMARK   22  A    between atoms: O_53  and  C_54
REMARK   23  A    between atoms: C_54  and  C_56
REMARK                            x       y       z     vdW  Elec       q    Type
REMARK                         _______ _______ _______ _____ _____    ______ ____
ROOT
ATOM      1  C   UNL     1       5.724   0.163  26.815  0.00  0.00    +0.179 C 
ATOM      2  O   UNL     1       5.749  -1.224  27.256  0.00  0.00    -0.331 OA
ATOM      3  C   UNL     1       4.502  -1.948  27.081  0.00  0.00    +0.340 C 
ATOM      4  C   UNL     1       3.393  -1.231  27.877  0.00  0.00    +0.214 C 
ATOM      5  C   UNL     1       3.277   0.240  27.471  0.00  0.00    +0.180 C 
ATOM      6  C   UNL     1       4.642   0.938  27.591  0.00  0.00    +0.177 C 
ENDROOT
BRANCH   6   7
ATOM      7  O   UNL     1       4.548   2.299  27.181  0.00  0.00    -0.386 OA
ATOM      8  H   UNL     1       4.918   2.847  27.894  0.00  0.00    +0.210 HD
ENDBRANCH   6   7
BRANCH   5   9
ATOM      9  O   UNL     1       2.321   0.872  28.342  0.00  0.00    -0.386 OA
ATOM     10  H   UNL     1       2.765   0.938  29.211  0.00  0.00    +0.210 HD
ENDBRANCH   5   9
BRANCH   4  11
ATOM     11  O   UNL     1       3.692  -1.262  29.300  0.00  0.00    -0.383 OA
ATOM     12  H   UNL     1       3.691  -2.204  29.565  0.00  0.00    +0.210 HD
ENDBRANCH   4  11
BRANCH   3  13
ATOM     13  O   UNL     1       4.675  -3.290  27.616  0.00  0.00    -0.453 OA
BRANCH  13  14
ATOM     14  C   UNL     1       4.211  -4.399  26.896  0.00  0.00    +0.214 A 
ATOM     15  C   UNL     1       2.870  -5.010  27.172  0.00  0.00    +0.238 A 
ATOM     16  O   UNL     1       2.048  -4.441  27.879  0.00  0.00    -0.283 OA
ATOM     17  C   UNL     1       2.573  -6.326  26.575  0.00  0.00    +0.109 A 
ATOM     18  C   UNL     1       3.388  -6.752  25.534  0.00  0.00    +0.147 A 
ATOM     19  C   UNL     1       3.083  -7.930  24.838  0.00  0.00    +0.092 A 
ATOM     20  C   UNL     1       1.981  -8.689  25.227  0.00  0.00    +0.124 A 
ATOM     21  C   UNL     1       1.193  -8.308  26.307  0.00  0.00    +0.091 A 
ATOM     22  O   UNL     1       4.509  -6.064  25.149  0.00  0.00    -0.451 OA
ATOM     23  C   UNL     1       1.492  -7.126  26.982  0.00  0.00    +0.135 A 
ATOM     24  C   UNL     1       4.950  -4.981  25.917  0.00  0.00    +0.181 A 
BRANCH  24  25
ATOM     25  C   UNL     1       6.362  -4.611  25.586  0.00  0.00    +0.025 A 
ATOM     26  C   UNL     1       6.585  -3.726  24.504  0.00  0.00    +0.015 A 
ATOM     27  C   UNL     1       7.875  -3.420  24.058  0.00  0.00    +0.050 A 
ATOM     28  C   UNL     1       8.960  -3.960  24.719  0.00  0.00    +0.158 A 
ATOM     29  C   UNL     1       8.773  -4.759  25.840  0.00  0.00    +0.159 A 
ATOM     30  C   UNL     1       7.488  -5.099  26.277  0.00  0.00    +0.060 A 
BRANCH  29  31
ATOM     31  O   UNL     1       9.902  -5.199  26.476  0.00  0.00    -0.503 OA
ATOM     32  H   UNL     1       9.883  -4.840  27.380  0.00  0.00    +0.292 HD
ENDBRANCH  29  31
BRANCH  28  33
ATOM     33  O   UNL     1      10.217  -3.727  24.239  0.00  0.00    -0.503 OA
ATOM     34  H   UNL     1      10.799  -3.760  25.022  0.00  0.00    +0.292 HD
ENDBRANCH  28  33
ENDBRANCH  24  25
BRANCH  23  35
ATOM     35  O   UNL     1       0.730  -6.779  28.063  0.00  0.00    -0.506 OA
ATOM     36  H   UNL     1       0.053  -6.133  27.803  0.00  0.00    +0.292 HD
ENDBRANCH  23  35
BRANCH  20  37
ATOM     37  O   UNL     1       1.632  -9.837  24.579  0.00  0.00    -0.507 OA
ATOM     38  H   UNL     1       0.683 -10.007  24.706  0.00  0.00    +0.292 HD
ENDBRANCH  20  37
ENDBRANCH  13  14
ENDBRANCH   3  13
BRANCH   1  39
ATOM     39  C   UNL     1       5.682   0.308  25.267  0.00  0.00    +0.197 C 
BRANCH  39  40
ATOM     40  O   UNL     1       5.456   1.661  24.784  0.00  0.00    -0.345 OA
BRANCH  40  43
ATOM     41  C   UNL     1       8.843   1.522  24.846  0.00  0.00    +0.203 C 
ATOM     42  O   UNL     1       7.652   1.167  24.123  0.00  0.00    -0.337 OA
ATOM     43  C   UNL     1       6.688   2.216  24.294  0.00  0.00    +0.295 C 
ATOM     44  C   UNL     1       7.375   3.356  25.112  0.00  0.00    +0.275 C 
ATOM     45  C   UNL     1       8.865   3.052  24.858  0.00  0.00    +0.254 C 
BRANCH  44  46
ATOM     46  O   UNL     1       7.104   3.366  26.534  0.00  0.00    -0.453 OA
BRANCH  46  47
ATOM     47  C   UNL     1       7.060   4.636  27.053  0.00  0.00    +0.304 C 
ATOM     48  C   UNL     1       6.428   5.613  26.101  0.00  0.00    +0.136 C 
ATOM     49  O   UNL     1       7.479   4.954  28.157  0.00  0.00    -0.251 OA
ENDBRANCH  46  47
ENDBRANCH  44  46
BRANCH  41  50
ATOM     50  C   UNL     1      10.027   0.815  24.186  0.00  0.00    +0.267 C 
BRANCH  50  51
ATOM     51  O   UNL     1       9.663  -0.513  23.753  0.00  0.00    -0.462 OA
BRANCH  51  53
ATOM     52  C   UNL     1       9.580   0.173  21.517  0.00  0.00    +0.136 C 
ATOM     53  C   UNL     1      10.072  -0.846  22.500  0.00  0.00    +0.304 C 
ATOM     54  O   UNL     1      10.731  -1.834  22.212  0.00  0.00    -0.251 OA
ENDBRANCH  51  53
ENDBRANCH  50  51
ENDBRANCH  41  50
BRANCH  45  55
ATOM     55  O   UNL     1       9.248   3.599  23.575  0.00  0.00    -0.455 OA
BRANCH  55  56
ATOM     56  C   UNL     1      10.325   4.436  23.583  0.00  0.00    +0.304 C 
ATOM     57  C   UNL     1       9.895   5.860  23.750  0.00  0.00    +0.136 C 
ATOM     58  O   UNL     1      11.481   4.094  23.376  0.00  0.00    -0.251 OA
ENDBRANCH  55  56
ENDBRANCH  45  55
ENDBRANCH  40  43
ENDBRANCH  39  40
ENDBRANCH   1  39
TORSDOF 20
ENDMDL
MODEL 7
REMARK VINA RESULT:      -7.1      2.521      3.953
REMARK  Name = 
REMARK  23 active torsions:
REMARK  status: ('A' for Active; 'I' for Inactive)
REMARK    1  A    between atoms: C_1  and  C_2
REMARK    2  A    between atoms: C_2  and  O_4
REMARK    3  A    between atoms: O_4  and  C_5
REMARK    4  A    between atoms: C_5  and  C_6
REMARK    5  A    between atoms: C_8  and  O_53
REMARK    6  A    between atoms: C_10  and  O_49
REMARK    7  A    between atoms: C_11  and  O_14
REMARK    8  A    between atoms: O_14  and  C_15
REMARK    9  A    between atoms: C_15  and  C_16
REMARK   10  A    between atoms: C_17  and  O_48
REMARK   11  A    between atoms: C_19  and  O_47
REMARK   12  A    between atoms: C_20  and  O_46
REMARK   13  A    between atoms: C_21  and  O_24
REMARK   14  A    between atoms: O_24  and  C_25
REMARK   15  A    between atoms: C_26  and  C_38
REMARK   16  A    between atoms: C_30  and  O_37
REMARK   17  A    between atoms: C_32  and  O_36
REMARK   18  A    between atoms: C_40  and  O_45
REMARK   19  A    between atoms: C_41  and  O_44
REMARK   20  A    between atoms: O_49  and  C_50
REMARK   21  A    between atoms: C_50  and  C_52
REMARK   22  A    between atoms: O_53  and  C_54
REMARK   23  A    between atoms: C_54  and  C_56
REMARK                            x       y       z     vdW  Elec       q    Type
REMARK                         _______ _______ _______ _____ _____    ______ ____
ROOT
ATOM      1  C   UNL     1       9.329  -1.822  23.736  0.00  0.00    +0.179 C 
ATOM      2  O   UNL     1       8.971  -1.029  24.903  0.00  0.00    -0.331 OA
ATOM      3  C   UNL     1       8.163   0.145  24.625  0.00  0.00    +0.340 C 
ATOM      4  C   UNL     1       8.938   1.067  23.661  0.00  0.00    +0.214 C 
ATOM      5  C   UNL     1       9.348   0.324  22.388  0.00  0.00    +0.180 C 
ATOM      6  C   UNL     1      10.125  -0.956  22.741  0.00  0.00    +0.177 C 
ENDROOT
BRANCH   6   7
ATOM      7  O   UNL     1      10.479  -1.670  21.561  0.00  0.00    -0.386 OA
ATOM      8  H   UNL     1       9.670  -1.785  21.033  0.00  0.00    +0.210 HD
ENDBRANCH   6   7
BRANCH   5   9
ATOM      9  O   UNL     1      10.175   1.203  21.603  0.00  0.00    -0.386 OA
ATOM     10  H   UNL     1       9.771   2.089  21.694  0.00  0.00    +0.210 HD
ENDBRANCH   5   9
BRANCH   4  11
ATOM     11  O   UNL     1      10.158   1.545  24.292  0.00  0.00    -0.383 OA
ATOM     12  H   UNL     1      10.625   2.084  23.623  0.00  0.00    +0.210 HD
ENDBRANCH   4  11
BRANCH   3  13
ATOM     13  O   UNL     1       7.939   0.852  25.877  0.00  0.00    -0.453 OA
BRANCH  13  14
ATOM     14  C   UNL     1       6.665   1.345  26.187  0.00  0.00    +0.214 A 
ATOM     15  C   UNL     1       5.655   0.509  26.914  0.00  0.00    +0.238 A 
ATOM     16  O   UNL     1       5.973  -0.547  27.448  0.00  0.00    -0.283 OA
ATOM     17  C   UNL     1       4.261   0.989  26.958  0.00  0.00    +0.109 A 
ATOM     18  C   UNL     1       4.036   2.322  26.639  0.00  0.00    +0.147 A 
ATOM     19  C   UNL     1       2.756   2.875  26.786  0.00  0.00    +0.092 A 
ATOM     20  C   UNL     1       1.705   2.065  27.214  0.00  0.00    +0.124 A 
ATOM     21  C   UNL     1       1.903   0.715  27.476  0.00  0.00    +0.091 A 
ATOM     22  O   UNL     1       5.028   3.143  26.168  0.00  0.00    -0.451 OA
ATOM     23  C   UNL     1       3.182   0.177  27.345  0.00  0.00    +0.135 A 
ATOM     24  C   UNL     1       6.275   2.600  25.845  0.00  0.00    +0.181 A 
BRANCH  24  25
ATOM     25  C   UNL     1       7.080   3.537  24.999  0.00  0.00    +0.025 A 
ATOM     26  C   UNL     1       8.179   4.200  25.596  0.00  0.00    +0.015 A 
ATOM     27  C   UNL     1       8.910   5.176  24.911  0.00  0.00    +0.050 A 
ATOM     28  C   UNL     1       8.581   5.466  23.602  0.00  0.00    +0.158 A 
ATOM     29  C   UNL     1       7.566   4.765  22.961  0.00  0.00    +0.159 A 
ATOM     30  C   UNL     1       6.805   3.811  23.645  0.00  0.00    +0.060 A 
BRANCH  29  31
ATOM     31  O   UNL     1       7.349   5.067  21.644  0.00  0.00    -0.503 OA
ATOM     32  H   UNL     1       8.131   5.545  21.323  0.00  0.00    +0.292 HD
ENDBRANCH  29  31
BRANCH  28  33
ATOM     33  O   UNL     1       9.241   6.471  22.955  0.00  0.00    -0.503 OA
ATOM     34  H   UNL     1      10.169   6.398  23.251  0.00  0.00    +0.292 HD
ENDBRANCH  28  33
ENDBRANCH  24  25
BRANCH  23  35
ATOM     35  O   UNL     1       3.356  -1.160  27.574  0.00  0.00    -0.506 OA
ATOM     36  H   UNL     1       2.770  -1.678  26.997  0.00  0.00    +0.292 HD
ENDBRANCH  23  35
BRANCH  20  37
ATOM     37  O   UNL     1       0.443   2.552  27.384  0.00  0.00    -0.507 OA
ATOM     38  H   UNL     1       0.425   3.497  27.154  0.00  0.00    +0.292 HD
ENDBRANCH  20  37
ENDBRANCH  13  14
ENDBRANCH   3  13
BRANCH   1  39
ATOM     39  C   UNL     1       8.125  -2.605  23.140  0.00  0.00    +0.197 C 
BRANCH  39  40
ATOM     40  O   UNL     1       6.823  -2.216  23.659  0.00  0.00    -0.345 OA
BRANCH  40  43
ATOM     41  C   UNL     1       4.159  -3.582  25.250  0.00  0.00    +0.203 C 
ATOM     42  O   UNL     1       4.636  -2.977  24.037  0.00  0.00    -0.337 OA
ATOM     43  C   UNL     1       5.998  -3.380  23.833  0.00  0.00    +0.295 C 
ATOM     44  C   UNL     1       6.361  -4.396  24.964  0.00  0.00    +0.275 C 
ATOM     45  C   UNL     1       4.961  -4.877  25.394  0.00  0.00    +0.254 C 
BRANCH  44  46
ATOM     46  O   UNL     1       7.071  -3.848  26.101  0.00  0.00    -0.453 OA
BRANCH  46  47
ATOM     47  C   UNL     1       7.913  -4.762  26.684  0.00  0.00    +0.304 C 
ATOM     48  C   UNL     1       9.293  -4.716  26.092  0.00  0.00    +0.136 C 
ATOM     49  O   UNL     1       7.596  -5.529  27.582  0.00  0.00    -0.251 OA
ENDBRANCH  46  47
ENDBRANCH  44  46
BRANCH  41  50
ATOM     50  C   UNL     1       2.639  -3.714  25.147  0.00  0.00    +0.267 C 
BRANCH  50  51
ATOM     51  O   UNL     1       2.013  -3.510  26.431  0.00  0.00    -0.462 OA
BRANCH  51  53
ATOM     52  C   UNL     1       2.378  -4.559  28.492  0.00  0.00    +0.136 C 
ATOM     53  C   UNL     1       1.749  -4.644  27.133  0.00  0.00    +0.304 C 
ATOM     54  O   UNL     1       1.106  -5.597  26.719  0.00  0.00    -0.251 OA
ENDBRANCH  51  53
ENDBRANCH  50  51
ENDBRANCH  41  50
BRANCH  45  55
ATOM     55  O   UNL     1       4.509  -5.900  24.477  0.00  0.00    -0.455 OA
BRANCH  55  56
ATOM     56  C   UNL     1       4.076  -7.061  25.047  0.00  0.00    +0.304 C 
ATOM     57  C   UNL     1       4.432  -7.110  26.501  0.00  0.00    +0.136 C 
ATOM     58  O   UNL     1       3.560  -7.991  24.442  0.00  0.00    -0.251 OA
ENDBRANCH  55  56
ENDBRANCH  45  55
ENDBRANCH  40  43
ENDBRANCH  39  40
ENDBRANCH   1  39
TORSDOF 20
ENDMDL
MODEL 8
REMARK VINA RESULT:      -7.0      2.492      4.369
REMARK  Name = 
REMARK  23 active torsions:
REMARK  status: ('A' for Active; 'I' for Inactive)
REMARK    1  A    between atoms: C_1  and  C_2
REMARK    2  A    between atoms: C_2  and  O_4
REMARK    3  A    between atoms: O_4  and  C_5
REMARK    4  A    between atoms: C_5  and  C_6
REMARK    5  A    between atoms: C_8  and  O_53
REMARK    6  A    between atoms: C_10  and  O_49
REMARK    7  A    between atoms: C_11  and  O_14
REMARK    8  A    between atoms: O_14  and  C_15
REMARK    9  A    between atoms: C_15  and  C_16
REMARK   10  A    between atoms: C_17  and  O_48
REMARK   11  A    between atoms: C_19  and  O_47
REMARK   12  A    between atoms: C_20  and  O_46
REMARK   13  A    between atoms: C_21  and  O_24
REMARK   14  A    between atoms: O_24  and  C_25
REMARK   15  A    between atoms: C_26  and  C_38
REMARK   16  A    between atoms: C_30  and  O_37
REMARK   17  A    between atoms: C_32  and  O_36
REMARK   18  A    between atoms: C_40  and  O_45
REMARK   19  A    between atoms: C_41  and  O_44
REMARK   20  A    between atoms: O_49  and  C_50
REMARK   21  A    between atoms: C_50  and  C_52
REMARK   22  A    between atoms: O_53  and  C_54
REMARK   23  A    between atoms: C_54  and  C_56
REMARK                            x       y       z     vdW  Elec       q    Type
REMARK                         _______ _______ _______ _____ _____    ______ ____
ROOT
ATOM      1  C   UNL     1       8.770  -1.643  24.969  0.00  0.00    +0.179 C 
ATOM      2  O   UNL     1       7.976  -0.429  24.847  0.00  0.00    -0.331 OA
ATOM      3  C   UNL     1       7.140  -0.355  23.662  0.00  0.00    +0.340 C 
ATOM      4  C   UNL     1       8.039  -0.446  22.412  0.00  0.00    +0.214 C 
ATOM      5  C   UNL     1       8.906  -1.706  22.439  0.00  0.00    +0.180 C 
ATOM      6  C   UNL     1       9.704  -1.780  23.752  0.00  0.00    +0.177 C 
ENDROOT
BRANCH   6   7
ATOM      7  O   UNL     1      10.487  -2.969  23.797  0.00  0.00    -0.386 OA
ATOM      8  H   UNL     1      11.375  -2.748  23.468  0.00  0.00    +0.210 HD
ENDBRANCH   6   7
BRANCH   5   9
ATOM      9  O   UNL     1       9.805  -1.655  21.316  0.00  0.00    -0.386 OA
ATOM     10  H   UNL     1      10.691  -1.850  21.684  0.00  0.00    +0.210 HD
ENDBRANCH   5   9
BRANCH   4  11
ATOM     11  O   UNL     1       8.939   0.695  22.353  0.00  0.00    -0.383 OA
ATOM     12  H   UNL     1       8.413   1.448  22.018  0.00  0.00    +0.210 HD
ENDBRANCH   4  11
BRANCH   3  13
ATOM     13  O   UNL     1       6.460   0.931  23.663  0.00  0.00    -0.453 OA
BRANCH  13  14
ATOM     14  C   UNL     1       6.015   1.490  24.867  0.00  0.00    +0.214 A 
ATOM     15  C   UNL     1       4.948   0.834  25.691  0.00  0.00    +0.238 A 
ATOM     16  O   UNL     1       4.582  -0.312  25.457  0.00  0.00    -0.283 OA
ATOM     17  C   UNL     1       4.342   1.612  26.787  0.00  0.00    +0.109 A 
ATOM     18  C   UNL     1       5.018   2.749  27.212  0.00  0.00    +0.147 A 
ATOM     19  C   UNL     1       4.567   3.461  28.332  0.00  0.00    +0.092 A 
ATOM     20  C   UNL     1       3.412   3.041  28.990  0.00  0.00    +0.124 A 
ATOM     21  C   UNL     1       2.690   1.943  28.539  0.00  0.00    +0.091 A 
ATOM     22  O   UNL     1       6.130   3.226  26.566  0.00  0.00    -0.451 OA
ATOM     23  C   UNL     1       3.156   1.229  27.435  0.00  0.00    +0.135 A 
ATOM     24  C   UNL     1       6.519   2.654  25.351  0.00  0.00    +0.181 A 
BRANCH  24  25
ATOM     25  C   UNL     1       7.484   3.531  24.615  0.00  0.00    +0.025 A 
ATOM     26  C   UNL     1       8.866   3.246  24.729  0.00  0.00    +0.015 A 
ATOM     27  C   UNL     1       9.838   4.082  24.168  0.00  0.00    +0.050 A 
ATOM     28  C   UNL     1       9.437   5.189  23.446  0.00  0.00    +0.158 A 
ATOM     29  C   UNL     1       8.086   5.442  23.241  0.00  0.00    +0.159 A 
ATOM     30  C   UNL     1       7.104   4.632  23.824  0.00  0.00    +0.060 A 
BRANCH  29  31
ATOM     31  O   UNL     1       7.775   6.520  22.458  0.00  0.00    -0.503 OA
ATOM     32  H   UNL     1       8.612   6.929  22.183  0.00  0.00    +0.292 HD
ENDBRANCH  29  31
BRANCH  28  33
ATOM     33  O   UNL     1      10.381   6.049  22.965  0.00  0.00    -0.503 OA
ATOM     34  H   UNL     1      10.467   5.829  22.017  0.00  0.00    +0.292 HD
ENDBRANCH  28  33
ENDBRANCH  24  25
BRANCH  23  35
ATOM     35  O   UNL     1       2.418   0.171  26.982  0.00  0.00    -0.506 OA
ATOM     36  H   UNL     1       2.928  -0.652  27.064  0.00  0.00    +0.292 HD
ENDBRANCH  23  35
BRANCH  20  37
ATOM     37  O   UNL     1       2.934   3.689  30.090  0.00  0.00    -0.507 OA
ATOM     38  H   UNL     1       3.510   3.507  30.851  0.00  0.00    +0.292 HD
ENDBRANCH  20  37
ENDBRANCH  13  14
ENDBRANCH   3  13
BRANCH   1  39
ATOM     39  C   UNL     1       7.914  -2.896  25.310  0.00  0.00    +0.197 C 
BRANCH  39  40
ATOM     40  O   UNL     1       8.158  -3.466  26.625  0.00  0.00    -0.345 OA
BRANCH  40  43
ATOM     41  C   UNL     1       5.573  -5.335  25.477  0.00  0.00    +0.203 C 
ATOM     42  O   UNL     1       7.002  -5.177  25.511  0.00  0.00    -0.337 OA
ATOM     43  C   UNL     1       7.369  -4.656  26.797  0.00  0.00    +0.295 C 
ATOM     44  C   UNL     1       6.069  -4.576  27.660  0.00  0.00    +0.275 C 
ATOM     45  C   UNL     1       5.161  -5.585  26.929  0.00  0.00    +0.254 C 
BRANCH  44  46
ATOM     46  O   UNL     1       5.428  -3.280  27.719  0.00  0.00    -0.453 OA
BRANCH  46  47
ATOM     47  C   UNL     1       4.285  -3.293  28.478  0.00  0.00    +0.304 C 
ATOM     48  C   UNL     1       3.054  -3.051  27.650  0.00  0.00    +0.136 C 
ATOM     49  O   UNL     1       4.251  -3.479  29.687  0.00  0.00    -0.251 OA
ENDBRANCH  46  47
ENDBRANCH  44  46
BRANCH  41  50
ATOM     50  C   UNL     1       5.243  -6.430  24.462  0.00  0.00    +0.267 C 
BRANCH  50  51
ATOM     51  O   UNL     1       5.657  -6.049  23.133  0.00  0.00    -0.462 OA
BRANCH  51  53
ATOM     52  C   UNL     1       5.991  -4.049  21.965  0.00  0.00    +0.136 C 
ATOM     53  C   UNL     1       5.006  -4.977  22.610  0.00  0.00    +0.304 C 
ATOM     54  O   UNL     1       3.800  -4.787  22.664  0.00  0.00    -0.251 OA
ENDBRANCH  51  53
ENDBRANCH  50  51
ENDBRANCH  41  50
BRANCH  45  55
ATOM     55  O   UNL     1       5.494  -6.924  27.364  0.00  0.00    -0.455 OA
BRANCH  55  56
ATOM     56  C   UNL     1       5.392  -7.156  28.704  0.00  0.00    +0.304 C 
ATOM     57  C   UNL     1       3.982  -6.976  29.174  0.00  0.00    +0.136 C 
ATOM     58  O   UNL     1       6.335  -7.377  29.452  0.00  0.00    -0.251 OA
ENDBRANCH  55  56
ENDBRANCH  45  55
ENDBRANCH  40  43
ENDBRANCH  39  40
ENDBRANCH   1  39
TORSDOF 20
ENDMDL
MODEL 9
REMARK VINA RESULT:      -6.9      2.647      9.629
REMARK  Name = 
REMARK  23 active torsions:
REMARK  status: ('A' for Active; 'I' for Inactive)
REMARK    1  A    between atoms: C_1  and  C_2
REMARK    2  A    between atoms: C_2  and  O_4
REMARK    3  A    between atoms: O_4  and  C_5
REMARK    4  A    between atoms: C_5  and  C_6
REMARK    5  A    between atoms: C_8  and  O_53
REMARK    6  A    between atoms: C_10  and  O_49
REMARK    7  A    between atoms: C_11  and  O_14
REMARK    8  A    between atoms: O_14  and  C_15
REMARK    9  A    between atoms: C_15  and  C_16
REMARK   10  A    between atoms: C_17  and  O_48
REMARK   11  A    between atoms: C_19  and  O_47
REMARK   12  A    between atoms: C_20  and  O_46
REMARK   13  A    between atoms: C_21  and  O_24
REMARK   14  A    between atoms: O_24  and  C_25
REMARK   15  A    between atoms: C_26  and  C_38
REMARK   16  A    between atoms: C_30  and  O_37
REMARK   17  A    between atoms: C_32  and  O_36
REMARK   18  A    between atoms: C_40  and  O_45
REMARK   19  A    between atoms: C_41  and  O_44
REMARK   20  A    between atoms: O_49  and  C_50
REMARK   21  A    between atoms: C_50  and  C_52
REMARK   22  A    between atoms: O_53  and  C_54
REMARK   23  A    between atoms: C_54  and  C_56
REMARK                            x       y       z     vdW  Elec       q    Type
REMARK                         _______ _______ _______ _____ _____    ______ ____
ROOT
ATOM      1  C   UNL     1       8.317   0.807  21.935  0.00  0.00    +0.179 C 
ATOM      2  O   UNL     1       7.829  -0.287  22.762  0.00  0.00    -0.331 OA
ATOM      3  C   UNL     1       7.828  -0.026  24.191  0.00  0.00    +0.340 C 
ATOM      4  C   UNL     1       9.270   0.286  24.642  0.00  0.00    +0.214 C 
ATOM      5  C   UNL     1       9.868   1.442  23.836  0.00  0.00    +0.180 C 
ATOM      6  C   UNL     1       9.765   1.154  22.329  0.00  0.00    +0.177 C 
ENDROOT
BRANCH   6   7
ATOM      7  O   UNL     1      10.289   2.242  21.574  0.00  0.00    -0.386 OA
ATOM      8  H   UNL     1      10.396   1.938  20.656  0.00  0.00    +0.210 HD
ENDBRANCH   6   7
BRANCH   5   9
ATOM      9  O   UNL     1      11.248   1.587  24.219  0.00  0.00    -0.386 OA
ATOM     10  H   UNL     1      11.232   1.805  25.173  0.00  0.00    +0.210 HD
ENDBRANCH   5   9
BRANCH   4  11
ATOM     11  O   UNL     1      10.126  -0.871  24.434  0.00  0.00    -0.383 OA
ATOM     12  H   UNL     1      10.540  -0.758  23.556  0.00  0.00    +0.210 HD
ENDBRANCH   4  11
BRANCH   3  13
ATOM     13  O   UNL     1       7.370  -1.226  24.873  0.00  0.00    -0.453 OA
BRANCH  13  14
ATOM     14  C   UNL     1       6.126  -1.236  25.518  0.00  0.00    +0.214 A 
ATOM     15  C   UNL     1       5.805  -0.272  26.621  0.00  0.00    +0.238 A 
ATOM     16  O   UNL     1       6.527   0.690  26.851  0.00  0.00    -0.283 OA
ATOM     17  C   UNL     1       4.597  -0.522  27.429  0.00  0.00    +0.109 A 
ATOM     18  C   UNL     1       3.658  -1.409  26.916  0.00  0.00    +0.147 A 
ATOM     19  C   UNL     1       2.432  -1.593  27.569  0.00  0.00    +0.092 A 
ATOM     20  C   UNL     1       2.180  -0.910  28.758  0.00  0.00    +0.124 A 
ATOM     21  C   UNL     1       3.135  -0.068  29.316  0.00  0.00    +0.091 A 
ATOM     22  O   UNL     1       3.883  -2.138  25.777  0.00  0.00    -0.451 OA
ATOM     23  C   UNL     1       4.345   0.124  28.651  0.00  0.00    +0.135 A 
ATOM     24  C   UNL     1       5.150  -2.119  25.185  0.00  0.00    +0.181 A 
BRANCH  24  25
ATOM     25  C   UNL     1       5.319  -3.246  24.214  0.00  0.00    +0.025 A 
ATOM     26  C   UNL     1       5.391  -4.564  24.726  0.00  0.00    +0.015 A 
ATOM     27  C   UNL     1       5.663  -5.660  23.900  0.00  0.00    +0.050 A 
ATOM     28  C   UNL     1       5.819  -5.456  22.543  0.00  0.00    +0.158 A 
ATOM     29  C   UNL     1       5.663  -4.186  22.001  0.00  0.00    +0.159 A 
ATOM     30  C   UNL     1       5.424  -3.076  22.820  0.00  0.00    +0.060 A 
BRANCH  29  31
ATOM     31  O   UNL     1       5.768  -4.081  20.641  0.00  0.00    -0.503 OA
ATOM     32  H   UNL     1       5.932  -4.974  20.294  0.00  0.00    +0.292 HD
ENDBRANCH  29  31
BRANCH  28  33
ATOM     33  O   UNL     1       6.161  -6.510  21.746  0.00  0.00    -0.503 OA
ATOM     34  H   UNL     1       7.133  -6.576  21.814  0.00  0.00    +0.292 HD
ENDBRANCH  28  33
ENDBRANCH  24  25
BRANCH  23  35
ATOM     35  O   UNL     1       5.288   0.929  29.228  0.00  0.00    -0.506 OA
ATOM     36  H   UNL     1       5.170   1.847  28.935  0.00  0.00    +0.292 HD
ENDBRANCH  23  35
BRANCH  20  37
ATOM     37  O   UNL     1       1.001  -1.042  29.430  0.00  0.00    -0.507 OA
ATOM     38  H   UNL     1       0.562  -1.865  29.155  0.00  0.00    +0.292 HD
ENDBRANCH  20  37
ENDBRANCH  13  14
ENDBRANCH   3  13
BRANCH   1  39
ATOM     39  C   UNL     1       7.327   2.006  21.869  0.00  0.00    +0.197 C 
BRANCH  39  40
ATOM     40  O   UNL     1       7.928   3.310  22.104  0.00  0.00    -0.345 OA
BRANCH  40  43
ATOM     41  C   UNL     1       6.162   5.918  23.359  0.00  0.00    +0.203 C 
ATOM     42  O   UNL     1       6.110   4.551  22.917  0.00  0.00    -0.337 OA
ATOM     43  C   UNL     1       7.345   3.912  23.272  0.00  0.00    +0.295 C 
ATOM     44  C   UNL     1       8.191   4.945  24.085  0.00  0.00    +0.275 C 
ATOM     45  C   UNL     1       7.094   5.913  24.572  0.00  0.00    +0.254 C 
BRANCH  44  46
ATOM     46  O   UNL     1       9.197   5.668  23.335  0.00  0.00    -0.453 OA
BRANCH  46  47
ATOM     47  C   UNL     1      10.464   5.459  23.818  0.00  0.00    +0.304 C 
ATOM     48  C   UNL     1      10.860   6.496  24.832  0.00  0.00    +0.136 C 
ATOM     49  O   UNL     1      11.199   4.543  23.478  0.00  0.00    -0.251 OA
ENDBRANCH  46  47
ENDBRANCH  44  46
BRANCH  41  50
ATOM     50  C   UNL     1       4.727   6.396  23.586  0.00  0.00    +0.267 C 
BRANCH  50  51
ATOM     51  O   UNL     1       3.783   5.554  22.893  0.00  0.00    -0.462 OA
BRANCH  51  53
ATOM     52  C   UNL     1       1.547   6.243  22.970  0.00  0.00    +0.136 C 
ATOM     53  C   UNL     1       2.826   6.215  22.189  0.00  0.00    +0.304 C 
ATOM     54  O   UNL     1       2.978   6.704  21.079  0.00  0.00    -0.251 OA
ENDBRANCH  51  53
ENDBRANCH  50  51
ENDBRANCH  41  50
BRANCH  45  55
ATOM     55  O   UNL     1       6.457   5.355  25.744  0.00  0.00    -0.455 OA
BRANCH  55  56
ATOM     56  C   UNL     1       7.195   5.380  26.891  0.00  0.00    +0.304 C 
ATOM     57  C   UNL     1       7.724   6.755  27.158  0.00  0.00    +0.136 C 
ATOM     58  O   UNL     1       7.482   4.398  27.562  0.00  0.00    -0.251 OA
ENDBRANCH  55  56
ENDBRANCH  45  55
ENDBRANCH  40  43
ENDBRANCH  39  40
ENDBRANCH   1  39
TORSDOF 20
ENDMDL
