MODEL 1
REMARK VINA RESULT:      -7.3      0.000      0.000
REMARK  Name = 
REMARK  23 active torsions:
REMARK  status: ('A' for Active; 'I' for Inactive)
REMARK    1  A    between atoms: C_3  and  O_66
REMARK    2  A    between atoms: C_4  and  O_65
REMARK    3  A    between atoms: C_6  and  C_7
REMARK    4  A    between atoms: C_8  and  C_9
REMARK    5  A    between atoms: C_9  and  O_11
REMARK    6  A    between atoms: O_11  and  C_12
REMARK    7  A    between atoms: C_12  and  C_13
REMARK    8  A    between atoms: C_15  and  O_64
REMARK    9  A    between atoms: C_17  and  O_63
REMARK   10  A    between atoms: C_19  and  O_62
REMARK   11  A    between atoms: C_21  and  O_24
REMARK   12  A    between atoms: O_24  and  C_25
REMARK   13  A    between atoms: C_27  and  O_61
REMARK   14  A    between atoms: C_29  and  O_60
REMARK   15  A    between atoms: C_31  and  C_58
REMARK   16  A    between atoms: C_34  and  O_36
REMARK   17  A    between atoms: O_36  and  C_37
REMARK   18  A    between atoms: C_38  and  C_50
REMARK   19  A    between atoms: C_42  and  O_49
REMARK   20  A    between atoms: C_44  and  O_48
REMARK   21  A    between atoms: C_52  and  O_57
REMARK   22  A    between atoms: C_53  and  O_56
REMARK   23  A    between atoms: C_58  and  O_59
REMARK                            x       y       z     vdW  Elec       q    Type
REMARK                         _______ _______ _______ _____ _____    ______ ____
ROOT
ATOM      1  C   UNL     1       4.311  -1.731  27.461  0.00  0.00    +0.221 C 
ATOM      2  C   UNL     1       5.489  -1.981  26.487  0.00  0.00    +0.340 C 
ATOM      3  O   UNL     1       5.624  -3.387  26.163  0.00  0.00    -0.331 OA
ATOM      4  C   UNL     1       6.027  -4.136  27.319  0.00  0.00    +0.179 C 
ATOM      5  C   UNL     1       4.828  -4.174  28.259  0.00  0.00    +0.177 C 
ATOM      6  C   UNL     1       4.359  -2.744  28.624  0.00  0.00    +0.180 C 
ENDROOT
BRANCH   6   7
ATOM      7  O   UNL     1       3.057  -2.899  29.218  0.00  0.00    -0.386 OA
ATOM      8  H   UNL     1       3.212  -3.087  30.165  0.00  0.00    +0.210 HD
ENDBRANCH   6   7
BRANCH   5   9
ATOM      9  O   UNL     1       5.178  -4.845  29.479  0.00  0.00    -0.386 OA
ATOM     10  H   UNL     1       5.743  -5.593  29.209  0.00  0.00    +0.210 HD
ENDBRANCH   5   9
BRANCH   4  11
ATOM     11  C   UNL     1       6.567  -5.542  26.963  0.00  0.00    +0.190 C 
BRANCH  11  12
ATOM     12  O   UNL     1       7.568  -6.017  27.860  0.00  0.00    -0.392 OA
ATOM     13  H   UNL     1       8.403  -5.609  27.572  0.00  0.00    +0.210 HD
ENDBRANCH  11  12
ENDBRANCH   4  11
BRANCH   2  14
ATOM     14  O   UNL     1       5.309  -1.237  25.252  0.00  0.00    -0.453 OA
BRANCH  14  15
ATOM     15  C   UNL     1       6.516  -0.931  24.636  0.00  0.00    +0.214 A 
ATOM     16  C   UNL     1       7.382   0.139  25.238  0.00  0.00    +0.238 A 
ATOM     17  O   UNL     1       7.412   0.358  26.443  0.00  0.00    -0.283 OA
ATOM     18  C   UNL     1       8.221   0.904  24.333  0.00  0.00    +0.109 A 
ATOM     19  C   UNL     1       8.574   0.266  23.152  0.00  0.00    +0.147 A 
ATOM     20  C   UNL     1       9.482   0.905  22.299  0.00  0.00    +0.092 A 
ATOM     21  C   UNL     1      10.013   2.158  22.646  0.00  0.00    +0.124 A 
ATOM     22  C   UNL     1       9.635   2.803  23.814  0.00  0.00    +0.091 A 
ATOM     23  O   UNL     1       8.119  -1.005  22.835  0.00  0.00    -0.451 OA
ATOM     24  C   UNL     1       8.724   2.179  24.659  0.00  0.00    +0.135 A 
ATOM     25  C   UNL     1       7.026  -1.571  23.553  0.00  0.00    +0.181 A 
BRANCH  25  26
ATOM     26  C   UNL     1       6.589  -2.936  23.001  0.00  0.00    +0.025 A 
ATOM     27  C   UNL     1       7.581  -3.866  22.610  0.00  0.00    +0.015 A 
ATOM     28  C   UNL     1       7.282  -5.179  22.232  0.00  0.00    +0.050 A 
ATOM     29  C   UNL     1       5.972  -5.632  22.232  0.00  0.00    +0.158 A 
ATOM     30  C   UNL     1       4.962  -4.757  22.604  0.00  0.00    +0.159 A 
ATOM     31  C   UNL     1       5.256  -3.423  22.974  0.00  0.00    +0.060 A 
BRANCH  30  32
ATOM     32  O   UNL     1       3.693  -5.278  22.610  0.00  0.00    -0.503 OA
ATOM     33  H   UNL     1       3.318  -5.172  23.501  0.00  0.00    +0.292 HD
ENDBRANCH  30  32
BRANCH  29  34
ATOM     34  O   UNL     1       5.699  -6.929  21.893  0.00  0.00    -0.503 OA
ATOM     35  H   UNL     1       6.427  -7.455  22.276  0.00  0.00    +0.292 HD
ENDBRANCH  29  34
ENDBRANCH  25  26
BRANCH  24  36
ATOM     36  O   UNL     1       8.318   2.840  25.787  0.00  0.00    -0.506 OA
ATOM     37  H   UNL     1       8.853   2.554  26.547  0.00  0.00    +0.292 HD
ENDBRANCH  24  36
BRANCH  21  38
ATOM     38  O   UNL     1      10.912   2.811  21.860  0.00  0.00    -0.507 OA
ATOM     39  H   UNL     1      11.389   2.164  21.312  0.00  0.00    +0.292 HD
ENDBRANCH  21  38
ENDBRANCH  14  15
ENDBRANCH   2  14
BRANCH   1  40
ATOM     40  O   UNL     1       4.090  -0.342  27.794  0.00  0.00    -0.337 OA
BRANCH  40  43
ATOM     41  C   UNL     1       3.953   2.462  25.414  0.00  0.00    +0.190 C 
ATOM     42  O   UNL     1       4.481   1.766  26.592  0.00  0.00    -0.339 OA
ATOM     43  C   UNL     1       3.533   0.789  27.109  0.00  0.00    +0.282 C 
ATOM     44  C   UNL     1       2.286   1.556  27.636  0.00  0.00    +0.201 C 
ATOM     45  C   UNL     1       1.626   2.254  26.412  0.00  0.00    +0.179 C 
ATOM     46  C   UNL     1       2.622   3.195  25.717  0.00  0.00    +0.178 C 
BRANCH  46  47
ATOM     47  O   UNL     1       1.970   3.699  24.535  0.00  0.00    -0.386 OA
ATOM     48  H   UNL     1       1.499   4.517  24.787  0.00  0.00    +0.210 HD
ENDBRANCH  46  47
BRANCH  45  49
ATOM     49  O   UNL     1       0.451   2.993  26.731  0.00  0.00    -0.386 OA
ATOM     50  H   UNL     1      -0.079   2.415  27.307  0.00  0.00    +0.210 HD
ENDBRANCH  45  49
BRANCH  44  51
ATOM     51  O   UNL     1       1.351   0.709  28.312  0.00  0.00    -0.384 OA
ATOM     52  H   UNL     1       0.465   0.897  27.955  0.00  0.00    +0.210 HD
ENDBRANCH  44  51
BRANCH  41  53
ATOM     53  C   UNL     1       4.985   3.478  24.860  0.00  0.00    +0.266 C 
BRANCH  53  54
ATOM     54  O   UNL     1       4.500   4.154  23.675  0.00  0.00    -0.459 OA
BRANCH  54  55
ATOM     55  C   UNL     1       5.175   5.288  23.362  0.00  0.00    +0.332 C 
ATOM     56  O   UNL     1       4.664   6.309  22.918  0.00  0.00    -0.246 OA
BRANCH  55  58
ATOM     57  C   UNL     1       7.306   6.234  24.001  0.00  0.00    +0.015 C 
ATOM     58  C   UNL     1       6.616   5.137  23.647  0.00  0.00    +0.092 C 
BRANCH  57  60
ATOM     59  C   UNL     1       9.181   6.901  25.553  0.00  0.00    +0.012 A 
ATOM     60  C   UNL     1       8.727   6.306  24.366  0.00  0.00    -0.021 A 
ATOM     61  C   UNL     1       9.669   5.859  23.428  0.00  0.00    +0.057 A 
ATOM     62  C   UNL     1      11.025   6.005  23.683  0.00  0.00    +0.159 A 
ATOM     63  C   UNL     1      11.469   6.597  24.860  0.00  0.00    +0.158 A 
ATOM     64  C   UNL     1      10.554   7.043  25.805  0.00  0.00    +0.050 A 
BRANCH  63  65
ATOM     65  O   UNL     1      12.818   6.734  25.031  0.00  0.00    -0.503 OA
ATOM     66  H   UNL     1      13.266   6.153  24.392  0.00  0.00    +0.292 HD
ENDBRANCH  63  65
BRANCH  62  67
ATOM     67  O   UNL     1      11.927   5.583  22.747  0.00  0.00    -0.503 OA
ATOM     68  H   UNL     1      12.061   6.357  22.167  0.00  0.00    +0.292 HD
ENDBRANCH  62  67
ENDBRANCH  57  60
ENDBRANCH  55  58
ENDBRANCH  54  55
ENDBRANCH  53  54
ENDBRANCH  41  53
ENDBRANCH  40  43
ENDBRANCH   1  40
TORSDOF 23
ENDMDL
MODEL 2
REMARK VINA RESULT:      -7.3      2.337      8.146
REMARK  Name = 
REMARK  23 active torsions:
REMARK  status: ('A' for Active; 'I' for Inactive)
REMARK    1  A    between atoms: C_3  and  O_66
REMARK    2  A    between atoms: C_4  and  O_65
REMARK    3  A    between atoms: C_6  and  C_7
REMARK    4  A    between atoms: C_8  and  C_9
REMARK    5  A    between atoms: C_9  and  O_11
REMARK    6  A    between atoms: O_11  and  C_12
REMARK    7  A    between atoms: C_12  and  C_13
REMARK    8  A    between atoms: C_15  and  O_64
REMARK    9  A    between atoms: C_17  and  O_63
REMARK   10  A    between atoms: C_19  and  O_62
REMARK   11  A    between atoms: C_21  and  O_24
REMARK   12  A    between atoms: O_24  and  C_25
REMARK   13  A    between atoms: C_27  and  O_61
REMARK   14  A    between atoms: C_29  and  O_60
REMARK   15  A    between atoms: C_31  and  C_58
REMARK   16  A    between atoms: C_34  and  O_36
REMARK   17  A    between atoms: O_36  and  C_37
REMARK   18  A    between atoms: C_38  and  C_50
REMARK   19  A    between atoms: C_42  and  O_49
REMARK   20  A    between atoms: C_44  and  O_48
REMARK   21  A    between atoms: C_52  and  O_57
REMARK   22  A    between atoms: C_53  and  O_56
REMARK   23  A    between atoms: C_58  and  O_59
REMARK                            x       y       z     vdW  Elec       q    Type
REMARK                         _______ _______ _______ _____ _____    ______ ____
ROOT
ATOM      1  C   UNL     1       6.729   0.990  26.350  0.00  0.00    +0.221 C 
ATOM      2  C   UNL     1       5.876   2.189  25.867  0.00  0.00    +0.340 C 
ATOM      3  O   UNL     1       6.342   3.439  26.436  0.00  0.00    -0.331 OA
ATOM      4  C   UNL     1       6.118   3.464  27.852  0.00  0.00    +0.179 C 
ATOM      5  C   UNL     1       7.107   2.482  28.472  0.00  0.00    +0.177 C 
ATOM      6  C   UNL     1       6.931   1.063  27.877  0.00  0.00    +0.180 C 
ENDROOT
BRANCH   6   7
ATOM      7  O   UNL     1       8.103   0.326  28.272  0.00  0.00    -0.386 OA
ATOM      8  H   UNL     1       8.014   0.168  29.233  0.00  0.00    +0.210 HD
ENDBRANCH   6   7
BRANCH   5   9
ATOM      9  O   UNL     1       6.893   2.394  29.888  0.00  0.00    -0.386 OA
ATOM     10  H   UNL     1       7.653   1.888  30.233  0.00  0.00    +0.210 HD
ENDBRANCH   5   9
BRANCH   4  11
ATOM     11  C   UNL     1       6.218   4.888  28.450  0.00  0.00    +0.190 C 
BRANCH  11  12
ATOM     12  O   UNL     1       7.461   5.154  29.095  0.00  0.00    -0.392 OA
ATOM     13  H   UNL     1       7.858   4.286  29.283  0.00  0.00    +0.210 HD
ENDBRANCH  11  12
ENDBRANCH   4  11
BRANCH   2  14
ATOM     14  O   UNL     1       5.908   2.300  24.418  0.00  0.00    -0.453 OA
BRANCH  14  15
ATOM     15  C   UNL     1       5.109   3.334  23.948  0.00  0.00    +0.214 A 
ATOM     16  C   UNL     1       3.616   3.178  24.009  0.00  0.00    +0.238 A 
ATOM     17  O   UNL     1       3.060   2.531  24.888  0.00  0.00    -0.283 OA
ATOM     18  C   UNL     1       2.834   3.853  22.989  0.00  0.00    +0.109 A 
ATOM     19  C   UNL     1       3.422   4.975  22.421  0.00  0.00    +0.147 A 
ATOM     20  C   UNL     1       2.664   5.738  21.524  0.00  0.00    +0.092 A 
ATOM     21  C   UNL     1       1.345   5.364  21.220  0.00  0.00    +0.124 A 
ATOM     22  C   UNL     1       0.772   4.227  21.769  0.00  0.00    +0.091 A 
ATOM     23  O   UNL     1       4.694   5.399  22.772  0.00  0.00    -0.451 OA
ATOM     24  C   UNL     1       1.524   3.459  22.651  0.00  0.00    +0.135 A 
ATOM     25  C   UNL     1       5.565   4.527  23.487  0.00  0.00    +0.181 A 
BRANCH  25  26
ATOM     26  C   UNL     1       6.966   5.120  23.699  0.00  0.00    +0.025 A 
ATOM     27  C   UNL     1       7.103   6.294  24.477  0.00  0.00    +0.015 A 
ATOM     28  C   UNL     1       8.346   6.822  24.840  0.00  0.00    +0.050 A 
ATOM     29  C   UNL     1       9.520   6.198  24.447  0.00  0.00    +0.158 A 
ATOM     30  C   UNL     1       9.439   5.046  23.678  0.00  0.00    +0.159 A 
ATOM     31  C   UNL     1       8.185   4.514  23.295  0.00  0.00    +0.060 A 
BRANCH  30  32
ATOM     32  O   UNL     1      10.637   4.464  23.348  0.00  0.00    -0.503 OA
ATOM     33  H   UNL     1      11.294   4.704  24.023  0.00  0.00    +0.292 HD
ENDBRANCH  30  32
BRANCH  29  34
ATOM     34  O   UNL     1      10.727   6.708  24.838  0.00  0.00    -0.503 OA
ATOM     35  H   UNL     1      10.545   7.200  25.661  0.00  0.00    +0.292 HD
ENDBRANCH  29  34
ENDBRANCH  25  26
BRANCH  24  36
ATOM     36  O   UNL     1       0.972   2.312  23.155  0.00  0.00    -0.506 OA
ATOM     37  H   UNL     1       0.125   2.132  22.711  0.00  0.00    +0.292 HD
ENDBRANCH  24  36
BRANCH  21  38
ATOM     38  O   UNL     1       0.562   6.083  20.369  0.00  0.00    -0.507 OA
ATOM     39  H   UNL     1       1.099   6.775  19.946  0.00  0.00    +0.292 HD
ENDBRANCH  21  38
ENDBRANCH  14  15
ENDBRANCH   2  14
BRANCH   1  40
ATOM     40  O   UNL     1       6.347  -0.286  25.787  0.00  0.00    -0.337 OA
BRANCH  40  43
ATOM     41  C   UNL     1       6.607  -3.750  27.000  0.00  0.00    +0.190 C 
ATOM     42  O   UNL     1       6.679  -2.714  25.964  0.00  0.00    -0.339 OA
ATOM     43  C   UNL     1       5.902  -1.538  26.326  0.00  0.00    +0.282 C 
ATOM     44  C   UNL     1       4.400  -1.945  26.366  0.00  0.00    +0.201 C 
ATOM     45  C   UNL     1       4.238  -2.989  27.508  0.00  0.00    +0.179 C 
ATOM     46  C   UNL     1       5.151  -4.202  27.273  0.00  0.00    +0.178 C 
BRANCH  46  47
ATOM     47  O   UNL     1       5.028  -5.052  28.430  0.00  0.00    -0.386 OA
ATOM     48  H   UNL     1       4.654  -4.510  29.152  0.00  0.00    +0.210 HD
ENDBRANCH  46  47
BRANCH  45  49
ATOM     49  O   UNL     1       2.903  -3.454  27.683  0.00  0.00    -0.386 OA
ATOM     50  H   UNL     1       2.395  -3.093  26.935  0.00  0.00    +0.210 HD
ENDBRANCH  45  49
BRANCH  44  51
ATOM     51  O   UNL     1       3.522  -0.831  26.558  0.00  0.00    -0.384 OA
ATOM     52  H   UNL     1       3.251  -0.822  27.492  0.00  0.00    +0.210 HD
ENDBRANCH  44  51
BRANCH  41  53
ATOM     53  C   UNL     1       7.464  -4.983  26.612  0.00  0.00    +0.266 C 
BRANCH  53  54
ATOM     54  O   UNL     1       8.863  -4.644  26.448  0.00  0.00    -0.459 OA
BRANCH  54  55
ATOM     55  C   UNL     1       9.311  -4.723  25.171  0.00  0.00    +0.332 C 
ATOM     56  O   UNL     1       9.336  -5.747  24.498  0.00  0.00    -0.246 OA
BRANCH  55  58
ATOM     57  C   UNL     1       9.011  -2.799  23.738  0.00  0.00    +0.015 C 
ATOM     58  C   UNL     1       9.750  -3.399  24.685  0.00  0.00    +0.092 C 
BRANCH  57  60
ATOM     59  C   UNL     1       9.032  -1.202  21.784  0.00  0.00    +0.012 A 
ATOM     60  C   UNL     1       9.237  -1.474  23.145  0.00  0.00    -0.021 A 
ATOM     61  C   UNL     1       9.788  -0.476  23.962  0.00  0.00    +0.057 A 
ATOM     62  C   UNL     1      10.118   0.759  23.422  0.00  0.00    +0.159 A 
ATOM     63  C   UNL     1       9.915   1.022  22.071  0.00  0.00    +0.158 A 
ATOM     64  C   UNL     1       9.367   0.050  21.245  0.00  0.00    +0.050 A 
BRANCH  63  65
ATOM     65  O   UNL     1      10.291   2.249  21.602  0.00  0.00    -0.503 OA
ATOM     66  H   UNL     1      10.336   2.863  22.356  0.00  0.00    +0.292 HD
ENDBRANCH  63  65
BRANCH  62  67
ATOM     67  O   UNL     1      10.674   1.711  24.228  0.00  0.00    -0.503 OA
ATOM     68  H   UNL     1      11.629   1.504  24.232  0.00  0.00    +0.292 HD
ENDBRANCH  62  67
ENDBRANCH  57  60
ENDBRANCH  55  58
ENDBRANCH  54  55
ENDBRANCH  53  54
ENDBRANCH  41  53
ENDBRANCH  40  43
ENDBRANCH   1  40
TORSDOF 23
ENDMDL
MODEL 3
REMARK VINA RESULT:      -7.1      2.240      6.531
REMARK  Name = 
REMARK  23 active torsions:
REMARK  status: ('A' for Active; 'I' for Inactive)
REMARK    1  A    between atoms: C_3  and  O_66
REMARK    2  A    between atoms: C_4  and  O_65
REMARK    3  A    between atoms: C_6  and  C_7
REMARK    4  A    between atoms: C_8  and  C_9
REMARK    5  A    between atoms: C_9  and  O_11
REMARK    6  A    between atoms: O_11  and  C_12
REMARK    7  A    between atoms: C_12  and  C_13
REMARK    8  A    between atoms: C_15  and  O_64
REMARK    9  A    between atoms: C_17  and  O_63
REMARK   10  A    between atoms: C_19  and  O_62
REMARK   11  A    between atoms: C_21  and  O_24
REMARK   12  A    between atoms: O_24  and  C_25
REMARK   13  A    between atoms: C_27  and  O_61
REMARK   14  A    between atoms: C_29  and  O_60
REMARK   15  A    between atoms: C_31  and  C_58
REMARK   16  A    between atoms: C_34  and  O_36
REMARK   17  A    between atoms: O_36  and  C_37
REMARK   18  A    between atoms: C_38  and  C_50
REMARK   19  A    between atoms: C_42  and  O_49
REMARK   20  A    between atoms: C_44  and  O_48
REMARK   21  A    between atoms: C_52  and  O_57
REMARK   22  A    between atoms: C_53  and  O_56
REMARK   23  A    between atoms: C_58  and  O_59
REMARK                            x       y       z     vdW  Elec       q    Type
REMARK                         _______ _______ _______ _____ _____    ______ ____
ROOT
ATOM      1  C   UNL     1       7.229  -4.627  23.862  0.00  0.00    +0.221 C 
ATOM      2  C   UNL     1       5.961  -3.949  24.436  0.00  0.00    +0.340 C 
ATOM      3  O   UNL     1       4.827  -4.852  24.438  0.00  0.00    -0.331 OA
ATOM      4  C   UNL     1       4.422  -5.158  23.096  0.00  0.00    +0.179 C 
ATOM      5  C   UNL     1       5.501  -6.057  22.504  0.00  0.00    +0.177 C 
ATOM      6  C   UNL     1       6.889  -5.370  22.553  0.00  0.00    +0.180 C 
ENDROOT
BRANCH   6   7
ATOM      7  O   UNL     1       7.850  -6.410  22.293  0.00  0.00    -0.386 OA
ATOM      8  H   UNL     1       8.394  -6.485  23.102  0.00  0.00    +0.210 HD
ENDBRANCH   6   7
BRANCH   5   9
ATOM      9  O   UNL     1       5.204  -6.346  21.130  0.00  0.00    -0.386 OA
ATOM     10  H   UNL     1       6.045  -6.656  20.744  0.00  0.00    +0.210 HD
ENDBRANCH   5   9
BRANCH   4  11
ATOM     11  C   UNL     1       3.006  -5.779  23.025  0.00  0.00    +0.190 C 
BRANCH  11  12
ATOM     12  O   UNL     1       3.003  -7.204  23.020  0.00  0.00    -0.392 OA
ATOM     13  H   UNL     1       3.672  -7.477  23.671  0.00  0.00    +0.210 HD
ENDBRANCH  11  12
ENDBRANCH   4  11
BRANCH   2  14
ATOM     14  O   UNL     1       6.188  -3.488  25.795  0.00  0.00    -0.453 OA
BRANCH  14  15
ATOM     15  C   UNL     1       5.250  -2.546  26.199  0.00  0.00    +0.214 A 
ATOM     16  C   UNL     1       5.320  -1.162  25.619  0.00  0.00    +0.238 A 
ATOM     17  O   UNL     1       5.728  -0.947  24.485  0.00  0.00    -0.283 OA
ATOM     18  C   UNL     1       4.856  -0.067  26.452  0.00  0.00    +0.109 A 
ATOM     19  C   UNL     1       3.917  -0.400  27.418  0.00  0.00    +0.147 A 
ATOM     20  C   UNL     1       3.340   0.634  28.166  0.00  0.00    +0.092 A 
ATOM     21  C   UNL     1       3.713   1.968  27.929  0.00  0.00    +0.124 A 
ATOM     22  C   UNL     1       4.671   2.291  26.981  0.00  0.00    +0.091 A 
ATOM     23  O   UNL     1       3.484  -1.703  27.609  0.00  0.00    -0.451 OA
ATOM     24  C   UNL     1       5.256   1.268  26.244  0.00  0.00    +0.135 A 
ATOM     25  C   UNL     1       4.212  -2.787  27.041  0.00  0.00    +0.181 A 
BRANCH  25  26
ATOM     26  C   UNL     1       3.651  -4.161  27.439  0.00  0.00    +0.025 A 
ATOM     27  C   UNL     1       2.357  -4.526  26.998  0.00  0.00    +0.015 A 
ATOM     28  C   UNL     1       1.824  -5.804  27.190  0.00  0.00    +0.050 A 
ATOM     29  C   UNL     1       2.562  -6.788  27.830  0.00  0.00    +0.158 A 
ATOM     30  C   UNL     1       3.834  -6.478  28.286  0.00  0.00    +0.159 A 
ATOM     31  C   UNL     1       4.375  -5.182  28.107  0.00  0.00    +0.060 A 
BRANCH  30  32
ATOM     32  O   UNL     1       4.521  -7.505  28.884  0.00  0.00    -0.503 OA
ATOM     33  H   UNL     1       4.540  -8.262  28.274  0.00  0.00    +0.292 HD
ENDBRANCH  30  32
BRANCH  29  34
ATOM     34  O   UNL     1       2.039  -8.043  27.981  0.00  0.00    -0.503 OA
ATOM     35  H   UNL     1       2.245  -8.510  27.149  0.00  0.00    +0.292 HD
ENDBRANCH  29  34
ENDBRANCH  25  26
BRANCH  24  36
ATOM     36  O   UNL     1       6.235   1.587  25.342  0.00  0.00    -0.506 OA
ATOM     37  H   UNL     1       6.362   0.851  24.719  0.00  0.00    +0.292 HD
ENDBRANCH  24  36
BRANCH  21  38
ATOM     38  O   UNL     1       3.168   3.009  28.616  0.00  0.00    -0.507 OA
ATOM     39  H   UNL     1       3.638   3.118  29.461  0.00  0.00    +0.292 HD
ENDBRANCH  21  38
ENDBRANCH  14  15
ENDBRANCH   2  14
BRANCH   1  40
ATOM     40  O   UNL     1       8.412  -3.796  23.869  0.00  0.00    -0.337 OA
BRANCH  40  43
ATOM     41  C   UNL     1       9.212  -0.205  23.772  0.00  0.00    +0.190 C 
ATOM     42  O   UNL     1       9.492  -1.620  23.501  0.00  0.00    -0.339 OA
ATOM     43  C   UNL     1       8.734  -2.495  24.382  0.00  0.00    +0.282 C 
ATOM     44  C   UNL     1       9.236  -2.271  25.838  0.00  0.00    +0.201 C 
ATOM     45  C   UNL     1       8.892  -0.802  26.220  0.00  0.00    +0.179 C 
ATOM     46  C   UNL     1       9.538   0.184  25.235  0.00  0.00    +0.178 C 
BRANCH  46  47
ATOM     47  O   UNL     1       9.070   1.500  25.590  0.00  0.00    -0.386 OA
ATOM     48  H   UNL     1       9.721   1.885  26.209  0.00  0.00    +0.210 HD
ENDBRANCH  46  47
BRANCH  45  49
ATOM     49  O   UNL     1       9.279  -0.442  27.542  0.00  0.00    -0.386 OA
ATOM     50  H   UNL     1       8.669   0.265  27.816  0.00  0.00    +0.210 HD
ENDBRANCH  45  49
BRANCH  44  51
ATOM     51  O   UNL     1       8.671  -3.193  26.775  0.00  0.00    -0.384 OA
ATOM     52  H   UNL     1       9.388  -3.512  27.350  0.00  0.00    +0.210 HD
ENDBRANCH  44  51
BRANCH  41  53
ATOM     53  C   UNL     1      10.006   0.712  22.807  0.00  0.00    +0.266 C 
BRANCH  53  54
ATOM     54  O   UNL     1       9.220   1.845  22.363  0.00  0.00    -0.459 OA
BRANCH  54  55
ATOM     55  C   UNL     1       9.461   2.993  23.042  0.00  0.00    +0.332 C 
ATOM     56  O   UNL     1      10.554   3.333  23.481  0.00  0.00    -0.246 OA
BRANCH  55  58
ATOM     57  C   UNL     1       7.117   3.345  22.567  0.00  0.00    +0.015 C 
ATOM     58  C   UNL     1       8.229   3.797  23.171  0.00  0.00    +0.092 C 
BRANCH  57  60
ATOM     59  C   UNL     1       5.576   5.331  22.787  0.00  0.00    +0.012 A 
ATOM     60  C   UNL     1       5.782   3.956  22.598  0.00  0.00    -0.021 A 
ATOM     61  C   UNL     1       4.669   3.104  22.547  0.00  0.00    +0.057 A 
ATOM     62  C   UNL     1       3.390   3.624  22.680  0.00  0.00    +0.159 A 
ATOM     63  C   UNL     1       3.192   4.988  22.869  0.00  0.00    +0.158 A 
ATOM     64  C   UNL     1       4.279   5.851  22.919  0.00  0.00    +0.050 A 
BRANCH  63  65
ATOM     65  O   UNL     1       1.906   5.426  23.022  0.00  0.00    -0.503 OA
ATOM     66  H   UNL     1       1.824   5.830  23.903  0.00  0.00    +0.292 HD
ENDBRANCH  63  65
BRANCH  62  67
ATOM     67  O   UNL     1       2.320   2.776  22.649  0.00  0.00    -0.503 OA
ATOM     68  H   UNL     1       2.714   1.885  22.565  0.00  0.00    +0.292 HD
ENDBRANCH  62  67
ENDBRANCH  57  60
ENDBRANCH  55  58
ENDBRANCH  54  55
ENDBRANCH  53  54
ENDBRANCH  41  53
ENDBRANCH  40  43
ENDBRANCH   1  40
TORSDOF 23
ENDMDL
MODEL 4
REMARK VINA RESULT:      -7.1      1.917      5.257
REMARK  Name = 
REMARK  23 active torsions:
REMARK  status: ('A' for Active; 'I' for Inactive)
REMARK    1  A    between atoms: C_3  and  O_66
REMARK    2  A    between atoms: C_4  and  O_65
REMARK    3  A    between atoms: C_6  and  C_7
REMARK    4  A    between atoms: C_8  and  C_9
REMARK    5  A    between atoms: C_9  and  O_11
REMARK    6  A    between atoms: O_11  and  C_12
REMARK    7  A    between atoms: C_12  and  C_13
REMARK    8  A    between atoms: C_15  and  O_64
REMARK    9  A    between atoms: C_17  and  O_63
REMARK   10  A    between atoms: C_19  and  O_62
REMARK   11  A    between atoms: C_21  and  O_24
REMARK   12  A    between atoms: O_24  and  C_25
REMARK   13  A    between atoms: C_27  and  O_61
REMARK   14  A    between atoms: C_29  and  O_60
REMARK   15  A    between atoms: C_31  and  C_58
REMARK   16  A    between atoms: C_34  and  O_36
REMARK   17  A    between atoms: O_36  and  C_37
REMARK   18  A    between atoms: C_38  and  C_50
REMARK   19  A    between atoms: C_42  and  O_49
REMARK   20  A    between atoms: C_44  and  O_48
REMARK   21  A    between atoms: C_52  and  O_57
REMARK   22  A    between atoms: C_53  and  O_56
REMARK   23  A    between atoms: C_58  and  O_59
REMARK                            x       y       z     vdW  Elec       q    Type
REMARK                         _______ _______ _______ _____ _____    ______ ____
ROOT
ATOM      1  C   UNL     1       5.381  -3.252  27.393  0.00  0.00    +0.221 C 
ATOM      2  C   UNL     1       6.615  -2.521  26.810  0.00  0.00    +0.340 C 
ATOM      3  O   UNL     1       7.500  -3.436  26.118  0.00  0.00    -0.331 OA
ATOM      4  C   UNL     1       8.104  -4.351  27.043  0.00  0.00    +0.179 C 
ATOM      5  C   UNL     1       7.006  -5.306  27.499  0.00  0.00    +0.177 C 
ATOM      6  C   UNL     1       5.822  -4.533  28.130  0.00  0.00    +0.180 C 
ENDROOT
BRANCH   6   7
ATOM      7  O   UNL     1       4.737  -5.476  28.207  0.00  0.00    -0.386 OA
ATOM      8  H   UNL     1       3.963  -5.033  27.803  0.00  0.00    +0.210 HD
ENDBRANCH   6   7
BRANCH   5   9
ATOM      9  O   UNL     1       7.518  -6.210  28.489  0.00  0.00    -0.386 OA
ATOM     10  H   UNL     1       6.788  -6.831  28.674  0.00  0.00    +0.210 HD
ENDBRANCH   5   9
BRANCH   4  11
ATOM     11  C   UNL     1       9.335  -5.078  26.449  0.00  0.00    +0.190 C 
BRANCH  11  12
ATOM     12  O   UNL     1       9.014  -6.289  25.768  0.00  0.00    -0.392 OA
ATOM     13  H   UNL     1       8.298  -6.067  25.148  0.00  0.00    +0.210 HD
ENDBRANCH  11  12
ENDBRANCH   4  11
BRANCH   2  14
ATOM     14  O   UNL     1       6.211  -1.478  25.882  0.00  0.00    -0.453 OA
BRANCH  14  15
ATOM     15  C   UNL     1       6.183  -1.920  24.565  0.00  0.00    +0.214 A 
ATOM     16  C   UNL     1       5.108  -2.884  24.151  0.00  0.00    +0.238 A 
ATOM     17  O   UNL     1       3.994  -2.882  24.659  0.00  0.00    -0.283 OA
ATOM     18  C   UNL     1       5.428  -3.821  23.089  0.00  0.00    +0.109 A 
ATOM     19  C   UNL     1       6.418  -3.417  22.205  0.00  0.00    +0.147 A 
ATOM     20  C   UNL     1       6.681  -4.222  21.089  0.00  0.00    +0.092 A 
ATOM     21  C   UNL     1       5.950  -5.405  20.887  0.00  0.00    +0.124 A 
ATOM     22  C   UNL     1       4.981  -5.818  21.788  0.00  0.00    +0.091 A 
ATOM     23  O   UNL     1       7.092  -2.214  22.351  0.00  0.00    -0.451 OA
ATOM     24  C   UNL     1       4.725  -5.028  22.904  0.00  0.00    +0.135 A 
ATOM     25  C   UNL     1       7.019  -1.501  23.581  0.00  0.00    +0.181 A 
BRANCH  25  26
ATOM     26  C   UNL     1       7.907  -0.247  23.602  0.00  0.00    +0.025 A 
ATOM     27  C   UNL     1       8.696   0.015  24.746  0.00  0.00    +0.015 A 
ATOM     28  C   UNL     1       9.637   1.048  24.797  0.00  0.00    +0.050 A 
ATOM     29  C   UNL     1       9.841   1.872  23.701  0.00  0.00    +0.158 A 
ATOM     30  C   UNL     1       9.088   1.658  22.556  0.00  0.00    +0.159 A 
ATOM     31  C   UNL     1       8.124   0.623  22.501  0.00  0.00    +0.060 A 
BRANCH  30  32
ATOM     32  O   UNL     1       9.361   2.490  21.498  0.00  0.00    -0.503 OA
ATOM     33  H   UNL     1      10.319   2.655  21.473  0.00  0.00    +0.292 HD
ENDBRANCH  30  32
BRANCH  29  34
ATOM     34  O   UNL     1      10.789   2.857  23.755  0.00  0.00    -0.503 OA
ATOM     35  H   UNL     1      11.200   2.771  24.636  0.00  0.00    +0.292 HD
ENDBRANCH  29  34
ENDBRANCH  25  26
BRANCH  24  36
ATOM     36  O   UNL     1       3.801  -5.463  23.816  0.00  0.00    -0.506 OA
ATOM     37  H   UNL     1       4.209  -6.112  24.414  0.00  0.00    +0.292 HD
ENDBRANCH  24  36
BRANCH  21  38
ATOM     38  O   UNL     1       6.155  -6.212  19.810  0.00  0.00    -0.507 OA
ATOM     39  H   UNL     1       5.895  -5.739  19.000  0.00  0.00    +0.292 HD
ENDBRANCH  21  38
ENDBRANCH  14  15
ENDBRANCH   2  14
BRANCH   1  40
ATOM     40  O   UNL     1       4.431  -2.391  28.061  0.00  0.00    -0.337 OA
BRANCH  40  43
ATOM     41  C   UNL     1       4.610   1.236  28.658  0.00  0.00    +0.190 C 
ATOM     42  O   UNL     1       4.397  -0.153  29.077  0.00  0.00    -0.339 OA
ATOM     43  C   UNL     1       4.062  -1.009  27.948  0.00  0.00    +0.282 C 
ATOM     44  C   UNL     1       2.682  -0.555  27.390  0.00  0.00    +0.201 C 
ATOM     45  C   UNL     1       2.861   0.893  26.849  0.00  0.00    +0.179 C 
ATOM     46  C   UNL     1       3.365   1.832  27.956  0.00  0.00    +0.178 C 
BRANCH  46  47
ATOM     47  O   UNL     1       3.617   3.110  27.342  0.00  0.00    -0.386 OA
ATOM     48  H   UNL     1       3.300   3.799  27.958  0.00  0.00    +0.210 HD
ENDBRANCH  46  47
BRANCH  45  49
ATOM     49  O   UNL     1       1.678   1.451  26.285  0.00  0.00    -0.386 OA
ATOM     50  H   UNL     1       1.924   2.340  25.975  0.00  0.00    +0.210 HD
ENDBRANCH  45  49
BRANCH  44  51
ATOM     51  O   UNL     1       2.174  -1.425  26.373  0.00  0.00    -0.384 OA
ATOM     52  H   UNL     1       2.877  -1.556  25.714  0.00  0.00    +0.210 HD
ENDBRANCH  44  51
BRANCH  41  53
ATOM     53  C   UNL     1       4.994   2.128  29.867  0.00  0.00    +0.266 C 
BRANCH  53  54
ATOM     54  O   UNL     1       5.536   3.405  29.451  0.00  0.00    -0.459 OA
BRANCH  54  55
ATOM     55  C   UNL     1       6.850   3.372  29.116  0.00  0.00    +0.332 C 
ATOM     56  O   UNL     1       7.722   2.792  29.753  0.00  0.00    -0.246 OA
BRANCH  55  58
ATOM     57  C   UNL     1       7.129   3.423  26.716  0.00  0.00    +0.015 C 
ATOM     58  C   UNL     1       7.092   4.118  27.865  0.00  0.00    +0.092 C 
BRANCH  57  60
ATOM     59  C   UNL     1       8.262   4.948  25.054  0.00  0.00    +0.012 A 
ATOM     60  C   UNL     1       7.313   3.961  25.361  0.00  0.00    -0.021 A 
ATOM     61  C   UNL     1       6.420   3.544  24.364  0.00  0.00    +0.057 A 
ATOM     62  C   UNL     1       6.486   4.103  23.095  0.00  0.00    +0.159 A 
ATOM     63  C   UNL     1       7.428   5.083  22.797  0.00  0.00    +0.158 A 
ATOM     64  C   UNL     1       8.325   5.508  23.769  0.00  0.00    +0.050 A 
BRANCH  63  65
ATOM     65  O   UNL     1       7.416   5.609  21.536  0.00  0.00    -0.503 OA
ATOM     66  H   UNL     1       6.961   6.468  21.569  0.00  0.00    +0.292 HD
ENDBRANCH  63  65
BRANCH  62  67
ATOM     67  O   UNL     1       5.594   3.700  22.143  0.00  0.00    -0.503 OA
ATOM     68  H   UNL     1       6.107   3.693  21.311  0.00  0.00    +0.292 HD
ENDBRANCH  62  67
ENDBRANCH  57  60
ENDBRANCH  55  58
ENDBRANCH  54  55
ENDBRANCH  53  54
ENDBRANCH  41  53
ENDBRANCH  40  43
ENDBRANCH   1  40
TORSDOF 23
ENDMDL
MODEL 5
REMARK VINA RESULT:      -7.0      2.438      9.226
REMARK  Name = 
REMARK  23 active torsions:
REMARK  status: ('A' for Active; 'I' for Inactive)
REMARK    1  A    between atoms: C_3  and  O_66
REMARK    2  A    between atoms: C_4  and  O_65
REMARK    3  A    between atoms: C_6  and  C_7
REMARK    4  A    between atoms: C_8  and  C_9
REMARK    5  A    between atoms: C_9  and  O_11
REMARK    6  A    between atoms: O_11  and  C_12
REMARK    7  A    between atoms: C_12  and  C_13
REMARK    8  A    between atoms: C_15  and  O_64
REMARK    9  A    between atoms: C_17  and  O_63
REMARK   10  A    between atoms: C_19  and  O_62
REMARK   11  A    between atoms: C_21  and  O_24
REMARK   12  A    between atoms: O_24  and  C_25
REMARK   13  A    between atoms: C_27  and  O_61
REMARK   14  A    between atoms: C_29  and  O_60
REMARK   15  A    between atoms: C_31  and  C_58
REMARK   16  A    between atoms: C_34  and  O_36
REMARK   17  A    between atoms: O_36  and  C_37
REMARK   18  A    between atoms: C_38  and  C_50
REMARK   19  A    between atoms: C_42  and  O_49
REMARK   20  A    between atoms: C_44  and  O_48
REMARK   21  A    between atoms: C_52  and  O_57
REMARK   22  A    between atoms: C_53  and  O_56
REMARK   23  A    between atoms: C_58  and  O_59
REMARK                            x       y       z     vdW  Elec       q    Type
REMARK                         _______ _______ _______ _____ _____    ______ ____
ROOT
ATOM      1  C   UNL     1       5.962   4.659  24.262  0.00  0.00    +0.221 C 
ATOM      2  C   UNL     1       6.081   3.632  23.108  0.00  0.00    +0.340 C 
ATOM      3  O   UNL     1       5.128   3.905  22.051  0.00  0.00    -0.331 OA
ATOM      4  C   UNL     1       3.787   3.684  22.510  0.00  0.00    +0.179 C 
ATOM      5  C   UNL     1       3.463   4.812  23.483  0.00  0.00    +0.177 C 
ATOM      6  C   UNL     1       4.482   4.852  24.650  0.00  0.00    +0.180 C 
ENDROOT
BRANCH   6   7
ATOM      7  O   UNL     1       4.286   6.123  25.296  0.00  0.00    -0.386 OA
ATOM      8  H   UNL     1       3.639   6.610  24.747  0.00  0.00    +0.210 HD
ENDBRANCH   6   7
BRANCH   5   9
ATOM      9  O   UNL     1       2.158   4.618  24.046  0.00  0.00    -0.386 OA
ATOM     10  H   UNL     1       2.064   3.653  24.156  0.00  0.00    +0.210 HD
ENDBRANCH   5   9
BRANCH   4  11
ATOM     11  C   UNL     1       2.768   3.569  21.350  0.00  0.00    +0.190 C 
BRANCH  11  12
ATOM     12  O   UNL     1       2.667   4.748  20.556  0.00  0.00    -0.392 OA
ATOM     13  H   UNL     1       2.767   5.496  21.170  0.00  0.00    +0.210 HD
ENDBRANCH  11  12
ENDBRANCH   4  11
BRANCH   2  14
ATOM     14  O   UNL     1       7.419   3.642  22.540  0.00  0.00    -0.453 OA
BRANCH  14  15
ATOM     15  C   UNL     1       8.164   2.533  22.917  0.00  0.00    +0.214 A 
ATOM     16  C   UNL     1       7.646   1.165  22.574  0.00  0.00    +0.238 A 
ATOM     17  O   UNL     1       6.976   0.950  21.571  0.00  0.00    -0.283 OA
ATOM     18  C   UNL     1       7.992   0.077  23.471  0.00  0.00    +0.109 A 
ATOM     19  C   UNL     1       9.159   0.246  24.202  0.00  0.00    +0.147 A 
ATOM     20  C   UNL     1       9.610  -0.821  24.989  0.00  0.00    +0.092 A 
ATOM     21  C   UNL     1       8.886  -2.025  25.023  0.00  0.00    +0.124 A 
ATOM     22  C   UNL     1       7.707  -2.179  24.312  0.00  0.00    +0.091 A 
ATOM     23  O   UNL     1       9.923   1.400  24.117  0.00  0.00    -0.451 OA
ATOM     24  C   UNL     1       7.248  -1.117  23.539  0.00  0.00    +0.135 A 
ATOM     25  C   UNL     1       9.378   2.575  23.523  0.00  0.00    +0.181 A 
BRANCH  25  26
ATOM     26  C   UNL     1      10.322   3.783  23.607  0.00  0.00    +0.025 A 
ATOM     27  C   UNL     1       9.850   4.983  24.189  0.00  0.00    +0.015 A 
ATOM     28  C   UNL     1      10.678   6.082  24.436  0.00  0.00    +0.050 A 
ATOM     29  C   UNL     1      12.026   6.037  24.118  0.00  0.00    +0.158 A 
ATOM     30  C   UNL     1      12.537   4.883  23.541  0.00  0.00    +0.159 A 
ATOM     31  C   UNL     1      11.703   3.772  23.275  0.00  0.00    +0.060 A 
BRANCH  30  32
ATOM     32  O   UNL     1      13.884   4.894  23.278  0.00  0.00    -0.503 OA
ATOM     33  H   UNL     1      14.362   5.034  24.114  0.00  0.00    +0.292 HD
ENDBRANCH  30  32
BRANCH  29  34
ATOM     34  O   UNL     1      12.829   7.108  24.396  0.00  0.00    -0.503 OA
ATOM     35  H   UNL     1      13.734   6.818  24.171  0.00  0.00    +0.292 HD
ENDBRANCH  29  34
ENDBRANCH  25  26
BRANCH  24  36
ATOM     36  O   UNL     1       6.059  -1.257  22.876  0.00  0.00    -0.506 OA
ATOM     37  H   UNL     1       5.423  -1.734  23.436  0.00  0.00    +0.292 HD
ENDBRANCH  24  36
BRANCH  21  38
ATOM     38  O   UNL     1       9.292  -3.097  25.757  0.00  0.00    -0.507 OA
ATOM     39  H   UNL     1       8.581  -3.356  26.369  0.00  0.00    +0.292 HD
ENDBRANCH  21  38
ENDBRANCH  14  15
ENDBRANCH   2  14
BRANCH   1  40
ATOM     40  O   UNL     1       6.914   4.473  25.334  0.00  0.00    -0.337 OA
BRANCH  40  43
ATOM     41  C   UNL     1       7.178   1.407  27.353  0.00  0.00    +0.190 C 
ATOM     42  O   UNL     1       6.516   2.287  26.384  0.00  0.00    -0.339 OA
ATOM     43  C   UNL     1       6.960   3.666  26.520  0.00  0.00    +0.282 C 
ATOM     44  C   UNL     1       6.492   4.192  27.907  0.00  0.00    +0.201 C 
ATOM     45  C   UNL     1       7.228   3.349  28.989  0.00  0.00    +0.179 C 
ATOM     46  C   UNL     1       6.926   1.853  28.814  0.00  0.00    +0.178 C 
BRANCH  46  47
ATOM     47  O   UNL     1       7.737   1.145  29.772  0.00  0.00    -0.386 OA
ATOM     48  H   UNL     1       8.635   1.529  29.734  0.00  0.00    +0.210 HD
ENDBRANCH  46  47
BRANCH  45  49
ATOM     49  O   UNL     1       6.913   3.722  30.327  0.00  0.00    -0.386 OA
ATOM     50  H   UNL     1       7.765   3.809  30.787  0.00  0.00    +0.210 HD
ENDBRANCH  45  49
BRANCH  44  51
ATOM     51  O   UNL     1       6.736   5.590  28.090  0.00  0.00    -0.384 OA
ATOM     52  H   UNL     1       7.266   5.902  27.336  0.00  0.00    +0.210 HD
ENDBRANCH  44  51
BRANCH  41  53
ATOM     53  C   UNL     1       6.715  -0.062  27.176  0.00  0.00    +0.266 C 
BRANCH  53  54
ATOM     54  O   UNL     1       5.459  -0.321  27.851  0.00  0.00    -0.459 OA
BRANCH  54  55
ATOM     55  C   UNL     1       4.405  -0.508  27.018  0.00  0.00    +0.332 C 
ATOM     56  O   UNL     1       3.425   0.225  26.952  0.00  0.00    -0.246 OA
BRANCH  55  58
ATOM     57  C   UNL     1       4.133  -2.880  26.642  0.00  0.00    +0.015 C 
ATOM     58  C   UNL     1       4.603  -1.709  26.182  0.00  0.00    +0.092 C 
BRANCH  57  60
ATOM     59  C   UNL     1       4.762  -4.361  24.697  0.00  0.00    +0.012 A 
ATOM     60  C   UNL     1       4.182  -4.182  25.962  0.00  0.00    -0.021 A 
ATOM     61  C   UNL     1       3.518  -5.260  26.564  0.00  0.00    +0.057 A 
ATOM     62  C   UNL     1       3.445  -6.482  25.910  0.00  0.00    +0.159 A 
ATOM     63  C   UNL     1       4.020  -6.654  24.655  0.00  0.00    +0.158 A 
ATOM     64  C   UNL     1       4.686  -5.601  24.043  0.00  0.00    +0.050 A 
BRANCH  63  65
ATOM     65  O   UNL     1       3.884  -7.876  24.059  0.00  0.00    -0.503 OA
ATOM     66  H   UNL     1       2.957  -8.157  24.148  0.00  0.00    +0.292 HD
ENDBRANCH  63  65
BRANCH  62  67
ATOM     67  O   UNL     1       2.775  -7.515  26.503  0.00  0.00    -0.503 OA
ATOM     68  H   UNL     1       3.066  -7.495  27.435  0.00  0.00    +0.292 HD
ENDBRANCH  62  67
ENDBRANCH  57  60
ENDBRANCH  55  58
ENDBRANCH  54  55
ENDBRANCH  53  54
ENDBRANCH  41  53
ENDBRANCH  40  43
ENDBRANCH   1  40
TORSDOF 23
ENDMDL
MODEL 6
REMARK VINA RESULT:      -7.0      1.858      5.615
REMARK  Name = 
REMARK  23 active torsions:
REMARK  status: ('A' for Active; 'I' for Inactive)
REMARK    1  A    between atoms: C_3  and  O_66
REMARK    2  A    between atoms: C_4  and  O_65
REMARK    3  A    between atoms: C_6  and  C_7
REMARK    4  A    between atoms: C_8  and  C_9
REMARK    5  A    between atoms: C_9  and  O_11
REMARK    6  A    between atoms: O_11  and  C_12
REMARK    7  A    between atoms: C_12  and  C_13
REMARK    8  A    between atoms: C_15  and  O_64
REMARK    9  A    between atoms: C_17  and  O_63
REMARK   10  A    between atoms: C_19  and  O_62
REMARK   11  A    between atoms: C_21  and  O_24
REMARK   12  A    between atoms: O_24  and  C_25
REMARK   13  A    between atoms: C_27  and  O_61
REMARK   14  A    between atoms: C_29  and  O_60
REMARK   15  A    between atoms: C_31  and  C_58
REMARK   16  A    between atoms: C_34  and  O_36
REMARK   17  A    between atoms: O_36  and  C_37
REMARK   18  A    between atoms: C_38  and  C_50
REMARK   19  A    between atoms: C_42  and  O_49
REMARK   20  A    between atoms: C_44  and  O_48
REMARK   21  A    between atoms: C_52  and  O_57
REMARK   22  A    between atoms: C_53  and  O_56
REMARK   23  A    between atoms: C_58  and  O_59
REMARK                            x       y       z     vdW  Elec       q    Type
REMARK                         _______ _______ _______ _____ _____    ______ ____
ROOT
ATOM      1  C   UNL     1       6.306  -4.017  23.630  0.00  0.00    +0.221 C 
ATOM      2  C   UNL     1       5.374  -3.605  24.795  0.00  0.00    +0.340 C 
ATOM      3  O   UNL     1       4.636  -4.739  25.315  0.00  0.00    -0.331 OA
ATOM      4  C   UNL     1       3.701  -5.224  24.341  0.00  0.00    +0.179 C 
ATOM      5  C   UNL     1       4.518  -5.894  23.241  0.00  0.00    +0.177 C 
ATOM      6  C   UNL     1       5.543  -4.908  22.628  0.00  0.00    +0.180 C 
ENDROOT
BRANCH   6   7
ATOM      7  O   UNL     1       6.458  -5.719  21.868  0.00  0.00    -0.386 OA
ATOM      8  H   UNL     1       6.233  -6.648  22.074  0.00  0.00    +0.210 HD
ENDBRANCH   6   7
BRANCH   5   9
ATOM      9  O   UNL     1       3.653  -6.340  22.187  0.00  0.00    -0.386 OA
ATOM     10  H   UNL     1       2.978  -6.893  22.622  0.00  0.00    +0.210 HD
ENDBRANCH   5   9
BRANCH   4  11
ATOM     11  C   UNL     1       2.625  -6.153  24.953  0.00  0.00    +0.190 C 
BRANCH  11  12
ATOM     12  O   UNL     1       1.436  -6.248  24.172  0.00  0.00    -0.392 OA
ATOM     13  H   UNL     1       1.681  -6.737  23.367  0.00  0.00    +0.210 HD
ENDBRANCH  11  12
ENDBRANCH   4  11
BRANCH   2  14
ATOM     14  O   UNL     1       6.132  -3.009  25.882  0.00  0.00    -0.453 OA
BRANCH  14  15
ATOM     15  C   UNL     1       5.359  -2.161  26.666  0.00  0.00    +0.214 A 
ATOM     16  C   UNL     1       5.074  -0.774  26.162  0.00  0.00    +0.238 A 
ATOM     17  O   UNL     1       4.972  -0.518  24.969  0.00  0.00    -0.283 OA
ATOM     18  C   UNL     1       4.892   0.269  27.155  0.00  0.00    +0.109 A 
ATOM     19  C   UNL     1       4.453  -0.153  28.402  0.00  0.00    +0.147 A 
ATOM     20  C   UNL     1       4.140   0.820  29.359  0.00  0.00    +0.092 A 
ATOM     21  C   UNL     1       4.271   2.184  29.047  0.00  0.00    +0.124 A 
ATOM     22  C   UNL     1       4.737   2.599  27.809  0.00  0.00    +0.091 A 
ATOM     23  O   UNL     1       4.244  -1.491  28.697  0.00  0.00    -0.451 OA
ATOM     24  C   UNL     1       5.061   1.637  26.859  0.00  0.00    +0.135 A 
ATOM     25  C   UNL     1       4.771  -2.501  27.841  0.00  0.00    +0.181 A 
BRANCH  25  26
ATOM     26  C   UNL     1       4.535  -3.922  28.374  0.00  0.00    +0.025 A 
ATOM     27  C   UNL     1       3.207  -4.388  28.518  0.00  0.00    +0.015 A 
ATOM     28  C   UNL     1       2.900  -5.709  28.858  0.00  0.00    +0.050 A 
ATOM     29  C   UNL     1       3.909  -6.636  29.068  0.00  0.00    +0.158 A 
ATOM     30  C   UNL     1       5.229  -6.227  28.944  0.00  0.00    +0.159 A 
ATOM     31  C   UNL     1       5.547  -4.889  28.613  0.00  0.00    +0.060 A 
BRANCH  30  32
ATOM     32  O   UNL     1       6.176  -7.202  29.136  0.00  0.00    -0.503 OA
ATOM     33  H   UNL     1       6.715  -7.272  28.330  0.00  0.00    +0.292 HD
ENDBRANCH  30  32
BRANCH  29  34
ATOM     34  O   UNL     1       3.592  -7.933  29.368  0.00  0.00    -0.503 OA
ATOM     35  H   UNL     1       3.907  -8.070  30.282  0.00  0.00    +0.292 HD
ENDBRANCH  29  34
ENDBRANCH  25  26
BRANCH  24  36
ATOM     36  O   UNL     1       5.565   2.049  25.655  0.00  0.00    -0.506 OA
ATOM     37  H   UNL     1       6.344   1.515  25.423  0.00  0.00    +0.292 HD
ENDBRANCH  24  36
BRANCH  21  38
ATOM     38  O   UNL     1       3.962   3.167  29.936  0.00  0.00    -0.507 OA
ATOM     39  H   UNL     1       4.219   2.884  30.831  0.00  0.00    +0.292 HD
ENDBRANCH  21  38
ENDBRANCH  14  15
ENDBRANCH   2  14
BRANCH   1  40
ATOM     40  O   UNL     1       7.107  -2.941  23.090  0.00  0.00    -0.337 OA
BRANCH  40  43
ATOM     41  C   UNL     1       7.470   0.707  23.421  0.00  0.00    +0.190 C 
ATOM     42  O   UNL     1       7.584  -0.563  22.695  0.00  0.00    -0.339 OA
ATOM     43  C   UNL     1       7.614  -1.700  23.602  0.00  0.00    +0.282 C 
ATOM     44  C   UNL     1       8.920  -1.614  24.443  0.00  0.00    +0.201 C 
ATOM     45  C   UNL     1       8.826  -0.322  25.306  0.00  0.00    +0.179 C 
ATOM     46  C   UNL     1       8.638   0.916  24.417  0.00  0.00    +0.178 C 
BRANCH  46  47
ATOM     47  O   UNL     1       8.439   2.040  25.297  0.00  0.00    -0.386 OA
ATOM     48  H   UNL     1       8.885   1.832  26.141  0.00  0.00    +0.210 HD
ENDBRANCH  46  47
BRANCH  45  49
ATOM     49  O   UNL     1       9.952  -0.107  26.151  0.00  0.00    -0.386 OA
ATOM     50  H   UNL     1      10.697   0.091  25.558  0.00  0.00    +0.210 HD
ENDBRANCH  45  49
BRANCH  44  51
ATOM     51  O   UNL     1       9.137  -2.766  25.264  0.00  0.00    -0.384 OA
ATOM     52  H   UNL     1       9.912  -3.240  24.915  0.00  0.00    +0.210 HD
ENDBRANCH  44  51
BRANCH  41  53
ATOM     53  C   UNL     1       7.411   1.905  22.439  0.00  0.00    +0.266 C 
BRANCH  53  54
ATOM     54  O   UNL     1       6.127   2.575  22.475  0.00  0.00    -0.459 OA
BRANCH  54  55
ATOM     55  C   UNL     1       6.203   3.920  22.634  0.00  0.00    +0.332 C 
ATOM     56  O   UNL     1       5.245   4.684  22.613  0.00  0.00    -0.246 OA
BRANCH  55  58
ATOM     57  C   UNL     1       7.867   5.089  23.941  0.00  0.00    +0.015 C 
ATOM     58  C   UNL     1       7.599   4.345  22.854  0.00  0.00    +0.092 C 
BRANCH  57  60
ATOM     59  C   UNL     1       9.336   6.592  25.337  0.00  0.00    +0.012 A 
ATOM     60  C   UNL     1       9.180   5.583  24.375  0.00  0.00    -0.021 A 
ATOM     61  C   UNL     1      10.315   5.095  23.711  0.00  0.00    +0.057 A 
ATOM     62  C   UNL     1      11.569   5.609  24.012  0.00  0.00    +0.159 A 
ATOM     63  C   UNL     1      11.718   6.612  24.965  0.00  0.00    +0.158 A 
ATOM     64  C   UNL     1      10.608   7.106  25.638  0.00  0.00    +0.050 A 
BRANCH  63  65
ATOM     65  O   UNL     1      12.978   7.090  25.189  0.00  0.00    -0.503 OA
ATOM     66  H   UNL     1      12.905   7.911  25.706  0.00  0.00    +0.292 HD
ENDBRANCH  63  65
BRANCH  62  67
ATOM     67  O   UNL     1      12.660   5.138  23.339  0.00  0.00    -0.503 OA
ATOM     68  H   UNL     1      12.856   5.826  22.674  0.00  0.00    +0.292 HD
ENDBRANCH  62  67
ENDBRANCH  57  60
ENDBRANCH  55  58
ENDBRANCH  54  55
ENDBRANCH  53  54
ENDBRANCH  41  53
ENDBRANCH  40  43
ENDBRANCH   1  40
TORSDOF 23
ENDMDL
MODEL 7
REMARK VINA RESULT:      -6.9      1.999      8.429
REMARK  Name = 
REMARK  23 active torsions:
REMARK  status: ('A' for Active; 'I' for Inactive)
REMARK    1  A    between atoms: C_3  and  O_66
REMARK    2  A    between atoms: C_4  and  O_65
REMARK    3  A    between atoms: C_6  and  C_7
REMARK    4  A    between atoms: C_8  and  C_9
REMARK    5  A    between atoms: C_9  and  O_11
REMARK    6  A    between atoms: O_11  and  C_12
REMARK    7  A    between atoms: C_12  and  C_13
REMARK    8  A    between atoms: C_15  and  O_64
REMARK    9  A    between atoms: C_17  and  O_63
REMARK   10  A    between atoms: C_19  and  O_62
REMARK   11  A    between atoms: C_21  and  O_24
REMARK   12  A    between atoms: O_24  and  C_25
REMARK   13  A    between atoms: C_27  and  O_61
REMARK   14  A    between atoms: C_29  and  O_60
REMARK   15  A    between atoms: C_31  and  C_58
REMARK   16  A    between atoms: C_34  and  O_36
REMARK   17  A    between atoms: O_36  and  C_37
REMARK   18  A    between atoms: C_38  and  C_50
REMARK   19  A    between atoms: C_42  and  O_49
REMARK   20  A    between atoms: C_44  and  O_48
REMARK   21  A    between atoms: C_52  and  O_57
REMARK   22  A    between atoms: C_53  and  O_56
REMARK   23  A    between atoms: C_58  and  O_59
REMARK                            x       y       z     vdW  Elec       q    Type
REMARK                         _______ _______ _______ _____ _____    ______ ____
ROOT
ATOM      1  C   UNL     1       6.778   0.061  25.312  0.00  0.00    +0.221 C 
ATOM      2  C   UNL     1       8.106   0.831  25.107  0.00  0.00    +0.340 C 
ATOM      3  O   UNL     1       8.355   1.100  23.704  0.00  0.00    -0.331 OA
ATOM      4  C   UNL     1       8.603  -0.120  22.992  0.00  0.00    +0.179 C 
ATOM      5  C   UNL     1       7.273  -0.860  22.908  0.00  0.00    +0.177 C 
ATOM      6  C   UNL     1       6.686  -1.116  24.319  0.00  0.00    +0.180 C 
ENDROOT
BRANCH   6   7
ATOM      7  O   UNL     1       5.315  -1.500  24.109  0.00  0.00    -0.386 OA
ATOM      8  H   UNL     1       5.245  -1.752  23.166  0.00  0.00    +0.210 HD
ENDBRANCH   6   7
BRANCH   5   9
ATOM      9  O   UNL     1       7.455  -2.133  22.272  0.00  0.00    -0.386 OA
ATOM     10  H   UNL     1       8.063  -2.628  22.853  0.00  0.00    +0.210 HD
ENDBRANCH   5   9
BRANCH   4  11
ATOM     11  C   UNL     1       9.257   0.116  21.609  0.00  0.00    +0.190 C 
BRANCH  11  12
ATOM     12  O   UNL     1       9.920  -1.032  21.083  0.00  0.00    -0.392 OA
ATOM     13  H   UNL     1      10.643  -0.693  20.528  0.00  0.00    +0.210 HD
ENDBRANCH  11  12
ENDBRANCH   4  11
BRANCH   2  14
ATOM     14  O   UNL     1       8.091   2.094  25.824  0.00  0.00    -0.453 OA
BRANCH  14  15
ATOM     15  C   UNL     1       7.387   3.081  25.147  0.00  0.00    +0.214 A 
ATOM     16  C   UNL     1       5.908   3.202  25.380  0.00  0.00    +0.238 A 
ATOM     17  O   UNL     1       5.388   2.921  26.452  0.00  0.00    -0.283 OA
ATOM     18  C   UNL     1       5.100   3.698  24.280  0.00  0.00    +0.109 A 
ATOM     19  C   UNL     1       5.757   4.508  23.365  0.00  0.00    +0.147 A 
ATOM     20  C   UNL     1       5.001   5.116  22.355  0.00  0.00    +0.092 A 
ATOM     21  C   UNL     1       3.614   4.902  22.287  0.00  0.00    +0.124 A 
ATOM     22  C   UNL     1       2.967   4.070  23.188  0.00  0.00    +0.091 A 
ATOM     23  O   UNL     1       7.110   4.790  23.466  0.00  0.00    -0.451 OA
ATOM     24  C   UNL     1       3.715   3.454  24.185  0.00  0.00    +0.135 A 
ATOM     25  C   UNL     1       7.939   4.010  24.324  0.00  0.00    +0.181 A 
BRANCH  25  26
ATOM     26  C   UNL     1       9.424   4.393  24.234  0.00  0.00    +0.025 A 
ATOM     27  C   UNL     1      10.295   3.584  23.467  0.00  0.00    +0.015 A 
ATOM     28  C   UNL     1      11.625   3.932  23.213  0.00  0.00    +0.050 A 
ATOM     29  C   UNL     1      12.152   5.114  23.709  0.00  0.00    +0.158 A 
ATOM     30  C   UNL     1      11.340   5.940  24.471  0.00  0.00    +0.159 A 
ATOM     31  C   UNL     1       9.996   5.588  24.744  0.00  0.00    +0.060 A 
BRANCH  30  32
ATOM     32  O   UNL     1      11.915   7.107  24.906  0.00  0.00    -0.503 OA
ATOM     33  H   UNL     1      12.851   7.108  24.642  0.00  0.00    +0.292 HD
ENDBRANCH  30  32
BRANCH  29  34
ATOM     34  O   UNL     1      13.445   5.456  23.424  0.00  0.00    -0.503 OA
ATOM     35  H   UNL     1      13.559   6.357  23.783  0.00  0.00    +0.292 HD
ENDBRANCH  29  34
ENDBRANCH  25  26
BRANCH  24  36
ATOM     36  O   UNL     1       3.081   2.596  25.044  0.00  0.00    -0.506 OA
ATOM     37  H   UNL     1       3.531   2.600  25.906  0.00  0.00    +0.292 HD
ENDBRANCH  24  36
BRANCH  21  38
ATOM     38  O   UNL     1       2.833   5.485  21.337  0.00  0.00    -0.507 OA
ATOM     39  H   UNL     1       2.659   6.409  21.586  0.00  0.00    +0.292 HD
ENDBRANCH  21  38
ENDBRANCH  14  15
ENDBRANCH   2  14
BRANCH   1  40
ATOM     40  O   UNL     1       6.443  -0.204  26.694  0.00  0.00    -0.337 OA
BRANCH  40  43
ATOM     41  C   UNL     1       3.387  -2.111  27.449  0.00  0.00    +0.190 C 
ATOM     42  O   UNL     1       4.211  -1.228  26.616  0.00  0.00    -0.339 OA
ATOM     43  C   UNL     1       5.244  -0.563  27.395  0.00  0.00    +0.282 C 
ATOM     44  C   UNL     1       4.548   0.394  28.406  0.00  0.00    +0.201 C 
ATOM     45  C   UNL     1       3.718  -0.493  29.379  0.00  0.00    +0.179 C 
ATOM     46  C   UNL     1       2.700  -1.346  28.607  0.00  0.00    +0.178 C 
BRANCH  46  47
ATOM     47  O   UNL     1       2.067  -2.215  29.566  0.00  0.00    -0.386 OA
ATOM     48  H   UNL     1       2.257  -3.135  29.296  0.00  0.00    +0.210 HD
ENDBRANCH  46  47
BRANCH  45  49
ATOM     49  O   UNL     1       3.026   0.242  30.384  0.00  0.00    -0.386 OA
ATOM     50  H   UNL     1       3.566   0.167  31.189  0.00  0.00    +0.210 HD
ENDBRANCH  45  49
BRANCH  44  51
ATOM     51  O   UNL     1       5.471   1.221  29.122  0.00  0.00    -0.384 OA
ATOM     52  H   UNL     1       5.018   1.556  29.915  0.00  0.00    +0.210 HD
ENDBRANCH  44  51
BRANCH  41  53
ATOM     53  C   UNL     1       2.310  -2.832  26.599  0.00  0.00    +0.266 C 
BRANCH  53  54
ATOM     54  O   UNL     1       2.120  -4.207  27.014  0.00  0.00    -0.459 OA
BRANCH  54  55
ATOM     55  C   UNL     1       2.431  -5.125  26.067  0.00  0.00    +0.332 C 
ATOM     56  O   UNL     1       1.625  -5.645  25.303  0.00  0.00    -0.246 OA
BRANCH  55  58
ATOM     57  C   UNL     1       4.640  -4.778  25.150  0.00  0.00    +0.015 C 
ATOM     58  C   UNL     1       3.880  -5.406  26.062  0.00  0.00    +0.092 C 
BRANCH  57  60
ATOM     59  C   UNL     1       6.716  -5.155  23.765  0.00  0.00    +0.012 A 
ATOM     60  C   UNL     1       6.098  -4.875  24.993  0.00  0.00    -0.021 A 
ATOM     61  C   UNL     1       6.888  -4.794  26.149  0.00  0.00    +0.057 A 
ATOM     62  C   UNL     1       8.260  -4.986  26.066  0.00  0.00    +0.159 A 
ATOM     63  C   UNL     1       8.868  -5.265  24.846  0.00  0.00    +0.158 A 
ATOM     64  C   UNL     1       8.105  -5.346  23.688  0.00  0.00    +0.050 A 
BRANCH  63  65
ATOM     65  O   UNL     1      10.218  -5.472  24.845  0.00  0.00    -0.503 OA
ATOM     66  H   UNL     1      10.658  -4.615  24.708  0.00  0.00    +0.292 HD
ENDBRANCH  63  65
BRANCH  62  67
ATOM     67  O   UNL     1       9.010  -4.925  27.206  0.00  0.00    -0.503 OA
ATOM     68  H   UNL     1       9.134  -3.970  27.368  0.00  0.00    +0.292 HD
ENDBRANCH  62  67
ENDBRANCH  57  60
ENDBRANCH  55  58
ENDBRANCH  54  55
ENDBRANCH  53  54
ENDBRANCH  41  53
ENDBRANCH  40  43
ENDBRANCH   1  40
TORSDOF 23
ENDMDL
MODEL 8
REMARK VINA RESULT:      -6.8      2.432      3.709
REMARK  Name = 
REMARK  23 active torsions:
REMARK  status: ('A' for Active; 'I' for Inactive)
REMARK    1  A    between atoms: C_3  and  O_66
REMARK    2  A    between atoms: C_4  and  O_65
REMARK    3  A    between atoms: C_6  and  C_7
REMARK    4  A    between atoms: C_8  and  C_9
REMARK    5  A    between atoms: C_9  and  O_11
REMARK    6  A    between atoms: O_11  and  C_12
REMARK    7  A    between atoms: C_12  and  C_13
REMARK    8  A    between atoms: C_15  and  O_64
REMARK    9  A    between atoms: C_17  and  O_63
REMARK   10  A    between atoms: C_19  and  O_62
REMARK   11  A    between atoms: C_21  and  O_24
REMARK   12  A    between atoms: O_24  and  C_25
REMARK   13  A    between atoms: C_27  and  O_61
REMARK   14  A    between atoms: C_29  and  O_60
REMARK   15  A    between atoms: C_31  and  C_58
REMARK   16  A    between atoms: C_34  and  O_36
REMARK   17  A    between atoms: O_36  and  C_37
REMARK   18  A    between atoms: C_38  and  C_50
REMARK   19  A    between atoms: C_42  and  O_49
REMARK   20  A    between atoms: C_44  and  O_48
REMARK   21  A    between atoms: C_52  and  O_57
REMARK   22  A    between atoms: C_53  and  O_56
REMARK   23  A    between atoms: C_58  and  O_59
REMARK                            x       y       z     vdW  Elec       q    Type
REMARK                         _______ _______ _______ _____ _____    ______ ____
ROOT
ATOM      1  C   UNL     1       2.725  -0.846  27.119  0.00  0.00    +0.221 C 
ATOM      2  C   UNL     1       3.557  -2.098  26.746  0.00  0.00    +0.340 C 
ATOM      3  O   UNL     1       2.866  -3.323  27.096  0.00  0.00    -0.331 OA
ATOM      4  C   UNL     1       2.756  -3.451  28.521  0.00  0.00    +0.179 C 
ATOM      5  C   UNL     1       1.742  -2.410  28.980  0.00  0.00    +0.177 C 
ATOM      6  C   UNL     1       2.173  -0.984  28.553  0.00  0.00    +0.180 C 
ENDROOT
BRANCH   6   7
ATOM      7  O   UNL     1       1.011  -0.154  28.733  0.00  0.00    -0.386 OA
ATOM      8  H   UNL     1       0.897   0.339  27.897  0.00  0.00    +0.210 HD
ENDBRANCH   6   7
BRANCH   5   9
ATOM      9  O   UNL     1       1.633  -2.425  30.411  0.00  0.00    -0.386 OA
ATOM     10  H   UNL     1       1.781  -3.353  30.672  0.00  0.00    +0.210 HD
ENDBRANCH   5   9
BRANCH   4  11
ATOM     11  C   UNL     1       2.397  -4.889  28.967  0.00  0.00    +0.190 C 
BRANCH  11  12
ATOM     12  O   UNL     1       2.955  -5.256  30.227  0.00  0.00    -0.392 OA
ATOM     13  H   UNL     1       2.709  -6.187  30.369  0.00  0.00    +0.210 HD
ENDBRANCH  11  12
ENDBRANCH   4  11
BRANCH   2  14
ATOM     14  O   UNL     1       3.849  -2.122  25.322  0.00  0.00    -0.453 OA
BRANCH  14  15
ATOM     15  C   UNL     1       5.212  -2.142  25.060  0.00  0.00    +0.214 A 
ATOM     16  C   UNL     1       5.855  -0.912  24.485  0.00  0.00    +0.238 A 
ATOM     17  O   UNL     1       5.452   0.217  24.738  0.00  0.00    -0.283 OA
ATOM     18  C   UNL     1       7.009  -1.103  23.625  0.00  0.00    +0.109 A 
ATOM     19  C   UNL     1       7.735  -2.266  23.839  0.00  0.00    +0.147 A 
ATOM     20  C   UNL     1       8.928  -2.444  23.127  0.00  0.00    +0.092 A 
ATOM     21  C   UNL     1       9.363  -1.459  22.224  0.00  0.00    +0.124 A 
ATOM     22  C   UNL     1       8.619  -0.312  21.994  0.00  0.00    +0.091 A 
ATOM     23  O   UNL     1       7.358  -3.209  24.784  0.00  0.00    -0.451 OA
ATOM     24  C   UNL     1       7.428  -0.136  22.690  0.00  0.00    +0.135 A 
ATOM     25  C   UNL     1       6.048  -3.174  25.343  0.00  0.00    +0.181 A 
BRANCH  25  26
ATOM     26  C   UNL     1       5.770  -4.351  26.290  0.00  0.00    +0.025 A 
ATOM     27  C   UNL     1       5.177  -5.525  25.769  0.00  0.00    +0.015 A 
ATOM     28  C   UNL     1       5.018  -6.692  26.523  0.00  0.00    +0.050 A 
ATOM     29  C   UNL     1       5.450  -6.747  27.839  0.00  0.00    +0.158 A 
ATOM     30  C   UNL     1       6.033  -5.619  28.398  0.00  0.00    +0.159 A 
ATOM     31  C   UNL     1       6.185  -4.430  27.646  0.00  0.00    +0.060 A 
BRANCH  30  32
ATOM     32  O   UNL     1       6.464  -5.751  29.694  0.00  0.00    -0.503 OA
ATOM     33  H   UNL     1       6.360  -6.679  29.963  0.00  0.00    +0.292 HD
ENDBRANCH  30  32
BRANCH  29  34
ATOM     34  O   UNL     1       5.317  -7.906  28.552  0.00  0.00    -0.503 OA
ATOM     35  H   UNL     1       4.379  -8.161  28.458  0.00  0.00    +0.292 HD
ENDBRANCH  29  34
ENDBRANCH  25  26
BRANCH  24  36
ATOM     36  O   UNL     1       6.673   0.975  22.425  0.00  0.00    -0.506 OA
ATOM     37  H   UNL     1       6.933   1.699  23.019  0.00  0.00    +0.292 HD
ENDBRANCH  24  36
BRANCH  21  38
ATOM     38  O   UNL     1      10.523  -1.577  21.522  0.00  0.00    -0.507 OA
ATOM     39  H   UNL     1      10.980  -0.717  21.510  0.00  0.00    +0.292 HD
ENDBRANCH  21  38
ENDBRANCH  14  15
ENDBRANCH   2  14
BRANCH   1  40
ATOM     40  O   UNL     1       3.336   0.413  26.758  0.00  0.00    -0.337 OA
BRANCH  40  43
ATOM     41  C   UNL     1       2.209   3.348  24.844  0.00  0.00    +0.190 C 
ATOM     42  O   UNL     1       3.211   2.363  25.267  0.00  0.00    -0.339 OA
ATOM     43  C   UNL     1       2.855   1.746  26.537  0.00  0.00    +0.282 C 
ATOM     44  C   UNL     1       2.902   2.845  27.638  0.00  0.00    +0.201 C 
ATOM     45  C   UNL     1       1.798   3.887  27.293  0.00  0.00    +0.179 C 
ATOM     46  C   UNL     1       2.022   4.474  25.890  0.00  0.00    +0.178 C 
BRANCH  46  47
ATOM     47  O   UNL     1       0.896   5.329  25.608  0.00  0.00    -0.386 OA
ATOM     48  H   UNL     1       0.902   5.514  24.649  0.00  0.00    +0.210 HD
ENDBRANCH  46  47
BRANCH  45  49
ATOM     49  O   UNL     1       1.703   4.960  28.224  0.00  0.00    -0.386 OA
ATOM     50  H   UNL     1       0.865   4.826  28.701  0.00  0.00    +0.210 HD
ENDBRANCH  45  49
BRANCH  44  51
ATOM     51  O   UNL     1       2.722   2.324  28.959  0.00  0.00    -0.384 OA
ATOM     52  H   UNL     1       2.019   1.653  28.922  0.00  0.00    +0.210 HD
ENDBRANCH  44  51
BRANCH  41  53
ATOM     53  C   UNL     1       2.588   3.973  23.477  0.00  0.00    +0.266 C 
BRANCH  53  54
ATOM     54  O   UNL     1       3.026   5.348  23.611  0.00  0.00    -0.459 OA
BRANCH  54  55
ATOM     55  C   UNL     1       4.123   5.659  22.876  0.00  0.00    +0.332 C 
ATOM     56  O   UNL     1       4.245   6.667  22.190  0.00  0.00    -0.246 OA
BRANCH  55  58
ATOM     57  C   UNL     1       6.218   4.901  23.814  0.00  0.00    +0.015 C 
ATOM     58  C   UNL     1       5.166   4.625  23.025  0.00  0.00    +0.092 C 
BRANCH  57  60
ATOM     59  C   UNL     1       8.540   4.001  23.405  0.00  0.00    +0.012 A 
ATOM     60  C   UNL     1       7.342   4.012  24.135  0.00  0.00    -0.021 A 
ATOM     61  C   UNL     1       7.154   3.059  25.147  0.00  0.00    +0.057 A 
ATOM     62  C   UNL     1       8.148   2.127  25.415  0.00  0.00    +0.159 A 
ATOM     63  C   UNL     1       9.333   2.120  24.687  0.00  0.00    +0.158 A 
ATOM     64  C   UNL     1       9.541   3.057  23.683  0.00  0.00    +0.050 A 
BRANCH  63  65
ATOM     65  O   UNL     1      10.253   1.156  24.986  0.00  0.00    -0.503 OA
ATOM     66  H   UNL     1       9.988   0.332  24.542  0.00  0.00    +0.292 HD
ENDBRANCH  63  65
BRANCH  62  67
ATOM     67  O   UNL     1       7.938   1.193  26.390  0.00  0.00    -0.503 OA
ATOM     68  H   UNL     1       7.186   1.542  26.907  0.00  0.00    +0.292 HD
ENDBRANCH  62  67
ENDBRANCH  57  60
ENDBRANCH  55  58
ENDBRANCH  54  55
ENDBRANCH  53  54
ENDBRANCH  41  53
ENDBRANCH  40  43
ENDBRANCH   1  40
TORSDOF 23
ENDMDL
MODEL 9
REMARK VINA RESULT:      -6.8      1.694      2.821
REMARK  Name = 
REMARK  23 active torsions:
REMARK  status: ('A' for Active; 'I' for Inactive)
REMARK    1  A    between atoms: C_3  and  O_66
REMARK    2  A    between atoms: C_4  and  O_65
REMARK    3  A    between atoms: C_6  and  C_7
REMARK    4  A    between atoms: C_8  and  C_9
REMARK    5  A    between atoms: C_9  and  O_11
REMARK    6  A    between atoms: O_11  and  C_12
REMARK    7  A    between atoms: C_12  and  C_13
REMARK    8  A    between atoms: C_15  and  O_64
REMARK    9  A    between atoms: C_17  and  O_63
REMARK   10  A    between atoms: C_19  and  O_62
REMARK   11  A    between atoms: C_21  and  O_24
REMARK   12  A    between atoms: O_24  and  C_25
REMARK   13  A    between atoms: C_27  and  O_61
REMARK   14  A    between atoms: C_29  and  O_60
REMARK   15  A    between atoms: C_31  and  C_58
REMARK   16  A    between atoms: C_34  and  O_36
REMARK   17  A    between atoms: O_36  and  C_37
REMARK   18  A    between atoms: C_38  and  C_50
REMARK   19  A    between atoms: C_42  and  O_49
REMARK   20  A    between atoms: C_44  and  O_48
REMARK   21  A    between atoms: C_52  and  O_57
REMARK   22  A    between atoms: C_53  and  O_56
REMARK   23  A    between atoms: C_58  and  O_59
REMARK                            x       y       z     vdW  Elec       q    Type
REMARK                         _______ _______ _______ _____ _____    ______ ____
ROOT
ATOM      1  C   UNL     1       5.204  -3.356  26.929  0.00  0.00    +0.221 C 
ATOM      2  C   UNL     1       6.432  -2.537  26.461  0.00  0.00    +0.340 C 
ATOM      3  O   UNL     1       7.437  -3.384  25.851  0.00  0.00    -0.331 OA
ATOM      4  C   UNL     1       8.018  -4.263  26.825  0.00  0.00    +0.179 C 
ATOM      5  C   UNL     1       6.952  -5.294  27.178  0.00  0.00    +0.177 C 
ATOM      6  C   UNL     1       5.664  -4.610  27.701  0.00  0.00    +0.180 C 
ENDROOT
BRANCH   6   7
ATOM      7  O   UNL     1       4.645  -5.625  27.678  0.00  0.00    -0.386 OA
ATOM      8  H   UNL     1       3.949  -5.298  27.073  0.00  0.00    +0.210 HD
ENDBRANCH   6   7
BRANCH   5   9
ATOM      9  O   UNL     1       7.434  -6.168  28.209  0.00  0.00    -0.386 OA
ATOM     10  H   UNL     1       8.133  -5.665  28.668  0.00  0.00    +0.210 HD
ENDBRANCH   5   9
BRANCH   4  11
ATOM     11  C   UNL     1       9.344  -4.898  26.344  0.00  0.00    +0.190 C 
BRANCH  11  12
ATOM     12  O   UNL     1       9.177  -6.160  25.701  0.00  0.00    -0.392 OA
ATOM     13  H   UNL     1       9.390  -6.833  26.370  0.00  0.00    +0.210 HD
ENDBRANCH  11  12
ENDBRANCH   4  11
BRANCH   2  14
ATOM     14  O   UNL     1       6.042  -1.517  25.502  0.00  0.00    -0.453 OA
BRANCH  14  15
ATOM     15  C   UNL     1       7.079  -1.168  24.647  0.00  0.00    +0.214 A 
ATOM     16  C   UNL     1       8.107  -0.181  25.125  0.00  0.00    +0.238 A 
ATOM     17  O   UNL     1       8.431  -0.091  26.303  0.00  0.00    -0.283 OA
ATOM     18  C   UNL     1       8.736   0.662  24.124  0.00  0.00    +0.109 A 
ATOM     19  C   UNL     1       8.773   0.145  22.837  0.00  0.00    +0.147 A 
ATOM     20  C   UNL     1       9.477   0.856  21.857  0.00  0.00    +0.092 A 
ATOM     21  C   UNL     1      10.126   2.057  22.188  0.00  0.00    +0.124 A 
ATOM     22  C   UNL     1      10.063   2.582  23.470  0.00  0.00    +0.091 A 
ATOM     23  O   UNL     1       8.204  -1.077  22.515  0.00  0.00    -0.451 OA
ATOM     24  C   UNL     1       9.355   1.887  24.443  0.00  0.00    +0.135 A 
ATOM     25  C   UNL     1       7.290  -1.698  23.416  0.00  0.00    +0.181 A 
BRANCH  25  26
ATOM     26  C   UNL     1       6.680  -2.991  22.854  0.00  0.00    +0.025 A 
ATOM     27  C   UNL     1       7.535  -3.959  22.277  0.00  0.00    +0.015 A 
ATOM     28  C   UNL     1       7.088  -5.220  21.872  0.00  0.00    +0.050 A 
ATOM     29  C   UNL     1       5.759  -5.581  22.028  0.00  0.00    +0.158 A 
ATOM     30  C   UNL     1       4.879  -4.665  22.584  0.00  0.00    +0.159 A 
ATOM     31  C   UNL     1       5.321  -3.381  22.984  0.00  0.00    +0.060 A 
BRANCH  30  32
ATOM     32  O   UNL     1       3.585  -5.097  22.736  0.00  0.00    -0.503 OA
ATOM     33  H   UNL     1       3.032  -4.338  22.988  0.00  0.00    +0.292 HD
ENDBRANCH  30  32
BRANCH  29  34
ATOM     34  O   UNL     1       5.344  -6.830  21.657  0.00  0.00    -0.503 OA
ATOM     35  H   UNL     1       4.560  -6.685  21.093  0.00  0.00    +0.292 HD
ENDBRANCH  29  34
ENDBRANCH  25  26
BRANCH  24  36
ATOM     36  O   UNL     1       9.255   2.432  25.695  0.00  0.00    -0.506 OA
ATOM     37  H   UNL     1       9.403   3.393  25.649  0.00  0.00    +0.292 HD
ENDBRANCH  24  36
BRANCH  21  38
ATOM     38  O   UNL     1      10.839   2.775  21.276  0.00  0.00    -0.507 OA
ATOM     39  H   UNL     1      10.431   2.674  20.399  0.00  0.00    +0.292 HD
ENDBRANCH  21  38
ENDBRANCH  14  15
ENDBRANCH   2  14
BRANCH   1  40
ATOM     40  O   UNL     1       4.141  -2.567  27.510  0.00  0.00    -0.337 OA
BRANCH  40  43
ATOM     41  C   UNL     1       4.557   1.056  28.002  0.00  0.00    +0.190 C 
ATOM     42  O   UNL     1       4.440  -0.327  28.476  0.00  0.00    -0.339 OA
ATOM     43  C   UNL     1       3.784  -1.177  27.494  0.00  0.00    +0.282 C 
ATOM     44  C   UNL     1       2.313  -0.693  27.341  0.00  0.00    +0.201 C 
ATOM     45  C   UNL     1       2.364   0.749  26.759  0.00  0.00    +0.179 C 
ATOM     46  C   UNL     1       3.178   1.678  27.673  0.00  0.00    +0.178 C 
BRANCH  46  47
ATOM     47  O   UNL     1       3.274   2.950  27.001  0.00  0.00    -0.386 OA
ATOM     48  H   UNL     1       4.104   3.374  27.295  0.00  0.00    +0.210 HD
ENDBRANCH  46  47
BRANCH  45  49
ATOM     49  O   UNL     1       1.082   1.332  26.545  0.00  0.00    -0.386 OA
ATOM     50  H   UNL     1       1.238   2.287  26.440  0.00  0.00    +0.210 HD
ENDBRANCH  45  49
BRANCH  44  51
ATOM     51  O   UNL     1       1.522  -1.554  26.515  0.00  0.00    -0.384 OA
ATOM     52  H   UNL     1       0.636  -1.159  26.434  0.00  0.00    +0.210 HD
ENDBRANCH  44  51
BRANCH  41  53
ATOM     53  C   UNL     1       5.284   1.941  29.048  0.00  0.00    +0.266 C 
BRANCH  53  54
ATOM     54  O   UNL     1       5.435   3.308  28.592  0.00  0.00    -0.459 OA
BRANCH  54  55
ATOM     55  C   UNL     1       6.700   3.789  28.680  0.00  0.00    +0.332 C 
ATOM     56  O   UNL     1       7.439   3.648  29.647  0.00  0.00    -0.246 OA
BRANCH  55  58
ATOM     57  C   UNL     1       6.404   4.206  26.317  0.00  0.00    +0.015 C 
ATOM     58  C   UNL     1       7.081   4.497  27.441  0.00  0.00    +0.092 C 
BRANCH  57  60
ATOM     59  C   UNL     1       5.578   4.833  24.016  0.00  0.00    +0.012 A 
ATOM     60  C   UNL     1       6.586   4.815  24.992  0.00  0.00    -0.021 A 
ATOM     61  C   UNL     1       7.861   5.295  24.661  0.00  0.00    +0.057 A 
ATOM     62  C   UNL     1       8.109   5.781  23.385  0.00  0.00    +0.159 A 
ATOM     63  C   UNL     1       7.107   5.795  22.420  0.00  0.00    +0.158 A 
ATOM     64  C   UNL     1       5.835   5.328  22.728  0.00  0.00    +0.050 A 
BRANCH  63  65
ATOM     65  O   UNL     1       7.430   6.260  21.177  0.00  0.00    -0.503 OA
ATOM     66  H   UNL     1       8.146   5.706  20.821  0.00  0.00    +0.292 HD
ENDBRANCH  63  65
BRANCH  62  67
ATOM     67  O   UNL     1       9.363   6.224  23.074  0.00  0.00    -0.503 OA
ATOM     68  H   UNL     1       9.215   7.021  22.528  0.00  0.00    +0.292 HD
ENDBRANCH  62  67
ENDBRANCH  57  60
ENDBRANCH  55  58
ENDBRANCH  54  55
ENDBRANCH  53  54
ENDBRANCH  41  53
ENDBRANCH  40  43
ENDBRANCH   1  40
TORSDOF 23
ENDMDL
