MODEL 1
REMARK VINA RESULT:      -7.4      0.000      0.000
REMARK  Name = 
REMARK  23 active torsions:
REMARK  status: ('A' for Active; 'I' for Inactive)
REMARK    1  A    between atoms: C_1  and  C_2
REMARK    2  A    between atoms: C_4  and  O_63
REMARK    3  A    between atoms: C_6  and  O_62
REMARK    4  A    between atoms: C_7  and  O_61
REMARK    5  A    between atoms: C_8  and  O_11
REMARK    6  A    between atoms: O_11  and  C_12
REMARK    7  A    between atoms: C_12  and  C_13
REMARK    8  A    between atoms: C_14  and  O_60
REMARK    9  A    between atoms: C_16  and  O_59
REMARK   10  A    between atoms: C_18  and  O_58
REMARK   11  A    between atoms: C_19  and  O_22
REMARK   12  A    between atoms: O_22  and  C_23
REMARK   13  A    between atoms: C_25  and  O_57
REMARK   14  A    between atoms: C_30  and  C_49
REMARK   15  A    between atoms: C_31  and  O_34
REMARK   16  A    between atoms: O_34  and  C_35
REMARK   17  A    between atoms: C_37  and  O_48
REMARK   18  A    between atoms: C_38  and  O_47
REMARK   19  A    between atoms: C_39  and  O_46
REMARK   20  A    between atoms: C_41  and  C_43
REMARK   21  A    between atoms: C_43  and  O_45
REMARK   22  A    between atoms: C_51  and  O_56
REMARK   23  A    between atoms: C_52  and  O_55
REMARK                            x       y       z     vdW  Elec       q    Type
REMARK                         _______ _______ _______ _____ _____    ______ ____
ROOT
ATOM      1  C   UNL     1       5.103   2.471  26.283  0.00  0.00    +0.131 A 
ATOM      2  C   UNL     1       5.652   1.349  25.623  0.00  0.00    +0.093 A 
ATOM      3  C   UNL     1       5.112   0.064  25.838  0.00  0.00    +0.147 A 
ATOM      4  O   UNL     1       5.647  -1.039  25.199  0.00  0.00    -0.451 OA
ATOM      5  C   UNL     1       4.983  -2.283  25.309  0.00  0.00    +0.181 A 
ATOM      6  C   UNL     1       3.946  -2.513  26.170  0.00  0.00    +0.214 A 
ATOM      7  C   UNL     1       3.710  -1.423  27.158  0.00  0.00    +0.238 A 
ATOM      8  O   UNL     1       3.357  -1.652  28.305  0.00  0.00    -0.283 OA
ATOM      9  C   UNL     1       4.061  -0.073  26.732  0.00  0.00    +0.109 A 
ATOM     10  C   UNL     1       3.436   1.045  27.281  0.00  0.00    +0.135 A 
ATOM     11  C   UNL     1       3.945   2.317  27.049  0.00  0.00    +0.092 A 
ENDROOT
BRANCH   5  12
ATOM     12  C   UNL     1       5.562  -3.354  24.441  0.00  0.00    +0.025 A 
ATOM     13  C   UNL     1       4.885  -3.851  23.307  0.00  0.00    +0.015 A 
ATOM     14  C   UNL     1       5.460  -4.836  22.486  0.00  0.00    +0.050 A 
ATOM     15  C   UNL     1       6.723  -5.329  22.791  0.00  0.00    +0.158 A 
ATOM     16  C   UNL     1       7.418  -4.836  23.884  0.00  0.00    +0.159 A 
ATOM     17  C   UNL     1       6.861  -3.847  24.689  0.00  0.00    +0.060 A 
BRANCH  16  18
ATOM     18  O   UNL     1       8.661  -5.349  24.136  0.00  0.00    -0.503 OA
ATOM     19  H   UNL     1       8.643  -6.306  23.958  0.00  0.00    +0.292 HD
ENDBRANCH  16  18
BRANCH  15  20
ATOM     20  O   UNL     1       7.282  -6.299  22.007  0.00  0.00    -0.503 OA
ATOM     21  H   UNL     1       7.363  -7.078  22.597  0.00  0.00    +0.292 HD
ENDBRANCH  15  20
ENDBRANCH   5  12
BRANCH  10  22
ATOM     22  O   UNL     1       2.302   0.893  28.025  0.00  0.00    -0.506 OA
ATOM     23  H   UNL     1       1.840   0.076  27.782  0.00  0.00    +0.292 HD
ENDBRANCH  10  22
BRANCH   6  24
ATOM     24  O   UNL     1       3.245  -3.724  26.295  0.00  0.00    -0.453 OA
BRANCH  24  25
ATOM     25  C   UNL     1       3.281  -4.287  27.633  0.00  0.00    +0.340 C 
ATOM     26  O   UNL     1       4.592  -4.648  28.072  0.00  0.00    -0.322 OA
ATOM     27  C   UNL     1       5.172  -5.765  27.383  0.00  0.00    +0.261 C 
ATOM     28  C   UNL     1       4.352  -7.032  27.617  0.00  0.00    +0.185 C 
ATOM     29  C   UNL     1       2.927  -6.778  27.122  0.00  0.00    +0.180 C 
ATOM     30  C   UNL     1       2.341  -5.513  27.774  0.00  0.00    +0.214 C 
BRANCH  30  31
ATOM     31  O   UNL     1       1.018  -5.287  27.271  0.00  0.00    -0.383 OA
ATOM     32  H   UNL     1       0.514  -6.116  27.359  0.00  0.00    +0.210 HD
ENDBRANCH  30  31
BRANCH  29  33
ATOM     33  O   UNL     1       2.121  -7.922  27.456  0.00  0.00    -0.386 OA
ATOM     34  H   UNL     1       1.363  -7.926  26.838  0.00  0.00    +0.210 HD
ENDBRANCH  29  33
BRANCH  28  35
ATOM     35  O   UNL     1       4.275  -7.346  29.018  0.00  0.00    -0.386 OA
ATOM     36  H   UNL     1       5.192  -7.552  29.287  0.00  0.00    +0.210 HD
ENDBRANCH  28  35
BRANCH  27  37
ATOM     37  C   UNL     1       6.622  -5.955  27.834  0.00  0.00    +0.337 C 
ATOM     38  O   UNL     1       7.596  -5.931  27.095  0.00  0.00    -0.248 OA
BRANCH  37  39
ATOM     39  O   UNL     1       6.735  -6.043  29.185  0.00  0.00    -0.479 OA
ATOM     40  H   UNL     1       7.342  -6.792  29.432  0.00  0.00    +0.295 HD
ENDBRANCH  37  39
ENDBRANCH  27  37
ENDBRANCH  24  25
ENDBRANCH   6  24
BRANCH   1  41
ATOM     41  O   UNL     1       5.729   3.686  26.121  0.00  0.00    -0.461 OA
BRANCH  41  44
ATOM     42  C   UNL     1       8.146   4.566  23.450  0.00  0.00    +0.179 C 
ATOM     43  O   UNL     1       7.601   4.216  24.744  0.00  0.00    -0.331 OA
ATOM     44  C   UNL     1       6.173   4.008  24.775  0.00  0.00    +0.339 C 
ATOM     45  C   UNL     1       5.455   5.300  24.308  0.00  0.00    +0.214 C 
ATOM     46  C   UNL     1       5.948   5.655  22.895  0.00  0.00    +0.180 C 
ATOM     47  C   UNL     1       7.469   5.837  22.897  0.00  0.00    +0.177 C 
BRANCH  47  48
ATOM     48  O   UNL     1       7.886   6.192  21.576  0.00  0.00    -0.386 OA
ATOM     49  H   UNL     1       7.104   6.533  21.103  0.00  0.00    +0.210 HD
ENDBRANCH  47  48
BRANCH  46  50
ATOM     50  O   UNL     1       5.320   6.839  22.394  0.00  0.00    -0.386 OA
ATOM     51  H   UNL     1       6.052   7.443  22.152  0.00  0.00    +0.210 HD
ENDBRANCH  46  50
BRANCH  45  52
ATOM     52  O   UNL     1       5.731   6.391  25.207  0.00  0.00    -0.383 OA
ATOM     53  H   UNL     1       5.500   6.101  26.108  0.00  0.00    +0.210 HD
ENDBRANCH  45  52
BRANCH  42  54
ATOM     54  C   UNL     1       8.149   3.355  22.489  0.00  0.00    +0.197 C 
BRANCH  54  55
ATOM     55  O   UNL     1       9.317   2.546  22.656  0.00  0.00    -0.346 OA
BRANCH  55  59
ATOM     56  C   UNL     1       9.234  -0.380  25.833  0.00  0.00    +0.041 C 
ATOM     57  C   UNL     1      10.071  -0.481  24.562  0.00  0.00    +0.149 C 
ATOM     58  O   UNL     1      10.194   0.807  23.935  0.00  0.00    -0.343 OA
ATOM     59  C   UNL     1       9.008   1.302  23.312  0.00  0.00    +0.282 C 
ATOM     60  C   UNL     1       8.510   0.315  22.235  0.00  0.00    +0.201 C 
ATOM     61  C   UNL     1       8.286  -1.064  22.865  0.00  0.00    +0.179 C 
ATOM     62  C   UNL     1       9.558  -1.549  23.580  0.00  0.00    +0.174 C 
BRANCH  62  63
ATOM     63  O   UNL     1      10.590  -1.826  22.616  0.00  0.00    -0.387 OA
ATOM     64  H   UNL     1      10.510  -2.774  22.378  0.00  0.00    +0.210 HD
ENDBRANCH  62  63
BRANCH  61  65
ATOM     65  O   UNL     1       7.891  -2.004  21.861  0.00  0.00    -0.386 OA
ATOM     66  H   UNL     1       7.122  -2.477  22.241  0.00  0.00    +0.210 HD
ENDBRANCH  61  65
BRANCH  60  67
ATOM     67  O   UNL     1       9.510   0.200  21.195  0.00  0.00    -0.384 OA
ATOM     68  H   UNL     1       9.698   1.121  20.924  0.00  0.00    +0.210 HD
ENDBRANCH  60  67
ENDBRANCH  55  59
ENDBRANCH  54  55
ENDBRANCH  42  54
ENDBRANCH  41  44
ENDBRANCH   1  41
TORSDOF 22
ENDMDL
MODEL 2
REMARK VINA RESULT:      -7.4      1.761      8.986
REMARK  Name = 
REMARK  23 active torsions:
REMARK  status: ('A' for Active; 'I' for Inactive)
REMARK    1  A    between atoms: C_1  and  C_2
REMARK    2  A    between atoms: C_4  and  O_63
REMARK    3  A    between atoms: C_6  and  O_62
REMARK    4  A    between atoms: C_7  and  O_61
REMARK    5  A    between atoms: C_8  and  O_11
REMARK    6  A    between atoms: O_11  and  C_12
REMARK    7  A    between atoms: C_12  and  C_13
REMARK    8  A    between atoms: C_14  and  O_60
REMARK    9  A    between atoms: C_16  and  O_59
REMARK   10  A    between atoms: C_18  and  O_58
REMARK   11  A    between atoms: C_19  and  O_22
REMARK   12  A    between atoms: O_22  and  C_23
REMARK   13  A    between atoms: C_25  and  O_57
REMARK   14  A    between atoms: C_30  and  C_49
REMARK   15  A    between atoms: C_31  and  O_34
REMARK   16  A    between atoms: O_34  and  C_35
REMARK   17  A    between atoms: C_37  and  O_48
REMARK   18  A    between atoms: C_38  and  O_47
REMARK   19  A    between atoms: C_39  and  O_46
REMARK   20  A    between atoms: C_41  and  C_43
REMARK   21  A    between atoms: C_43  and  O_45
REMARK   22  A    between atoms: C_51  and  O_56
REMARK   23  A    between atoms: C_52  and  O_55
REMARK                            x       y       z     vdW  Elec       q    Type
REMARK                         _______ _______ _______ _____ _____    ______ ____
ROOT
ATOM      1  C   UNL     1       4.537  -2.330  27.820  0.00  0.00    +0.131 A 
ATOM      2  C   UNL     1       5.498  -1.866  26.893  0.00  0.00    +0.093 A 
ATOM      3  C   UNL     1       5.434  -0.544  26.405  0.00  0.00    +0.147 A 
ATOM      4  O   UNL     1       6.367  -0.085  25.495  0.00  0.00    -0.451 OA
ATOM      5  C   UNL     1       6.372   1.286  25.153  0.00  0.00    +0.181 A 
ATOM      6  C   UNL     1       5.385   2.161  25.516  0.00  0.00    +0.214 A 
ATOM      7  C   UNL     1       4.178   1.518  26.107  0.00  0.00    +0.238 A 
ATOM      8  O   UNL     1       3.050   1.940  25.899  0.00  0.00    -0.283 OA
ATOM      9  C   UNL     1       4.395   0.269  26.830  0.00  0.00    +0.109 A 
ATOM     10  C   UNL     1       3.527  -0.142  27.840  0.00  0.00    +0.135 A 
ATOM     11  C   UNL     1       3.603  -1.435  28.346  0.00  0.00    +0.092 A 
ENDROOT
BRANCH   5  12
ATOM     12  C   UNL     1       7.528   1.689  24.294  0.00  0.00    +0.025 A 
ATOM     13  C   UNL     1       8.616   2.434  24.797  0.00  0.00    +0.015 A 
ATOM     14  C   UNL     1       9.708   2.776  23.981  0.00  0.00    +0.050 A 
ATOM     15  C   UNL     1       9.722   2.369  22.653  0.00  0.00    +0.158 A 
ATOM     16  C   UNL     1       8.678   1.614  22.144  0.00  0.00    +0.159 A 
ATOM     17  C   UNL     1       7.603   1.257  22.953  0.00  0.00    +0.060 A 
BRANCH  16  18
ATOM     18  O   UNL     1       8.745   1.232  20.831  0.00  0.00    -0.503 OA
ATOM     19  H   UNL     1       9.213   0.381  20.780  0.00  0.00    +0.292 HD
ENDBRANCH  16  18
BRANCH  15  20
ATOM     20  O   UNL     1      10.773   2.712  21.848  0.00  0.00    -0.503 OA
ATOM     21  H   UNL     1      11.344   1.915  21.835  0.00  0.00    +0.292 HD
ENDBRANCH  15  20
ENDBRANCH   5  12
BRANCH  10  22
ATOM     22  O   UNL     1       2.617   0.736  28.355  0.00  0.00    -0.506 OA
ATOM     23  H   UNL     1       2.266   1.312  27.658  0.00  0.00    +0.292 HD
ENDBRANCH  10  22
BRANCH   6  24
ATOM     24  O   UNL     1       5.362   3.533  25.217  0.00  0.00    -0.453 OA
BRANCH  24  25
ATOM     25  C   UNL     1       4.992   3.828  23.844  0.00  0.00    +0.340 C 
ATOM     26  O   UNL     1       6.059   4.363  23.061  0.00  0.00    -0.322 OA
ATOM     27  C   UNL     1       6.474   5.686  23.430  0.00  0.00    +0.261 C 
ATOM     28  C   UNL     1       5.338   6.687  23.225  0.00  0.00    +0.185 C 
ATOM     29  C   UNL     1       4.147   6.240  24.075  0.00  0.00    +0.180 C 
ATOM     30  C   UNL     1       3.771   4.782  23.762  0.00  0.00    +0.214 C 
BRANCH  30  31
ATOM     31  O   UNL     1       2.671   4.385  24.591  0.00  0.00    -0.383 OA
ATOM     32  H   UNL     1       2.271   3.587  24.203  0.00  0.00    +0.210 HD
ENDBRANCH  30  31
BRANCH  29  33
ATOM     33  O   UNL     1       3.035   7.108  23.787  0.00  0.00    -0.386 OA
ATOM     34  H   UNL     1       2.781   6.944  22.857  0.00  0.00    +0.210 HD
ENDBRANCH  29  33
BRANCH  28  35
ATOM     35  O   UNL     1       4.909   6.707  21.853  0.00  0.00    -0.386 OA
ATOM     36  H   UNL     1       4.393   5.885  21.731  0.00  0.00    +0.210 HD
ENDBRANCH  28  35
BRANCH  27  37
ATOM     37  C   UNL     1       7.712   6.085  22.626  0.00  0.00    +0.337 C 
ATOM     38  O   UNL     1       8.813   6.324  23.104  0.00  0.00    -0.248 OA
BRANCH  37  39
ATOM     39  O   UNL     1       7.496   6.036  21.286  0.00  0.00    -0.479 OA
ATOM     40  H   UNL     1       7.084   5.165  21.035  0.00  0.00    +0.295 HD
ENDBRANCH  37  39
ENDBRANCH  27  37
ENDBRANCH  24  25
ENDBRANCH   6  24
BRANCH   1  41
ATOM     41  O   UNL     1       4.581  -3.656  28.187  0.00  0.00    -0.461 OA
BRANCH  41  44
ATOM     42  C   UNL     1       2.949  -4.860  25.083  0.00  0.00    +0.179 C 
ATOM     43  O   UNL     1       3.409  -3.983  26.136  0.00  0.00    -0.331 OA
ATOM     44  C   UNL     1       4.191  -4.619  27.170  0.00  0.00    +0.339 C 
ATOM     45  C   UNL     1       3.349  -5.737  27.837  0.00  0.00    +0.214 C 
ATOM     46  C   UNL     1       2.913  -6.738  26.754  0.00  0.00    +0.180 C 
ATOM     47  C   UNL     1       2.114  -6.020  25.662  0.00  0.00    +0.177 C 
BRANCH  47  48
ATOM     48  O   UNL     1       1.704  -6.986  24.691  0.00  0.00    -0.386 OA
ATOM     49  H   UNL     1       0.837  -7.335  24.971  0.00  0.00    +0.210 HD
ENDBRANCH  47  48
BRANCH  46  50
ATOM     50  O   UNL     1       2.134  -7.807  27.300  0.00  0.00    -0.386 OA
ATOM     51  H   UNL     1       1.941  -8.403  26.548  0.00  0.00    +0.210 HD
ENDBRANCH  46  50
BRANCH  45  52
ATOM     52  O   UNL     1       2.187  -5.183  28.483  0.00  0.00    -0.383 OA
ATOM     53  H   UNL     1       1.445  -5.799  28.343  0.00  0.00    +0.210 HD
ENDBRANCH  45  52
BRANCH  42  54
ATOM     54  C   UNL     1       4.108  -5.287  24.153  0.00  0.00    +0.197 C 
BRANCH  54  55
ATOM     55  O   UNL     1       4.630  -4.181  23.411  0.00  0.00    -0.346 OA
BRANCH  55  59
ATOM     56  C   UNL     1       8.639  -5.505  24.331  0.00  0.00    +0.041 C 
ATOM     57  C   UNL     1       8.043  -4.155  24.720  0.00  0.00    +0.149 C 
ATOM     58  O   UNL     1       6.608  -4.195  24.643  0.00  0.00    -0.343 OA
ATOM     59  C   UNL     1       6.067  -4.238  23.322  0.00  0.00    +0.282 C 
ATOM     60  C   UNL     1       6.534  -3.017  22.504  0.00  0.00    +0.201 C 
ATOM     61  C   UNL     1       8.067  -2.965  22.487  0.00  0.00    +0.179 C 
ATOM     62  C   UNL     1       8.627  -2.979  23.919  0.00  0.00    +0.174 C 
BRANCH  62  63
ATOM     63  O   UNL     1       8.296  -1.750  24.590  0.00  0.00    -0.387 OA
ATOM     64  H   UNL     1       7.342  -1.796  24.813  0.00  0.00    +0.210 HD
ENDBRANCH  62  63
BRANCH  61  65
ATOM     65  O   UNL     1       8.511  -1.797  21.790  0.00  0.00    -0.386 OA
ATOM     66  H   UNL     1       8.584  -1.103  22.477  0.00  0.00    +0.210 HD
ENDBRANCH  61  65
BRANCH  60  67
ATOM     67  O   UNL     1       6.030  -1.808  23.122  0.00  0.00    -0.384 OA
ATOM     68  H   UNL     1       5.965  -2.021  24.074  0.00  0.00    +0.210 HD
ENDBRANCH  60  67
ENDBRANCH  55  59
ENDBRANCH  54  55
ENDBRANCH  42  54
ENDBRANCH  41  44
ENDBRANCH   1  41
TORSDOF 22
ENDMDL
MODEL 3
REMARK VINA RESULT:      -7.3      1.957      9.324
REMARK  Name = 
REMARK  23 active torsions:
REMARK  status: ('A' for Active; 'I' for Inactive)
REMARK    1  A    between atoms: C_1  and  C_2
REMARK    2  A    between atoms: C_4  and  O_63
REMARK    3  A    between atoms: C_6  and  O_62
REMARK    4  A    between atoms: C_7  and  O_61
REMARK    5  A    between atoms: C_8  and  O_11
REMARK    6  A    between atoms: O_11  and  C_12
REMARK    7  A    between atoms: C_12  and  C_13
REMARK    8  A    between atoms: C_14  and  O_60
REMARK    9  A    between atoms: C_16  and  O_59
REMARK   10  A    between atoms: C_18  and  O_58
REMARK   11  A    between atoms: C_19  and  O_22
REMARK   12  A    between atoms: O_22  and  C_23
REMARK   13  A    between atoms: C_25  and  O_57
REMARK   14  A    between atoms: C_30  and  C_49
REMARK   15  A    between atoms: C_31  and  O_34
REMARK   16  A    between atoms: O_34  and  C_35
REMARK   17  A    between atoms: C_37  and  O_48
REMARK   18  A    between atoms: C_38  and  O_47
REMARK   19  A    between atoms: C_39  and  O_46
REMARK   20  A    between atoms: C_41  and  C_43
REMARK   21  A    between atoms: C_43  and  O_45
REMARK   22  A    between atoms: C_51  and  O_56
REMARK   23  A    between atoms: C_52  and  O_55
REMARK                            x       y       z     vdW  Elec       q    Type
REMARK                         _______ _______ _______ _____ _____    ______ ____
ROOT
ATOM      1  C   UNL     1       5.102  -3.943  27.486  0.00  0.00    +0.131 A 
ATOM      2  C   UNL     1       4.696  -2.590  27.426  0.00  0.00    +0.093 A 
ATOM      3  C   UNL     1       5.621  -1.587  27.066  0.00  0.00    +0.147 A 
ATOM      4  O   UNL     1       5.233  -0.262  27.010  0.00  0.00    -0.451 OA
ATOM      5  C   UNL     1       6.135   0.694  26.489  0.00  0.00    +0.181 A 
ATOM      6  C   UNL     1       7.448   0.424  26.214  0.00  0.00    +0.214 A 
ATOM      7  C   UNL     1       7.926  -0.893  26.719  0.00  0.00    +0.238 A 
ATOM      8  O   UNL     1       9.057  -1.049  27.154  0.00  0.00    -0.283 OA
ATOM      9  C   UNL     1       6.931  -1.956  26.806  0.00  0.00    +0.109 A 
ATOM     10  C   UNL     1       7.299  -3.299  26.735  0.00  0.00    +0.135 A 
ATOM     11  C   UNL     1       6.385  -4.294  27.062  0.00  0.00    +0.092 A 
ENDROOT
BRANCH   5  12
ATOM     12  C   UNL     1       5.542   2.056  26.326  0.00  0.00    +0.025 A 
ATOM     13  C   UNL     1       5.954   3.156  27.109  0.00  0.00    +0.015 A 
ATOM     14  C   UNL     1       5.407   4.436  26.919  0.00  0.00    +0.050 A 
ATOM     15  C   UNL     1       4.442   4.628  25.938  0.00  0.00    +0.158 A 
ATOM     16  C   UNL     1       4.041   3.569  25.139  0.00  0.00    +0.159 A 
ATOM     17  C   UNL     1       4.594   2.304  25.310  0.00  0.00    +0.060 A 
BRANCH  16  18
ATOM     18  O   UNL     1       3.094   3.814  24.181  0.00  0.00    -0.503 OA
ATOM     19  H   UNL     1       3.406   4.541  23.616  0.00  0.00    +0.292 HD
ENDBRANCH  16  18
BRANCH  15  20
ATOM     20  O   UNL     1       3.892   5.866  25.758  0.00  0.00    -0.503 OA
ATOM     21  H   UNL     1       4.587   6.380  25.295  0.00  0.00    +0.292 HD
ENDBRANCH  15  20
ENDBRANCH   5  12
BRANCH  10  22
ATOM     22  O   UNL     1       8.553  -3.640  26.316  0.00  0.00    -0.506 OA
ATOM     23  H   UNL     1       9.128  -2.859  26.290  0.00  0.00    +0.292 HD
ENDBRANCH  10  22
BRANCH   6  24
ATOM     24  O   UNL     1       8.371   1.336  25.675  0.00  0.00    -0.453 OA
BRANCH  24  25
ATOM     25  C   UNL     1       8.109   1.686  24.290  0.00  0.00    +0.340 C 
ATOM     26  O   UNL     1       8.428   0.648  23.362  0.00  0.00    -0.322 OA
ATOM     27  C   UNL     1       9.830   0.374  23.223  0.00  0.00    +0.261 C 
ATOM     28  C   UNL     1      10.568   1.592  22.672  0.00  0.00    +0.185 C 
ATOM     29  C   UNL     1      10.343   2.762  23.630  0.00  0.00    +0.180 C 
ATOM     30  C   UNL     1       8.840   2.988  23.870  0.00  0.00    +0.214 C 
BRANCH  30  31
ATOM     31  O   UNL     1       8.663   4.072  24.791  0.00  0.00    -0.383 OA
ATOM     32  H   UNL     1       8.216   4.799  24.322  0.00  0.00    +0.210 HD
ENDBRANCH  30  31
BRANCH  29  33
ATOM     33  O   UNL     1      10.930   3.942  23.050  0.00  0.00    -0.386 OA
ATOM     34  H   UNL     1      11.886   3.914  23.256  0.00  0.00    +0.210 HD
ENDBRANCH  29  33
BRANCH  28  35
ATOM     35  O   UNL     1      10.046   1.974  21.388  0.00  0.00    -0.386 OA
ATOM     36  H   UNL     1       9.299   2.575  21.581  0.00  0.00    +0.210 HD
ENDBRANCH  28  35
BRANCH  27  37
ATOM     37  C   UNL     1      10.032  -0.848  22.325  0.00  0.00    +0.337 C 
ATOM     38  O   UNL     1      10.568  -1.892  22.670  0.00  0.00    -0.248 OA
BRANCH  37  39
ATOM     39  O   UNL     1       9.443  -0.698  21.110  0.00  0.00    -0.479 OA
ATOM     40  H   UNL     1      10.098  -0.342  20.451  0.00  0.00    +0.295 HD
ENDBRANCH  37  39
ENDBRANCH  27  37
ENDBRANCH  24  25
ENDBRANCH   6  24
BRANCH   1  41
ATOM     41  O   UNL     1       4.192  -4.870  27.943  0.00  0.00    -0.461 OA
BRANCH  41  44
ATOM     42  C   UNL     1       2.190  -5.772  24.955  0.00  0.00    +0.179 C 
ATOM     43  O   UNL     1       2.837  -4.989  25.985  0.00  0.00    -0.331 OA
ATOM     44  C   UNL     1       3.607  -5.747  26.943  0.00  0.00    +0.339 C 
ATOM     45  C   UNL     1       2.683  -6.769  27.653  0.00  0.00    +0.214 C 
ATOM     46  C   UNL     1       2.043  -7.677  26.590  0.00  0.00    +0.180 C 
ATOM     47  C   UNL     1       1.261  -6.835  25.577  0.00  0.00    +0.177 C 
BRANCH  47  48
ATOM     48  O   UNL     1       0.659  -7.714  24.623  0.00  0.00    -0.386 OA
ATOM     49  H   UNL     1       1.164  -7.636  23.793  0.00  0.00    +0.210 HD
ENDBRANCH  47  48
BRANCH  46  50
ATOM     50  O   UNL     1       1.177  -8.654  27.176  0.00  0.00    -0.386 OA
ATOM     51  H   UNL     1       1.066  -8.381  28.110  0.00  0.00    +0.210 HD
ENDBRANCH  46  50
BRANCH  45  52
ATOM     52  O   UNL     1       1.652  -6.092  28.399  0.00  0.00    -0.383 OA
ATOM     53  H   UNL     1       1.020  -5.715  27.760  0.00  0.00    +0.210 HD
ENDBRANCH  45  52
BRANCH  42  54
ATOM     54  C   UNL     1       3.212  -6.315  23.930  0.00  0.00    +0.197 C 
BRANCH  54  55
ATOM     55  O   UNL     1       3.506  -5.354  22.912  0.00  0.00    -0.346 OA
BRANCH  55  59
ATOM     56  C   UNL     1       6.068  -1.910  23.405  0.00  0.00    +0.041 C 
ATOM     57  C   UNL     1       6.163  -2.926  22.270  0.00  0.00    +0.149 C 
ATOM     58  O   UNL     1       4.943  -3.679  22.163  0.00  0.00    -0.343 OA
ATOM     59  C   UNL     1       4.711  -4.623  23.210  0.00  0.00    +0.282 C 
ATOM     60  C   UNL     1       5.869  -5.639  23.290  0.00  0.00    +0.201 C 
ATOM     61  C   UNL     1       7.195  -4.894  23.483  0.00  0.00    +0.179 C 
ATOM     62  C   UNL     1       7.394  -3.843  22.378  0.00  0.00    +0.174 C 
BRANCH  62  63
ATOM     63  O   UNL     1       7.600  -4.493  21.110  0.00  0.00    -0.387 OA
ATOM     64  H   UNL     1       8.543  -4.759  21.077  0.00  0.00    +0.210 HD
ENDBRANCH  62  63
BRANCH  61  65
ATOM     65  O   UNL     1       8.284  -5.822  23.488  0.00  0.00    -0.386 OA
ATOM     66  H   UNL     1       8.645  -5.788  24.398  0.00  0.00    +0.210 HD
ENDBRANCH  61  65
BRANCH  60  67
ATOM     67  O   UNL     1       5.928  -6.392  22.055  0.00  0.00    -0.384 OA
ATOM     68  H   UNL     1       5.065  -6.235  21.623  0.00  0.00    +0.210 HD
ENDBRANCH  60  67
ENDBRANCH  55  59
ENDBRANCH  54  55
ENDBRANCH  42  54
ENDBRANCH  41  44
ENDBRANCH   1  41
TORSDOF 22
ENDMDL
MODEL 4
REMARK VINA RESULT:      -7.3      2.026      9.163
REMARK  Name = 
REMARK  23 active torsions:
REMARK  status: ('A' for Active; 'I' for Inactive)
REMARK    1  A    between atoms: C_1  and  C_2
REMARK    2  A    between atoms: C_4  and  O_63
REMARK    3  A    between atoms: C_6  and  O_62
REMARK    4  A    between atoms: C_7  and  O_61
REMARK    5  A    between atoms: C_8  and  O_11
REMARK    6  A    between atoms: O_11  and  C_12
REMARK    7  A    between atoms: C_12  and  C_13
REMARK    8  A    between atoms: C_14  and  O_60
REMARK    9  A    between atoms: C_16  and  O_59
REMARK   10  A    between atoms: C_18  and  O_58
REMARK   11  A    between atoms: C_19  and  O_22
REMARK   12  A    between atoms: O_22  and  C_23
REMARK   13  A    between atoms: C_25  and  O_57
REMARK   14  A    between atoms: C_30  and  C_49
REMARK   15  A    between atoms: C_31  and  O_34
REMARK   16  A    between atoms: O_34  and  C_35
REMARK   17  A    between atoms: C_37  and  O_48
REMARK   18  A    between atoms: C_38  and  O_47
REMARK   19  A    between atoms: C_39  and  O_46
REMARK   20  A    between atoms: C_41  and  C_43
REMARK   21  A    between atoms: C_43  and  O_45
REMARK   22  A    between atoms: C_51  and  O_56
REMARK   23  A    between atoms: C_52  and  O_55
REMARK                            x       y       z     vdW  Elec       q    Type
REMARK                         _______ _______ _______ _____ _____    ______ ____
ROOT
ATOM      1  C   UNL     1       4.599  -1.127  27.675  0.00  0.00    +0.131 A 
ATOM      2  C   UNL     1       3.886  -0.197  26.885  0.00  0.00    +0.093 A 
ATOM      3  C   UNL     1       4.523   0.969  26.413  0.00  0.00    +0.147 A 
ATOM      4  O   UNL     1       3.830   1.885  25.643  0.00  0.00    -0.451 OA
ATOM      5  C   UNL     1       4.538   2.957  25.052  0.00  0.00    +0.181 A 
ATOM      6  C   UNL     1       5.838   3.261  25.350  0.00  0.00    +0.214 A 
ATOM      7  C   UNL     1       6.392   2.522  26.519  0.00  0.00    +0.238 A 
ATOM      8  O   UNL     1       7.173   3.040  27.303  0.00  0.00    -0.283 OA
ATOM      9  C   UNL     1       5.843   1.194  26.768  0.00  0.00    +0.109 A 
ATOM     10  C   UNL     1       6.584   0.218  27.433  0.00  0.00    +0.135 A 
ATOM     11  C   UNL     1       5.969  -0.947  27.877  0.00  0.00    +0.092 A 
ENDROOT
BRANCH   5  12
ATOM     12  C   UNL     1       3.714   3.778  24.113  0.00  0.00    +0.025 A 
ATOM     13  C   UNL     1       3.081   4.974  24.515  0.00  0.00    +0.015 A 
ATOM     14  C   UNL     1       2.337   5.748  23.609  0.00  0.00    +0.050 A 
ATOM     15  C   UNL     1       2.222   5.332  22.288  0.00  0.00    +0.158 A 
ATOM     16  C   UNL     1       2.857   4.175  21.864  0.00  0.00    +0.159 A 
ATOM     17  C   UNL     1       3.611   3.416  22.753  0.00  0.00    +0.060 A 
BRANCH  16  18
ATOM     18  O   UNL     1       2.719   3.815  20.551  0.00  0.00    -0.503 OA
ATOM     19  H   UNL     1       2.589   4.621  20.021  0.00  0.00    +0.292 HD
ENDBRANCH  16  18
BRANCH  15  20
ATOM     20  O   UNL     1       1.486   6.071  21.404  0.00  0.00    -0.503 OA
ATOM     21  H   UNL     1       1.159   6.831  21.930  0.00  0.00    +0.292 HD
ENDBRANCH  15  20
ENDBRANCH   5  12
BRANCH  10  22
ATOM     22  O   UNL     1       7.924   0.394  27.626  0.00  0.00    -0.506 OA
ATOM     23  H   UNL     1       8.430  -0.279  27.145  0.00  0.00    +0.292 HD
ENDBRANCH  10  22
BRANCH   6  24
ATOM     24  O   UNL     1       6.584   4.300  24.770  0.00  0.00    -0.453 OA
BRANCH  24  25
ATOM     25  C   UNL     1       7.176   3.953  23.490  0.00  0.00    +0.340 C 
ATOM     26  O   UNL     1       7.737   2.639  23.451  0.00  0.00    -0.322 OA
ATOM     27  C   UNL     1       8.912   2.461  24.254  0.00  0.00    +0.261 C 
ATOM     28  C   UNL     1      10.048   3.353  23.759  0.00  0.00    +0.185 C 
ATOM     29  C   UNL     1       9.575   4.807  23.816  0.00  0.00    +0.180 C 
ATOM     30  C   UNL     1       8.252   4.979  23.049  0.00  0.00    +0.214 C 
BRANCH  30  31
ATOM     31  O   UNL     1       7.822   6.343  23.142  0.00  0.00    -0.383 OA
ATOM     32  H   UNL     1       7.345   6.568  22.323  0.00  0.00    +0.210 HD
ENDBRANCH  30  31
BRANCH  29  33
ATOM     33  O   UNL     1      10.594   5.638  23.232  0.00  0.00    -0.386 OA
ATOM     34  H   UNL     1      10.166   6.481  22.984  0.00  0.00    +0.210 HD
ENDBRANCH  29  33
BRANCH  28  35
ATOM     35  O   UNL     1      10.378   3.057  22.391  0.00  0.00    -0.386 OA
ATOM     36  H   UNL     1      11.018   3.747  22.124  0.00  0.00    +0.210 HD
ENDBRANCH  28  35
BRANCH  27  37
ATOM     37  C   UNL     1       9.325   0.988  24.249  0.00  0.00    +0.337 C 
ATOM     38  O   UNL     1       9.268   0.245  23.278  0.00  0.00    -0.248 OA
BRANCH  37  39
ATOM     39  O   UNL     1       9.882   0.604  25.427  0.00  0.00    -0.479 OA
ATOM     40  H   UNL     1      10.352   1.372  25.852  0.00  0.00    +0.295 HD
ENDBRANCH  37  39
ENDBRANCH  27  37
ENDBRANCH  24  25
ENDBRANCH   6  24
BRANCH   1  41
ATOM     41  O   UNL     1       3.906  -2.196  28.198  0.00  0.00    -0.461 OA
BRANCH  41  44
ATOM     42  C   UNL     1       5.340  -5.425  27.074  0.00  0.00    +0.179 C 
ATOM     43  O   UNL     1       4.653  -4.152  27.059  0.00  0.00    -0.331 OA
ATOM     44  C   UNL     1       4.640  -3.444  28.317  0.00  0.00    +0.339 C 
ATOM     45  C   UNL     1       3.959  -4.324  29.396  0.00  0.00    +0.214 C 
ATOM     46  C   UNL     1       4.720  -5.656  29.499  0.00  0.00    +0.180 C 
ATOM     47  C   UNL     1       4.736  -6.362  28.139  0.00  0.00    +0.177 C 
BRANCH  47  48
ATOM     48  O   UNL     1       5.427  -7.606  28.281  0.00  0.00    -0.386 OA
ATOM     49  H   UNL     1       5.980  -7.727  27.487  0.00  0.00    +0.210 HD
ENDBRANCH  47  48
BRANCH  46  50
ATOM     50  O   UNL     1       4.147  -6.521  30.485  0.00  0.00    -0.386 OA
ATOM     51  H   UNL     1       3.814  -7.298  29.992  0.00  0.00    +0.210 HD
ENDBRANCH  46  50
BRANCH  45  52
ATOM     52  O   UNL     1       2.582  -4.576  29.053  0.00  0.00    -0.383 OA
ATOM     53  H   UNL     1       2.073  -3.767  29.245  0.00  0.00    +0.210 HD
ENDBRANCH  45  52
BRANCH  42  54
ATOM     54  C   UNL     1       6.873  -5.240  27.157  0.00  0.00    +0.197 C 
BRANCH  54  55
ATOM     55  O   UNL     1       7.297  -4.023  26.534  0.00  0.00    -0.346 OA
BRANCH  55  59
ATOM     56  C   UNL     1       6.403  -5.462  22.560  0.00  0.00    +0.041 C 
ATOM     57  C   UNL     1       7.596  -4.587  22.935  0.00  0.00    +0.149 C 
ATOM     58  O   UNL     1       7.834  -4.638  24.352  0.00  0.00    -0.343 OA
ATOM     59  C   UNL     1       6.871  -3.959  25.160  0.00  0.00    +0.282 C 
ATOM     60  C   UNL     1       6.786  -2.471  24.764  0.00  0.00    +0.201 C 
ATOM     61  C   UNL     1       6.456  -2.353  23.271  0.00  0.00    +0.179 C 
ATOM     62  C   UNL     1       7.471  -3.140  22.427  0.00  0.00    +0.174 C 
BRANCH  62  63
ATOM     63  O   UNL     1       8.765  -2.512  22.496  0.00  0.00    -0.387 OA
ATOM     64  H   UNL     1       8.608  -1.548  22.578  0.00  0.00    +0.210 HD
ENDBRANCH  62  63
BRANCH  61  65
ATOM     65  O   UNL     1       6.444  -0.978  22.878  0.00  0.00    -0.386 OA
ATOM     66  H   UNL     1       7.226  -0.580  23.312  0.00  0.00    +0.210 HD
ENDBRANCH  61  65
BRANCH  60  67
ATOM     67  O   UNL     1       8.063  -1.837  25.015  0.00  0.00    -0.384 OA
ATOM     68  H   UNL     1       8.086  -1.070  24.409  0.00  0.00    +0.210 HD
ENDBRANCH  60  67
ENDBRANCH  55  59
ENDBRANCH  54  55
ENDBRANCH  42  54
ENDBRANCH  41  44
ENDBRANCH   1  41
TORSDOF 22
ENDMDL
MODEL 5
REMARK VINA RESULT:      -7.2      1.961      9.036
REMARK  Name = 
REMARK  23 active torsions:
REMARK  status: ('A' for Active; 'I' for Inactive)
REMARK    1  A    between atoms: C_1  and  C_2
REMARK    2  A    between atoms: C_4  and  O_63
REMARK    3  A    between atoms: C_6  and  O_62
REMARK    4  A    between atoms: C_7  and  O_61
REMARK    5  A    between atoms: C_8  and  O_11
REMARK    6  A    between atoms: O_11  and  C_12
REMARK    7  A    between atoms: C_12  and  C_13
REMARK    8  A    between atoms: C_14  and  O_60
REMARK    9  A    between atoms: C_16  and  O_59
REMARK   10  A    between atoms: C_18  and  O_58
REMARK   11  A    between atoms: C_19  and  O_22
REMARK   12  A    between atoms: O_22  and  C_23
REMARK   13  A    between atoms: C_25  and  O_57
REMARK   14  A    between atoms: C_30  and  C_49
REMARK   15  A    between atoms: C_31  and  O_34
REMARK   16  A    between atoms: O_34  and  C_35
REMARK   17  A    between atoms: C_37  and  O_48
REMARK   18  A    between atoms: C_38  and  O_47
REMARK   19  A    between atoms: C_39  and  O_46
REMARK   20  A    between atoms: C_41  and  C_43
REMARK   21  A    between atoms: C_43  and  O_45
REMARK   22  A    between atoms: C_51  and  O_56
REMARK   23  A    between atoms: C_52  and  O_55
REMARK                            x       y       z     vdW  Elec       q    Type
REMARK                         _______ _______ _______ _____ _____    ______ ____
ROOT
ATOM      1  C   UNL     1       3.615  -1.906  29.057  0.00  0.00    +0.131 A 
ATOM      2  C   UNL     1       4.496  -2.086  27.967  0.00  0.00    +0.093 A 
ATOM      3  C   UNL     1       5.257  -1.002  27.482  0.00  0.00    +0.147 A 
ATOM      4  O   UNL     1       6.118  -1.169  26.413  0.00  0.00    -0.451 OA
ATOM      5  C   UNL     1       6.983  -0.109  26.058  0.00  0.00    +0.181 A 
ATOM      6  C   UNL     1       6.889   1.152  26.582  0.00  0.00    +0.214 A 
ATOM      7  C   UNL     1       5.660   1.396  27.387  0.00  0.00    +0.238 A 
ATOM      8  O   UNL     1       5.082   2.472  27.379  0.00  0.00    -0.283 OA
ATOM      9  C   UNL     1       5.094   0.240  28.075  0.00  0.00    +0.109 A 
ATOM     10  C   UNL     1       4.327   0.390  29.230  0.00  0.00    +0.135 A 
ATOM     11  C   UNL     1       3.598  -0.683  29.729  0.00  0.00    +0.092 A 
ENDROOT
BRANCH   5  12
ATOM     12  C   UNL     1       7.976  -0.470  25.001  0.00  0.00    +0.025 A 
ATOM     13  C   UNL     1       9.360  -0.237  25.157  0.00  0.00    +0.015 A 
ATOM     14  C   UNL     1      10.281  -0.612  24.165  0.00  0.00    +0.050 A 
ATOM     15  C   UNL     1       9.825  -1.230  23.007  0.00  0.00    +0.158 A 
ATOM     16  C   UNL     1       8.475  -1.493  22.844  0.00  0.00    +0.159 A 
ATOM     17  C   UNL     1       7.560  -1.140  23.831  0.00  0.00    +0.060 A 
BRANCH  16  18
ATOM     18  O   UNL     1       8.079  -2.111  21.688  0.00  0.00    -0.503 OA
ATOM     19  H   UNL     1       7.744  -2.997  21.910  0.00  0.00    +0.292 HD
ENDBRANCH  16  18
BRANCH  15  20
ATOM     20  O   UNL     1      10.714  -1.583  22.030  0.00  0.00    -0.503 OA
ATOM     21  H   UNL     1      10.343  -1.196  21.208  0.00  0.00    +0.292 HD
ENDBRANCH  15  20
ENDBRANCH   5  12
BRANCH  10  22
ATOM     22  O   UNL     1       4.315   1.586  29.888  0.00  0.00    -0.506 OA
ATOM     23  H   UNL     1       3.514   1.671  30.427  0.00  0.00    +0.292 HD
ENDBRANCH  10  22
BRANCH   6  24
ATOM     24  O   UNL     1       7.740   2.226  26.274  0.00  0.00    -0.453 OA
BRANCH  24  25
ATOM     25  C   UNL     1       7.180   3.161  25.315  0.00  0.00    +0.340 C 
ATOM     26  O   UNL     1       7.330   2.752  23.955  0.00  0.00    -0.322 OA
ATOM     27  C   UNL     1       8.678   2.768  23.465  0.00  0.00    +0.261 C 
ATOM     28  C   UNL     1       9.244   4.187  23.480  0.00  0.00    +0.185 C 
ATOM     29  C   UNL     1       9.188   4.709  24.916  0.00  0.00    +0.180 C 
ATOM     30  C   UNL     1       7.763   4.589  25.484  0.00  0.00    +0.214 C 
BRANCH  30  31
ATOM     31  O   UNL     1       7.749   5.061  26.837  0.00  0.00    -0.383 OA
ATOM     32  H   UNL     1       8.351   5.824  26.899  0.00  0.00    +0.210 HD
ENDBRANCH  30  31
BRANCH  29  33
ATOM     33  O   UNL     1       9.601   6.088  24.912  0.00  0.00    -0.386 OA
ATOM     34  H   UNL     1       9.139   6.521  24.167  0.00  0.00    +0.210 HD
ENDBRANCH  29  33
BRANCH  28  35
ATOM     35  O   UNL     1       8.450   5.067  22.666  0.00  0.00    -0.386 OA
ATOM     36  H   UNL     1       9.067   5.427  21.997  0.00  0.00    +0.210 HD
ENDBRANCH  28  35
BRANCH  27  37
ATOM     37  C   UNL     1       8.726   2.169  22.059  0.00  0.00    +0.337 C 
ATOM     38  O   UNL     1       7.751   1.814  21.412  0.00  0.00    -0.248 OA
BRANCH  37  39
ATOM     39  O   UNL     1       9.982   2.172  21.539  0.00  0.00    -0.479 OA
ATOM     40  H   UNL     1      10.648   1.956  22.246  0.00  0.00    +0.295 HD
ENDBRANCH  37  39
ENDBRANCH  27  37
ENDBRANCH  24  25
ENDBRANCH   6  24
BRANCH   1  41
ATOM     41  O   UNL     1       2.819  -2.967  29.426  0.00  0.00    -0.461 OA
BRANCH  41  44
ATOM     42  C   UNL     1       1.441  -5.519  27.116  0.00  0.00    +0.179 C 
ATOM     43  O   UNL     1       1.534  -4.369  27.989  0.00  0.00    -0.331 OA
ATOM     44  C   UNL     1       2.842  -4.126  28.550  0.00  0.00    +0.339 C 
ATOM     45  C   UNL     1       3.289  -5.363  29.368  0.00  0.00    +0.214 C 
ATOM     46  C   UNL     1       3.284  -6.594  28.445  0.00  0.00    +0.180 C 
ATOM     47  C   UNL     1       1.889  -6.800  27.848  0.00  0.00    +0.177 C 
BRANCH  47  48
ATOM     48  O   UNL     1       1.917  -7.966  27.020  0.00  0.00    -0.386 OA
ATOM     49  H   UNL     1       1.873  -7.668  26.093  0.00  0.00    +0.210 HD
ENDBRANCH  47  48
BRANCH  46  50
ATOM     50  O   UNL     1       3.695  -7.778  29.136  0.00  0.00    -0.386 OA
ATOM     51  H   UNL     1       4.645  -7.650  29.335  0.00  0.00    +0.210 HD
ENDBRANCH  46  50
BRANCH  45  52
ATOM     52  O   UNL     1       2.401  -5.587  30.481  0.00  0.00    -0.383 OA
ATOM     53  H   UNL     1       1.974  -4.738  30.697  0.00  0.00    +0.210 HD
ENDBRANCH  45  52
BRANCH  42  54
ATOM     54  C   UNL     1       2.139  -5.260  25.761  0.00  0.00    +0.197 C 
BRANCH  54  55
ATOM     55  O   UNL     1       2.857  -6.411  25.304  0.00  0.00    -0.346 OA
BRANCH  55  59
ATOM     56  C   UNL     1       6.747  -4.547  25.529  0.00  0.00    +0.041 C 
ATOM     57  C   UNL     1       5.629  -4.143  24.573  0.00  0.00    +0.149 C 
ATOM     58  O   UNL     1       4.366  -4.657  25.027  0.00  0.00    -0.343 OA
ATOM     59  C   UNL     1       4.195  -6.069  24.895  0.00  0.00    +0.282 C 
ATOM     60  C   UNL     1       4.359  -6.498  23.422  0.00  0.00    +0.201 C 
ATOM     61  C   UNL     1       5.728  -6.043  22.903  0.00  0.00    +0.179 C 
ATOM     62  C   UNL     1       5.912  -4.530  23.111  0.00  0.00    +0.174 C 
BRANCH  62  63
ATOM     63  O   UNL     1       5.011  -3.801  22.256  0.00  0.00    -0.387 OA
ATOM     64  H   UNL     1       4.374  -4.452  21.894  0.00  0.00    +0.210 HD
ENDBRANCH  62  63
BRANCH  61  65
ATOM     65  O   UNL     1       5.862  -6.374  21.518  0.00  0.00    -0.386 OA
ATOM     66  H   UNL     1       6.168  -5.550  21.086  0.00  0.00    +0.210 HD
ENDBRANCH  61  65
BRANCH  60  67
ATOM     67  O   UNL     1       3.323  -5.876  22.626  0.00  0.00    -0.384 OA
ATOM     68  H   UNL     1       2.515  -6.393  22.816  0.00  0.00    +0.210 HD
ENDBRANCH  60  67
ENDBRANCH  55  59
ENDBRANCH  54  55
ENDBRANCH  42  54
ENDBRANCH  41  44
ENDBRANCH   1  41
TORSDOF 22
ENDMDL
MODEL 6
REMARK VINA RESULT:      -7.2      2.000      9.277
REMARK  Name = 
REMARK  23 active torsions:
REMARK  status: ('A' for Active; 'I' for Inactive)
REMARK    1  A    between atoms: C_1  and  C_2
REMARK    2  A    between atoms: C_4  and  O_63
REMARK    3  A    between atoms: C_6  and  O_62
REMARK    4  A    between atoms: C_7  and  O_61
REMARK    5  A    between atoms: C_8  and  O_11
REMARK    6  A    between atoms: O_11  and  C_12
REMARK    7  A    between atoms: C_12  and  C_13
REMARK    8  A    between atoms: C_14  and  O_60
REMARK    9  A    between atoms: C_16  and  O_59
REMARK   10  A    between atoms: C_18  and  O_58
REMARK   11  A    between atoms: C_19  and  O_22
REMARK   12  A    between atoms: O_22  and  C_23
REMARK   13  A    between atoms: C_25  and  O_57
REMARK   14  A    between atoms: C_30  and  C_49
REMARK   15  A    between atoms: C_31  and  O_34
REMARK   16  A    between atoms: O_34  and  C_35
REMARK   17  A    between atoms: C_37  and  O_48
REMARK   18  A    between atoms: C_38  and  O_47
REMARK   19  A    between atoms: C_39  and  O_46
REMARK   20  A    between atoms: C_41  and  C_43
REMARK   21  A    between atoms: C_43  and  O_45
REMARK   22  A    between atoms: C_51  and  O_56
REMARK   23  A    between atoms: C_52  and  O_55
REMARK                            x       y       z     vdW  Elec       q    Type
REMARK                         _______ _______ _______ _____ _____    ______ ____
ROOT
ATOM      1  C   UNL     1       3.908  -2.752  27.398  0.00  0.00    +0.131 A 
ATOM      2  C   UNL     1       3.465  -1.483  26.962  0.00  0.00    +0.093 A 
ATOM      3  C   UNL     1       4.398  -0.511  26.543  0.00  0.00    +0.147 A 
ATOM      4  O   UNL     1       3.972   0.734  26.119  0.00  0.00    -0.451 OA
ATOM      5  C   UNL     1       4.915   1.624  25.555  0.00  0.00    +0.181 A 
ATOM      6  C   UNL     1       6.266   1.409  25.577  0.00  0.00    +0.214 A 
ATOM      7  C   UNL     1       6.697   0.278  26.446  0.00  0.00    +0.238 A 
ATOM      8  O   UNL     1       7.733   0.314  27.092  0.00  0.00    -0.283 OA
ATOM      9  C   UNL     1       5.748  -0.819  26.603  0.00  0.00    +0.109 A 
ATOM     10  C   UNL     1       6.178  -2.110  26.907  0.00  0.00    +0.135 A 
ATOM     11  C   UNL     1       5.261  -3.080  27.292  0.00  0.00    +0.092 A 
ENDROOT
BRANCH   5  12
ATOM     12  C   UNL     1       4.306   2.864  24.984  0.00  0.00    +0.025 A 
ATOM     13  C   UNL     1       3.965   3.973  25.787  0.00  0.00    +0.015 A 
ATOM     14  C   UNL     1       3.423   5.143  25.227  0.00  0.00    +0.050 A 
ATOM     15  C   UNL     1       3.220   5.213  23.854  0.00  0.00    +0.158 A 
ATOM     16  C   UNL     1       3.571   4.146  23.043  0.00  0.00    +0.159 A 
ATOM     17  C   UNL     1       4.127   2.993  23.590  0.00  0.00    +0.060 A 
BRANCH  16  18
ATOM     18  O   UNL     1       3.359   4.269  21.696  0.00  0.00    -0.503 OA
ATOM     19  H   UNL     1       3.119   3.396  21.340  0.00  0.00    +0.292 HD
ENDBRANCH  16  18
BRANCH  15  20
ATOM     20  O   UNL     1       2.677   6.340  23.304  0.00  0.00    -0.503 OA
ATOM     21  H   UNL     1       1.750   6.350  23.625  0.00  0.00    +0.292 HD
ENDBRANCH  15  20
ENDBRANCH   5  12
BRANCH  10  22
ATOM     22  O   UNL     1       7.501  -2.429  26.798  0.00  0.00    -0.506 OA
ATOM     23  H   UNL     1       7.987  -2.143  27.587  0.00  0.00    +0.292 HD
ENDBRANCH  10  22
BRANCH   6  24
ATOM     24  O   UNL     1       7.234   2.254  25.009  0.00  0.00    -0.453 OA
BRANCH  24  25
ATOM     25  C   UNL     1       7.446   2.031  23.590  0.00  0.00    +0.340 C 
ATOM     26  O   UNL     1       7.836   0.695  23.267  0.00  0.00    -0.322 OA
ATOM     27  C   UNL     1       9.148   0.325  23.712  0.00  0.00    +0.261 C 
ATOM     28  C   UNL     1      10.213   1.186  23.034  0.00  0.00    +0.185 C 
ATOM     29  C   UNL     1       9.926   2.651  23.366  0.00  0.00    +0.180 C 
ATOM     30  C   UNL     1       8.480   3.021  22.993  0.00  0.00    +0.214 C 
BRANCH  30  31
ATOM     31  O   UNL     1       8.235   4.390  23.339  0.00  0.00    -0.383 OA
ATOM     32  H   UNL     1       7.736   4.803  22.612  0.00  0.00    +0.210 HD
ENDBRANCH  30  31
BRANCH  29  33
ATOM     33  O   UNL     1      10.850   3.471  22.627  0.00  0.00    -0.386 OA
ATOM     34  H   UNL     1      10.412   4.333  22.483  0.00  0.00    +0.210 HD
ENDBRANCH  29  33
BRANCH  28  35
ATOM     35  O   UNL     1      10.157   1.045  21.605  0.00  0.00    -0.386 OA
ATOM     36  H   UNL     1       9.396   0.455  21.433  0.00  0.00    +0.210 HD
ENDBRANCH  28  35
BRANCH  27  37
ATOM     37  C   UNL     1       9.387  -1.161  23.444  0.00  0.00    +0.337 C 
ATOM     38  O   UNL     1       9.607  -1.651  22.345  0.00  0.00    -0.248 OA
BRANCH  37  39
ATOM     39  O   UNL     1       9.445  -1.889  24.590  0.00  0.00    -0.479 OA
ATOM     40  H   UNL     1       8.540  -1.962  24.998  0.00  0.00    +0.295 HD
ENDBRANCH  37  39
ENDBRANCH  27  37
ENDBRANCH  24  25
ENDBRANCH   6  24
BRANCH   1  41
ATOM     41  O   UNL     1       2.969  -3.629  27.894  0.00  0.00    -0.461 OA
BRANCH  41  44
ATOM     42  C   UNL     1       2.769  -6.530  25.594  0.00  0.00    +0.179 C 
ATOM     43  O   UNL     1       2.700  -5.177  26.102  0.00  0.00    -0.331 OA
ATOM     44  C   UNL     1       3.098  -5.015  27.480  0.00  0.00    +0.339 C 
ATOM     45  C   UNL     1       2.195  -5.893  28.383  0.00  0.00    +0.214 C 
ATOM     46  C   UNL     1       2.312  -7.357  27.924  0.00  0.00    +0.180 C 
ATOM     47  C   UNL     1       1.910  -7.481  26.451  0.00  0.00    +0.177 C 
BRANCH  47  48
ATOM     48  O   UNL     1       2.005  -8.856  26.069  0.00  0.00    -0.386 OA
ATOM     49  H   UNL     1       2.180  -8.884  25.111  0.00  0.00    +0.210 HD
ENDBRANCH  47  48
BRANCH  46  50
ATOM     50  O   UNL     1       1.506  -8.230  28.721  0.00  0.00    -0.386 OA
ATOM     51  H   UNL     1       1.651  -9.127  28.357  0.00  0.00    +0.210 HD
ENDBRANCH  46  50
BRANCH  45  52
ATOM     52  O   UNL     1       0.822  -5.466  28.300  0.00  0.00    -0.383 OA
ATOM     53  H   UNL     1       0.816  -4.497  28.195  0.00  0.00    +0.210 HD
ENDBRANCH  45  52
BRANCH  42  54
ATOM     54  C   UNL     1       4.232  -6.981  25.381  0.00  0.00    +0.197 C 
BRANCH  54  55
ATOM     55  O   UNL     1       4.526  -7.200  23.998  0.00  0.00    -0.346 OA
BRANCH  55  59
ATOM     56  C   UNL     1       8.325  -5.145  24.105  0.00  0.00    +0.041 C 
ATOM     57  C   UNL     1       6.960  -4.488  24.290  0.00  0.00    +0.149 C 
ATOM     58  O   UNL     1       5.965  -5.474  24.614  0.00  0.00    -0.343 OA
ATOM     59  C   UNL     1       5.587  -6.339  23.542  0.00  0.00    +0.282 C 
ATOM     60  C   UNL     1       5.049  -5.521  22.350  0.00  0.00    +0.201 C 
ATOM     61  C   UNL     1       6.104  -4.500  21.908  0.00  0.00    +0.179 C 
ATOM     62  C   UNL     1       6.537  -3.620  23.092  0.00  0.00    +0.174 C 
BRANCH  62  63
ATOM     63  O   UNL     1       5.450  -2.768  23.498  0.00  0.00    -0.387 OA
ATOM     64  H   UNL     1       4.622  -3.208  23.212  0.00  0.00    +0.210 HD
ENDBRANCH  62  63
BRANCH  61  65
ATOM     65  O   UNL     1       5.588  -3.689  20.849  0.00  0.00    -0.386 OA
ATOM     66  H   UNL     1       4.733  -3.347  21.182  0.00  0.00    +0.210 HD
ENDBRANCH  61  65
BRANCH  60  67
ATOM     67  O   UNL     1       3.853  -4.816  22.758  0.00  0.00    -0.384 OA
ATOM     68  H   UNL     1       3.493  -4.432  21.933  0.00  0.00    +0.210 HD
ENDBRANCH  60  67
ENDBRANCH  55  59
ENDBRANCH  54  55
ENDBRANCH  42  54
ENDBRANCH  41  44
ENDBRANCH   1  41
TORSDOF 22
ENDMDL
MODEL 7
REMARK VINA RESULT:      -7.0      1.669      9.003
REMARK  Name = 
REMARK  23 active torsions:
REMARK  status: ('A' for Active; 'I' for Inactive)
REMARK    1  A    between atoms: C_1  and  C_2
REMARK    2  A    between atoms: C_4  and  O_63
REMARK    3  A    between atoms: C_6  and  O_62
REMARK    4  A    between atoms: C_7  and  O_61
REMARK    5  A    between atoms: C_8  and  O_11
REMARK    6  A    between atoms: O_11  and  C_12
REMARK    7  A    between atoms: C_12  and  C_13
REMARK    8  A    between atoms: C_14  and  O_60
REMARK    9  A    between atoms: C_16  and  O_59
REMARK   10  A    between atoms: C_18  and  O_58
REMARK   11  A    between atoms: C_19  and  O_22
REMARK   12  A    between atoms: O_22  and  C_23
REMARK   13  A    between atoms: C_25  and  O_57
REMARK   14  A    between atoms: C_30  and  C_49
REMARK   15  A    between atoms: C_31  and  O_34
REMARK   16  A    between atoms: O_34  and  C_35
REMARK   17  A    between atoms: C_37  and  O_48
REMARK   18  A    between atoms: C_38  and  O_47
REMARK   19  A    between atoms: C_39  and  O_46
REMARK   20  A    between atoms: C_41  and  C_43
REMARK   21  A    between atoms: C_43  and  O_45
REMARK   22  A    between atoms: C_51  and  O_56
REMARK   23  A    between atoms: C_52  and  O_55
REMARK                            x       y       z     vdW  Elec       q    Type
REMARK                         _______ _______ _______ _____ _____    ______ ____
ROOT
ATOM      1  C   UNL     1       2.719  -2.039  27.163  0.00  0.00    +0.131 A 
ATOM      2  C   UNL     1       3.820  -2.193  26.290  0.00  0.00    +0.093 A 
ATOM      3  C   UNL     1       4.688  -1.109  26.044  0.00  0.00    +0.147 A 
ATOM      4  O   UNL     1       5.764  -1.251  25.188  0.00  0.00    -0.451 OA
ATOM      5  C   UNL     1       6.704  -0.200  25.090  0.00  0.00    +0.181 A 
ATOM      6  C   UNL     1       6.516   1.037  25.643  0.00  0.00    +0.214 A 
ATOM      7  C   UNL     1       5.142   1.278  26.165  0.00  0.00    +0.238 A 
ATOM      8  O   UNL     1       4.598   2.369  26.084  0.00  0.00    -0.283 OA
ATOM      9  C   UNL     1       4.416   0.108  26.649  0.00  0.00    +0.109 A 
ATOM     10  C   UNL     1       3.412   0.225  27.609  0.00  0.00    +0.135 A 
ATOM     11  C   UNL     1       2.572  -0.849  27.877  0.00  0.00    +0.092 A 
ENDROOT
BRANCH   5  12
ATOM     12  C   UNL     1       7.904  -0.539  24.265  0.00  0.00    +0.025 A 
ATOM     13  C   UNL     1       9.029  -1.197  24.807  0.00  0.00    +0.015 A 
ATOM     14  C   UNL     1      10.134  -1.535  24.008  0.00  0.00    +0.050 A 
ATOM     15  C   UNL     1      10.120  -1.221  22.654  0.00  0.00    +0.158 A 
ATOM     16  C   UNL     1       9.016  -0.599  22.094  0.00  0.00    +0.159 A 
ATOM     17  C   UNL     1       7.911  -0.279  22.878  0.00  0.00    +0.060 A 
BRANCH  16  18
ATOM     18  O   UNL     1       9.050  -0.319  20.755  0.00  0.00    -0.503 OA
ATOM     19  H   UNL     1       9.564   0.496  20.622  0.00  0.00    +0.292 HD
ENDBRANCH  16  18
BRANCH  15  20
ATOM     20  O   UNL     1      11.199  -1.532  21.873  0.00  0.00    -0.503 OA
ATOM     21  H   UNL     1      10.941  -2.360  21.416  0.00  0.00    +0.292 HD
ENDBRANCH  15  20
ENDBRANCH   5  12
BRANCH  10  22
ATOM     22  O   UNL     1       3.273   1.389  28.308  0.00  0.00    -0.506 OA
ATOM     23  H   UNL     1       2.591   1.298  28.991  0.00  0.00    +0.292 HD
ENDBRANCH  10  22
BRANCH   6  24
ATOM     24  O   UNL     1       7.432   2.100  25.590  0.00  0.00    -0.453 OA
BRANCH  24  25
ATOM     25  C   UNL     1       7.259   2.966  24.437  0.00  0.00    +0.340 C 
ATOM     26  O   UNL     1       8.339   2.910  23.505  0.00  0.00    -0.322 OA
ATOM     27  C   UNL     1       9.572   3.472  23.975  0.00  0.00    +0.261 C 
ATOM     28  C   UNL     1       9.415   4.965  24.256  0.00  0.00    +0.185 C 
ATOM     29  C   UNL     1       8.311   5.142  25.299  0.00  0.00    +0.180 C 
ATOM     30  C   UNL     1       7.018   4.442  24.848  0.00  0.00    +0.214 C 
BRANCH  30  31
ATOM     31  O   UNL     1       6.012   4.604  25.857  0.00  0.00    -0.383 OA
ATOM     32  H   UNL     1       5.806   3.726  26.224  0.00  0.00    +0.210 HD
ENDBRANCH  30  31
BRANCH  29  33
ATOM     33  O   UNL     1       8.074   6.551  25.472  0.00  0.00    -0.386 OA
ATOM     34  H   UNL     1       8.682   7.019  24.866  0.00  0.00    +0.210 HD
ENDBRANCH  29  33
BRANCH  28  35
ATOM     35  O   UNL     1       9.012   5.673  23.072  0.00  0.00    -0.386 OA
ATOM     36  H   UNL     1       9.675   5.440  22.392  0.00  0.00    +0.210 HD
ENDBRANCH  28  35
BRANCH  27  37
ATOM     37  C   UNL     1      10.682   3.216  22.955  0.00  0.00    +0.337 C 
ATOM     38  O   UNL     1      11.844   3.579  23.074  0.00  0.00    -0.248 OA
BRANCH  37  39
ATOM     39  O   UNL     1      10.268   2.427  21.929  0.00  0.00    -0.479 OA
ATOM     40  H   UNL     1       9.297   2.229  22.017  0.00  0.00    +0.295 HD
ENDBRANCH  37  39
ENDBRANCH  27  37
ENDBRANCH  24  25
ENDBRANCH   6  24
BRANCH   1  41
ATOM     41  O   UNL     1       1.843  -3.094  27.290  0.00  0.00    -0.461 OA
BRANCH  41  44
ATOM     42  C   UNL     1       1.790  -6.119  25.147  0.00  0.00    +0.179 C 
ATOM     43  O   UNL     1       1.438  -4.836  25.713  0.00  0.00    -0.331 OA
ATOM     44  C   UNL     1       2.299  -4.376  26.778  0.00  0.00    +0.339 C 
ATOM     45  C   UNL     1       2.286  -5.409  27.933  0.00  0.00    +0.214 C 
ATOM     46  C   UNL     1       2.739  -6.771  27.382  0.00  0.00    +0.180 C 
ATOM     47  C   UNL     1       1.821  -7.210  26.237  0.00  0.00    +0.177 C 
BRANCH  47  48
ATOM     48  O   UNL     1       2.257  -8.489  25.770  0.00  0.00    -0.386 OA
ATOM     49  H   UNL     1       1.633  -9.155  26.113  0.00  0.00    +0.210 HD
ENDBRANCH  47  48
BRANCH  46  50
ATOM     50  O   UNL     1       2.758  -7.777  28.399  0.00  0.00    -0.386 OA
ATOM     51  H   UNL     1       1.850  -8.143  28.424  0.00  0.00    +0.210 HD
ENDBRANCH  46  50
BRANCH  45  52
ATOM     52  O   UNL     1       0.964  -5.528  28.496  0.00  0.00    -0.383 OA
ATOM     53  H   UNL     1       0.340  -5.681  27.763  0.00  0.00    +0.210 HD
ENDBRANCH  45  52
BRANCH  42  54
ATOM     54  C   UNL     1       3.066  -6.025  24.278  0.00  0.00    +0.197 C 
BRANCH  54  55
ATOM     55  O   UNL     1       4.237  -6.398  25.011  0.00  0.00    -0.346 OA
BRANCH  55  59
ATOM     56  C   UNL     1       7.112  -3.958  22.901  0.00  0.00    +0.041 C 
ATOM     57  C   UNL     1       7.446  -5.178  23.754  0.00  0.00    +0.149 C 
ATOM     58  O   UNL     1       6.275  -5.988  23.959  0.00  0.00    -0.343 OA
ATOM     59  C   UNL     1       5.295  -5.436  24.839  0.00  0.00    +0.282 C 
ATOM     60  C   UNL     1       5.908  -5.160  26.227  0.00  0.00    +0.201 C 
ATOM     61  C   UNL     1       7.121  -4.234  26.079  0.00  0.00    +0.179 C 
ATOM     62  C   UNL     1       8.135  -4.821  25.083  0.00  0.00    +0.174 C 
BRANCH  62  63
ATOM     63  O   UNL     1       8.733  -6.011  25.629  0.00  0.00    -0.387 OA
ATOM     64  H   UNL     1       8.755  -5.896  26.603  0.00  0.00    +0.210 HD
ENDBRANCH  62  63
BRANCH  61  65
ATOM     65  O   UNL     1       7.740  -4.028  27.353  0.00  0.00    -0.386 OA
ATOM     66  H   UNL     1       6.998  -3.944  27.987  0.00  0.00    +0.210 HD
ENDBRANCH  61  65
BRANCH  60  67
ATOM     67  O   UNL     1       6.340  -6.410  26.815  0.00  0.00    -0.384 OA
ATOM     68  H   UNL     1       7.144  -6.657  26.318  0.00  0.00    +0.210 HD
ENDBRANCH  60  67
ENDBRANCH  55  59
ENDBRANCH  54  55
ENDBRANCH  42  54
ENDBRANCH  41  44
ENDBRANCH   1  41
TORSDOF 22
ENDMDL
MODEL 8
REMARK VINA RESULT:      -7.0      1.939     10.335
REMARK  Name = 
REMARK  23 active torsions:
REMARK  status: ('A' for Active; 'I' for Inactive)
REMARK    1  A    between atoms: C_1  and  C_2
REMARK    2  A    between atoms: C_4  and  O_63
REMARK    3  A    between atoms: C_6  and  O_62
REMARK    4  A    between atoms: C_7  and  O_61
REMARK    5  A    between atoms: C_8  and  O_11
REMARK    6  A    between atoms: O_11  and  C_12
REMARK    7  A    between atoms: C_12  and  C_13
REMARK    8  A    between atoms: C_14  and  O_60
REMARK    9  A    between atoms: C_16  and  O_59
REMARK   10  A    between atoms: C_18  and  O_58
REMARK   11  A    between atoms: C_19  and  O_22
REMARK   12  A    between atoms: O_22  and  C_23
REMARK   13  A    between atoms: C_25  and  O_57
REMARK   14  A    between atoms: C_30  and  C_49
REMARK   15  A    between atoms: C_31  and  O_34
REMARK   16  A    between atoms: O_34  and  C_35
REMARK   17  A    between atoms: C_37  and  O_48
REMARK   18  A    between atoms: C_38  and  O_47
REMARK   19  A    between atoms: C_39  and  O_46
REMARK   20  A    between atoms: C_41  and  C_43
REMARK   21  A    between atoms: C_43  and  O_45
REMARK   22  A    between atoms: C_51  and  O_56
REMARK   23  A    between atoms: C_52  and  O_55
REMARK                            x       y       z     vdW  Elec       q    Type
REMARK                         _______ _______ _______ _____ _____    ______ ____
ROOT
ATOM      1  C   UNL     1       7.024  -3.283  22.798  0.00  0.00    +0.131 A 
ATOM      2  C   UNL     1       6.279  -2.141  23.170  0.00  0.00    +0.093 A 
ATOM      3  C   UNL     1       6.890  -0.870  23.191  0.00  0.00    +0.147 A 
ATOM      4  O   UNL     1       6.168   0.250  23.558  0.00  0.00    -0.451 OA
ATOM      5  C   UNL     1       6.762   1.525  23.411  0.00  0.00    +0.181 A 
ATOM      6  C   UNL     1       8.083   1.714  23.111  0.00  0.00    +0.214 A 
ATOM      7  C   UNL     1       8.914   0.479  23.175  0.00  0.00    +0.238 A 
ATOM      8  O   UNL     1      10.068   0.493  23.576  0.00  0.00    -0.283 OA
ATOM      9  C   UNL     1       8.236  -0.777  22.872  0.00  0.00    +0.109 A 
ATOM     10  C   UNL     1       8.936  -1.877  22.380  0.00  0.00    +0.135 A 
ATOM     11  C   UNL     1       8.330  -3.127  22.330  0.00  0.00    +0.092 A 
ENDROOT
BRANCH   5  12
ATOM     12  C   UNL     1       5.827   2.660  23.681  0.00  0.00    +0.025 A 
ATOM     13  C   UNL     1       5.516   3.082  24.991  0.00  0.00    +0.015 A 
ATOM     14  C   UNL     1       4.659   4.172  25.224  0.00  0.00    +0.050 A 
ATOM     15  C   UNL     1       4.109   4.851  24.144  0.00  0.00    +0.158 A 
ATOM     16  C   UNL     1       4.421   4.471  22.849  0.00  0.00    +0.159 A 
ATOM     17  C   UNL     1       5.284   3.405  22.613  0.00  0.00    +0.060 A 
BRANCH  16  18
ATOM     18  O   UNL     1       3.859   5.179  21.821  0.00  0.00    -0.503 OA
ATOM     19  H   UNL     1       4.518   5.810  21.484  0.00  0.00    +0.292 HD
ENDBRANCH  16  18
BRANCH  15  20
ATOM     20  O   UNL     1       3.261   5.902  24.362  0.00  0.00    -0.503 OA
ATOM     21  H   UNL     1       3.759   6.502  24.956  0.00  0.00    +0.292 HD
ENDBRANCH  15  20
ENDBRANCH   5  12
BRANCH  10  22
ATOM     22  O   UNL     1      10.211  -1.721  21.919  0.00  0.00    -0.506 OA
ATOM     23  H   UNL     1      10.714  -2.543  22.020  0.00  0.00    +0.292 HD
ENDBRANCH  10  22
BRANCH   6  24
ATOM     24  O   UNL     1       8.708   2.960  22.934  0.00  0.00    -0.453 OA
BRANCH  24  25
ATOM     25  C   UNL     1       9.205   3.547  24.166  0.00  0.00    +0.340 C 
ATOM     26  O   UNL     1       8.366   4.575  24.695  0.00  0.00    -0.322 OA
ATOM     27  C   UNL     1       8.326   5.780  23.918  0.00  0.00    +0.261 C 
ATOM     28  C   UNL     1       9.705   6.433  23.859  0.00  0.00    +0.185 C 
ATOM     29  C   UNL     1      10.684   5.431  23.245  0.00  0.00    +0.180 C 
ATOM     30  C   UNL     1      10.647   4.096  24.009  0.00  0.00    +0.214 C 
BRANCH  30  31
ATOM     31  O   UNL     1      11.553   3.171  23.395  0.00  0.00    -0.383 OA
ATOM     32  H   UNL     1      11.067   2.676  22.713  0.00  0.00    +0.210 HD
ENDBRANCH  30  31
BRANCH  29  33
ATOM     33  O   UNL     1      12.007   5.995  23.305  0.00  0.00    -0.386 OA
ATOM     34  H   UNL     1      12.510   5.621  22.555  0.00  0.00    +0.210 HD
ENDBRANCH  29  33
BRANCH  28  35
ATOM     35  O   UNL     1      10.181   6.754  25.177  0.00  0.00    -0.386 OA
ATOM     36  H   UNL     1       9.793   6.075  25.764  0.00  0.00    +0.210 HD
ENDBRANCH  28  35
BRANCH  27  37
ATOM     37  C   UNL     1       7.286   6.738  24.500  0.00  0.00    +0.337 C 
ATOM     38  O   UNL     1       6.271   7.108  23.925  0.00  0.00    -0.248 OA
BRANCH  37  39
ATOM     39  O   UNL     1       7.547   7.059  25.794  0.00  0.00    -0.479 OA
ATOM     40  H   UNL     1       7.467   6.253  26.372  0.00  0.00    +0.295 HD
ENDBRANCH  37  39
ENDBRANCH  27  37
ENDBRANCH  24  25
ENDBRANCH   6  24
BRANCH   1  41
ATOM     41  O   UNL     1       6.412  -4.513  22.893  0.00  0.00    -0.461 OA
BRANCH  41  44
ATOM     42  C   UNL     1       6.190  -5.901  26.324  0.00  0.00    +0.179 C 
ATOM     43  O   UNL     1       6.717  -5.520  25.032  0.00  0.00    -0.331 OA
ATOM     44  C   UNL     1       5.791  -4.827  24.169  0.00  0.00    +0.339 C 
ATOM     45  C   UNL     1       4.554  -5.725  23.915  0.00  0.00    +0.214 C 
ATOM     46  C   UNL     1       3.915  -6.080  25.268  0.00  0.00    +0.180 C 
ATOM     47  C   UNL     1       4.937  -6.786  26.165  0.00  0.00    +0.177 C 
BRANCH  47  48
ATOM     48  O   UNL     1       4.300  -7.123  27.400  0.00  0.00    -0.386 OA
ATOM     49  H   UNL     1       4.650  -7.988  27.684  0.00  0.00    +0.210 HD
ENDBRANCH  47  48
BRANCH  46  50
ATOM     50  O   UNL     1       2.758  -6.907  25.110  0.00  0.00    -0.386 OA
ATOM     51  H   UNL     1       2.008  -6.289  24.988  0.00  0.00    +0.210 HD
ENDBRANCH  46  50
BRANCH  45  52
ATOM     52  O   UNL     1       4.933  -6.932  23.225  0.00  0.00    -0.383 OA
ATOM     53  H   UNL     1       5.563  -7.414  23.791  0.00  0.00    +0.210 HD
ENDBRANCH  45  52
BRANCH  42  54
ATOM     54  C   UNL     1       6.012  -4.674  27.248  0.00  0.00    +0.197 C 
BRANCH  54  55
ATOM     55  O   UNL     1       4.632  -4.384  27.488  0.00  0.00    -0.346 OA
BRANCH  55  59
ATOM     56  C   UNL     1       3.512  -1.042  29.987  0.00  0.00    +0.041 C 
ATOM     57  C   UNL     1       2.750  -1.516  28.753  0.00  0.00    +0.149 C 
ATOM     58  O   UNL     1       3.130  -2.860  28.410  0.00  0.00    -0.343 OA
ATOM     59  C   UNL     1       4.440  -3.006  27.861  0.00  0.00    +0.282 C 
ATOM     60  C   UNL     1       4.591  -2.150  26.586  0.00  0.00    +0.201 C 
ATOM     61  C   UNL     1       4.272  -0.686  26.909  0.00  0.00    +0.179 C 
ATOM     62  C   UNL     1       2.881  -0.561  27.553  0.00  0.00    +0.174 C 
BRANCH  62  63
ATOM     63  O   UNL     1       1.860  -0.883  26.591  0.00  0.00    -0.387 OA
ATOM     64  H   UNL     1       2.238  -1.561  25.992  0.00  0.00    +0.210 HD
ENDBRANCH  62  63
BRANCH  61  65
ATOM     65  O   UNL     1       4.340   0.105  25.719  0.00  0.00    -0.386 OA
ATOM     66  H   UNL     1       5.295   0.185  25.519  0.00  0.00    +0.210 HD
ENDBRANCH  61  65
BRANCH  60  67
ATOM     67  O   UNL     1       3.662  -2.624  25.582  0.00  0.00    -0.384 OA
ATOM     68  H   UNL     1       3.385  -1.821  25.097  0.00  0.00    +0.210 HD
ENDBRANCH  60  67
ENDBRANCH  55  59
ENDBRANCH  54  55
ENDBRANCH  42  54
ENDBRANCH  41  44
ENDBRANCH   1  41
TORSDOF 22
ENDMDL
MODEL 9
REMARK VINA RESULT:      -6.9      1.912      5.356
REMARK  Name = 
REMARK  23 active torsions:
REMARK  status: ('A' for Active; 'I' for Inactive)
REMARK    1  A    between atoms: C_1  and  C_2
REMARK    2  A    between atoms: C_4  and  O_63
REMARK    3  A    between atoms: C_6  and  O_62
REMARK    4  A    between atoms: C_7  and  O_61
REMARK    5  A    between atoms: C_8  and  O_11
REMARK    6  A    between atoms: O_11  and  C_12
REMARK    7  A    between atoms: C_12  and  C_13
REMARK    8  A    between atoms: C_14  and  O_60
REMARK    9  A    between atoms: C_16  and  O_59
REMARK   10  A    between atoms: C_18  and  O_58
REMARK   11  A    between atoms: C_19  and  O_22
REMARK   12  A    between atoms: O_22  and  C_23
REMARK   13  A    between atoms: C_25  and  O_57
REMARK   14  A    between atoms: C_30  and  C_49
REMARK   15  A    between atoms: C_31  and  O_34
REMARK   16  A    between atoms: O_34  and  C_35
REMARK   17  A    between atoms: C_37  and  O_48
REMARK   18  A    between atoms: C_38  and  O_47
REMARK   19  A    between atoms: C_39  and  O_46
REMARK   20  A    between atoms: C_41  and  C_43
REMARK   21  A    between atoms: C_43  and  O_45
REMARK   22  A    between atoms: C_51  and  O_56
REMARK   23  A    between atoms: C_52  and  O_55
REMARK                            x       y       z     vdW  Elec       q    Type
REMARK                         _______ _______ _______ _____ _____    ______ ____
ROOT
ATOM      1  C   UNL     1       9.776   0.965  23.795  0.00  0.00    +0.131 A 
ATOM      2  C   UNL     1       9.061   0.368  24.858  0.00  0.00    +0.093 A 
ATOM      3  C   UNL     1       8.346  -0.830  24.648  0.00  0.00    +0.147 A 
ATOM      4  O   UNL     1       7.642  -1.418  25.682  0.00  0.00    -0.451 OA
ATOM      5  C   UNL     1       7.074  -2.697  25.483  0.00  0.00    +0.181 A 
ATOM      6  C   UNL     1       7.008  -3.314  24.264  0.00  0.00    +0.214 A 
ATOM      7  C   UNL     1       7.372  -2.444  23.111  0.00  0.00    +0.238 A 
ATOM      8  O   UNL     1       6.808  -2.529  22.030  0.00  0.00    -0.283 OA
ATOM      9  C   UNL     1       8.336  -1.382  23.377  0.00  0.00    +0.109 A 
ATOM     10  C   UNL     1       9.145  -0.868  22.364  0.00  0.00    +0.135 A 
ATOM     11  C   UNL     1       9.874   0.296  22.574  0.00  0.00    +0.092 A 
ENDROOT
BRANCH   5  12
ATOM     12  C   UNL     1       6.485  -3.294  26.721  0.00  0.00    +0.025 A 
ATOM     13  C   UNL     1       5.473  -2.647  27.461  0.00  0.00    +0.015 A 
ATOM     14  C   UNL     1       4.910  -3.239  28.604  0.00  0.00    +0.050 A 
ATOM     15  C   UNL     1       5.354  -4.490  29.015  0.00  0.00    +0.158 A 
ATOM     16  C   UNL     1       6.328  -5.156  28.289  0.00  0.00    +0.159 A 
ATOM     17  C   UNL     1       6.875  -4.582  27.145  0.00  0.00    +0.060 A 
BRANCH  16  18
ATOM     18  O   UNL     1       6.724  -6.389  28.732  0.00  0.00    -0.503 OA
ATOM     19  H   UNL     1       7.360  -6.758  28.094  0.00  0.00    +0.292 HD
ENDBRANCH  16  18
BRANCH  15  20
ATOM     20  O   UNL     1       4.824  -5.065  30.136  0.00  0.00    -0.503 OA
ATOM     21  H   UNL     1       3.929  -4.673  30.216  0.00  0.00    +0.292 HD
ENDBRANCH  15  20
ENDBRANCH   5  12
BRANCH  10  22
ATOM     22  O   UNL     1       9.242  -1.527  21.172  0.00  0.00    -0.506 OA
ATOM     23  H   UNL     1       9.016  -0.937  20.437  0.00  0.00    +0.292 HD
ENDBRANCH  10  22
BRANCH   6  24
ATOM     24  O   UNL     1       6.474  -4.592  24.026  0.00  0.00    -0.453 OA
BRANCH  24  25
ATOM     25  C   UNL     1       5.234  -4.577  23.272  0.00  0.00    +0.340 C 
ATOM     26  O   UNL     1       4.180  -3.851  23.907  0.00  0.00    -0.322 OA
ATOM     27  C   UNL     1       3.665  -4.456  25.101  0.00  0.00    +0.261 C 
ATOM     28  C   UNL     1       3.034  -5.812  24.792  0.00  0.00    +0.185 C 
ATOM     29  C   UNL     1       4.101  -6.703  24.156  0.00  0.00    +0.180 C 
ATOM     30  C   UNL     1       4.737  -6.008  22.940  0.00  0.00    +0.214 C 
BRANCH  30  31
ATOM     31  O   UNL     1       5.749  -6.856  22.382  0.00  0.00    -0.383 OA
ATOM     32  H   UNL     1       5.377  -7.751  22.284  0.00  0.00    +0.210 HD
ENDBRANCH  30  31
BRANCH  29  33
ATOM     33  O   UNL     1       3.478  -7.935  23.749  0.00  0.00    -0.386 OA
ATOM     34  H   UNL     1       3.291  -8.442  24.564  0.00  0.00    +0.210 HD
ENDBRANCH  29  33
BRANCH  28  35
ATOM     35  O   UNL     1       1.959  -5.677  23.846  0.00  0.00    -0.386 OA
ATOM     36  H   UNL     1       1.324  -5.062  24.262  0.00  0.00    +0.210 HD
ENDBRANCH  28  35
BRANCH  27  37
ATOM     37  C   UNL     1       2.658  -3.516  25.765  0.00  0.00    +0.337 C 
ATOM     38  O   UNL     1       2.613  -2.304  25.603  0.00  0.00    -0.248 OA
BRANCH  37  39
ATOM     39  O   UNL     1       1.722  -4.188  26.485  0.00  0.00    -0.479 OA
ATOM     40  H   UNL     1       0.997  -3.569  26.771  0.00  0.00    +0.295 HD
ENDBRANCH  37  39
ENDBRANCH  27  37
ENDBRANCH  24  25
ENDBRANCH   6  24
BRANCH   1  41
ATOM     41  O   UNL     1      10.371   2.186  24.023  0.00  0.00    -0.461 OA
BRANCH  41  44
ATOM     42  C   UNL     1       7.670   4.486  22.945  0.00  0.00    +0.179 C 
ATOM     43  O   UNL     1       8.587   3.367  22.972  0.00  0.00    -0.331 OA
ATOM     44  C   UNL     1       9.481   3.331  24.106  0.00  0.00    +0.339 C 
ATOM     45  C   UNL     1      10.333   4.626  24.130  0.00  0.00    +0.214 C 
ATOM     46  C   UNL     1       9.387   5.837  24.188  0.00  0.00    +0.180 C 
ATOM     47  C   UNL     1       8.436   5.824  22.987  0.00  0.00    +0.177 C 
BRANCH  47  48
ATOM     48  O   UNL     1       7.594   6.977  23.061  0.00  0.00    -0.386 OA
ATOM     49  H   UNL     1       6.998   6.955  22.290  0.00  0.00    +0.210 HD
ENDBRANCH  47  48
BRANCH  46  50
ATOM     50  O   UNL     1      10.108   7.073  24.220  0.00  0.00    -0.386 OA
ATOM     51  H   UNL     1       9.475   7.739  24.559  0.00  0.00    +0.210 HD
ENDBRANCH  46  50
BRANCH  45  52
ATOM     52  O   UNL     1      11.163   4.712  22.955  0.00  0.00    -0.383 OA
ATOM     53  H   UNL     1      11.841   4.016  23.017  0.00  0.00    +0.210 HD
ENDBRANCH  45  52
BRANCH  42  54
ATOM     54  C   UNL     1       6.558   4.334  24.008  0.00  0.00    +0.197 C 
BRANCH  54  55
ATOM     55  O   UNL     1       6.179   2.967  24.191  0.00  0.00    -0.346 OA
BRANCH  55  59
ATOM     56  C   UNL     1       6.336   1.414  28.219  0.00  0.00    +0.041 C 
ATOM     57  C   UNL     1       5.425   0.899  27.109  0.00  0.00    +0.149 C 
ATOM     58  O   UNL     1       5.904   1.327  25.823  0.00  0.00    -0.343 OA
ATOM     59  C   UNL     1       5.738   2.717  25.539  0.00  0.00    +0.282 C 
ATOM     60  C   UNL     1       4.251   3.115  25.628  0.00  0.00    +0.201 C 
ATOM     61  C   UNL     1       3.703   2.751  27.013  0.00  0.00    +0.179 C 
ATOM     62  C   UNL     1       3.945   1.263  27.320  0.00  0.00    +0.174 C 
BRANCH  62  63
ATOM     63  O   UNL     1       3.138   0.443  26.455  0.00  0.00    -0.387 OA
ATOM     64  H   UNL     1       3.048  -0.429  26.894  0.00  0.00    +0.210 HD
ENDBRANCH  62  63
BRANCH  61  65
ATOM     65  O   UNL     1       2.306   3.051  27.082  0.00  0.00    -0.386 OA
ATOM     66  H   UNL     1       2.053   2.882  28.013  0.00  0.00    +0.210 HD
ENDBRANCH  61  65
BRANCH  60  67
ATOM     67  O   UNL     1       3.503   2.392  24.621  0.00  0.00    -0.384 OA
ATOM     68  H   UNL     1       4.168   2.129  23.954  0.00  0.00    +0.210 HD
ENDBRANCH  60  67
ENDBRANCH  55  59
ENDBRANCH  54  55
ENDBRANCH  42  54
ENDBRANCH  41  44
ENDBRANCH   1  41
TORSDOF 22
ENDMDL
