MODEL 1
REMARK VINA RESULT:      -7.2      0.000      0.000
REMARK  Name = 
REMARK  13 active torsions:
REMARK  status: ('A' for Active; 'I' for Inactive)
REMARK    1  A    between atoms: C_3  and  O_33
REMARK    2  A    between atoms: C_4  and  O_32
REMARK    3  A    between atoms: C_6  and  C_7
REMARK    4  A    between atoms: C_8  and  O_20
REMARK    5  A    between atoms: C_12  and  O_19
REMARK    6  A    between atoms: C_14  and  O_18
REMARK    7  A    between atoms: O_20  and  C_21
REMARK    8  A    between atoms: C_22  and  O_31
REMARK    9  A    between atoms: C_23  and  O_30
REMARK   10  A    between atoms: C_24  and  C_26
REMARK   11  A    between atoms: C_26  and  C_27
REMARK   12  A    between atoms: C_26  and  O_29
REMARK   13  A    between atoms: C_27  and  O_28
REMARK                            x       y       z     vdW  Elec       q    Type
REMARK                         _______ _______ _______ _____ _____    ______ ____
ROOT
ATOM      1  C   UNL     1       7.718  -3.305  25.348  0.00  0.00    +0.181 A 
ATOM      2  O   UNL     1       8.418  -2.129  25.653  0.00  0.00    -0.451 OA
ATOM      3  C   UNL     1       9.048  -1.426  24.663  0.00  0.00    +0.147 A 
ATOM      4  C   UNL     1       8.895  -1.735  23.323  0.00  0.00    +0.109 A 
ATOM      5  C   UNL     1       9.519  -0.953  22.340  0.00  0.00    +0.135 A 
ATOM      6  C   UNL     1      10.313   0.130  22.698  0.00  0.00    +0.091 A 
ATOM      7  C   UNL     1      10.470   0.429  24.046  0.00  0.00    +0.124 A 
ATOM      8  C   UNL     1       8.070  -2.887  22.975  0.00  0.00    +0.238 A 
ATOM      9  O   UNL     1       7.786  -3.055  21.790  0.00  0.00    -0.283 OA
ATOM     10  C   UNL     1       9.845  -0.337  25.031  0.00  0.00    +0.092 A 
ATOM     11  C   UNL     1       7.603  -3.786  24.080  0.00  0.00    +0.214 A 
ENDROOT
BRANCH   1  13
ATOM     12  C   UNL     1       7.462  -5.109  27.154  0.00  0.00    +0.015 A 
ATOM     13  C   UNL     1       7.054  -3.887  26.579  0.00  0.00    +0.025 A 
ATOM     14  C   UNL     1       5.888  -3.298  27.120  0.00  0.00    +0.060 A 
ATOM     15  C   UNL     1       5.160  -3.946  28.123  0.00  0.00    +0.159 A 
ATOM     16  C   UNL     1       5.547  -5.189  28.600  0.00  0.00    +0.158 A 
ATOM     17  C   UNL     1       6.712  -5.767  28.138  0.00  0.00    +0.050 A 
BRANCH  15  18
ATOM     18  O   UNL     1       4.035  -3.357  28.625  0.00  0.00    -0.503 OA
ATOM     19  H   UNL     1       3.626  -2.910  27.855  0.00  0.00    +0.292 HD
ENDBRANCH  15  18
BRANCH  16  20
ATOM     20  O   UNL     1       4.743  -5.817  29.508  0.00  0.00    -0.503 OA
ATOM     21  H   UNL     1       3.892  -5.343  29.533  0.00  0.00    +0.292 HD
ENDBRANCH  16  20
ENDBRANCH   1  13
BRANCH   5  22
ATOM     22  O   UNL     1       9.385  -1.193  20.997  0.00  0.00    -0.506 OA
ATOM     23  H   UNL     1      10.088  -0.688  20.531  0.00  0.00    +0.292 HD
ENDBRANCH   5  22
BRANCH   7  24
ATOM     24  O   UNL     1      11.235   1.491  24.445  0.00  0.00    -0.507 OA
ATOM     25  H   UNL     1      10.668   2.131  24.898  0.00  0.00    +0.292 HD
ENDBRANCH   7  24
BRANCH  11  26
ATOM     26  O   UNL     1       7.035  -5.021  23.803  0.00  0.00    -0.453 OA
BRANCH  26  27
ATOM     27  C   UNL     1       5.619  -5.204  23.796  0.00  0.00    +0.340 C 
ATOM     28  O   UNL     1       5.260  -6.304  24.677  0.00  0.00    -0.331 OA
ATOM     29  C   UNL     1       4.083  -6.953  24.126  0.00  0.00    +0.184 C 
ATOM     30  C   UNL     1       3.700  -6.187  22.849  0.00  0.00    +0.180 C 
ATOM     31  C   UNL     1       5.052  -5.633  22.431  0.00  0.00    +0.214 C 
BRANCH  30  32
ATOM     32  O   UNL     1       2.774  -5.136  23.115  0.00  0.00    -0.386 OA
ATOM     33  H   UNL     1       3.078  -4.322  22.673  0.00  0.00    +0.210 HD
ENDBRANCH  30  32
BRANCH  31  34
ATOM     34  O   UNL     1       5.838  -6.662  21.810  0.00  0.00    -0.383 OA
ATOM     35  H   UNL     1       6.392  -7.069  22.503  0.00  0.00    +0.210 HD
ENDBRANCH  31  34
BRANCH  29  36
ATOM     36  C   UNL     1       3.006  -7.158  25.206  0.00  0.00    +0.171 C 
BRANCH  36  37
ATOM     37  O   UNL     1       3.599  -7.452  26.482  0.00  0.00    -0.387 OA
ATOM     38  H   UNL     1       3.002  -7.100  27.168  0.00  0.00    +0.210 HD
ENDBRANCH  36  37
BRANCH  36  39
ATOM     39  C   UNL     1       1.930  -8.211  24.903  0.00  0.00    +0.189 C 
BRANCH  39  40
ATOM     40  O   UNL     1       2.409  -9.503  25.295  0.00  0.00    -0.392 OA
ATOM     41  H   UNL     1       3.083  -9.350  25.985  0.00  0.00    +0.210 HD
ENDBRANCH  39  40
ENDBRANCH  36  39
ENDBRANCH  29  36
ENDBRANCH  26  27
ENDBRANCH  11  26
TORSDOF 13
ENDMDL
MODEL 2
REMARK VINA RESULT:      -6.9      3.530      8.149
REMARK  Name = 
REMARK  13 active torsions:
REMARK  status: ('A' for Active; 'I' for Inactive)
REMARK    1  A    between atoms: C_3  and  O_33
REMARK    2  A    between atoms: C_4  and  O_32
REMARK    3  A    between atoms: C_6  and  C_7
REMARK    4  A    between atoms: C_8  and  O_20
REMARK    5  A    between atoms: C_12  and  O_19
REMARK    6  A    between atoms: C_14  and  O_18
REMARK    7  A    between atoms: O_20  and  C_21
REMARK    8  A    between atoms: C_22  and  O_31
REMARK    9  A    between atoms: C_23  and  O_30
REMARK   10  A    between atoms: C_24  and  C_26
REMARK   11  A    between atoms: C_26  and  C_27
REMARK   12  A    between atoms: C_26  and  O_29
REMARK   13  A    between atoms: C_27  and  O_28
REMARK                            x       y       z     vdW  Elec       q    Type
REMARK                         _______ _______ _______ _____ _____    ______ ____
ROOT
ATOM      1  C   UNL     1       7.549  -1.541  23.946  0.00  0.00    +0.181 A 
ATOM      2  O   UNL     1       7.614  -2.581  23.008  0.00  0.00    -0.451 OA
ATOM      3  C   UNL     1       6.658  -3.560  22.996  0.00  0.00    +0.147 A 
ATOM      4  C   UNL     1       5.518  -3.490  23.778  0.00  0.00    +0.109 A 
ATOM      5  C   UNL     1       4.540  -4.491  23.694  0.00  0.00    +0.135 A 
ATOM      6  C   UNL     1       4.710  -5.576  22.840  0.00  0.00    +0.091 A 
ATOM      7  C   UNL     1       5.861  -5.644  22.065  0.00  0.00    +0.124 A 
ATOM      8  C   UNL     1       5.372  -2.351  24.677  0.00  0.00    +0.238 A 
ATOM      9  O   UNL     1       4.287  -2.192  25.235  0.00  0.00    -0.283 OA
ATOM     10  C   UNL     1       6.836  -4.646  22.135  0.00  0.00    +0.092 A 
ATOM     11  C   UNL     1       6.543  -1.433  24.857  0.00  0.00    +0.214 A 
ENDROOT
BRANCH   1  13
ATOM     12  C   UNL     1       9.686  -0.338  24.702  0.00  0.00    +0.015 A 
ATOM     13  C   UNL     1       8.671  -0.544  23.743  0.00  0.00    +0.025 A 
ATOM     14  C   UNL     1       8.664   0.339  22.639  0.00  0.00    +0.060 A 
ATOM     15  C   UNL     1       9.580   1.392  22.560  0.00  0.00    +0.159 A 
ATOM     16  C   UNL     1      10.506   1.613  23.568  0.00  0.00    +0.158 A 
ATOM     17  C   UNL     1      10.582   0.736  24.632  0.00  0.00    +0.050 A 
BRANCH  15  18
ATOM     18  O   UNL     1       9.548   2.233  21.485  0.00  0.00    -0.503 OA
ATOM     19  H   UNL     1      10.463   2.574  21.412  0.00  0.00    +0.292 HD
ENDBRANCH  15  18
BRANCH  16  20
ATOM     20  O   UNL     1      11.311   2.714  23.484  0.00  0.00    -0.503 OA
ATOM     21  H   UNL     1      11.832   2.642  22.664  0.00  0.00    +0.292 HD
ENDBRANCH  16  20
ENDBRANCH   1  13
BRANCH   5  22
ATOM     22  O   UNL     1       3.379  -4.466  24.422  0.00  0.00    -0.506 OA
ATOM     23  H   UNL     1       3.584  -4.073  25.299  0.00  0.00    +0.292 HD
ENDBRANCH   5  22
BRANCH   7  24
ATOM     24  O   UNL     1       6.068  -6.687  21.205  0.00  0.00    -0.507 OA
ATOM     25  H   UNL     1       6.933  -6.577  20.785  0.00  0.00    +0.292 HD
ENDBRANCH   7  24
BRANCH  11  26
ATOM     26  O   UNL     1       6.560  -0.488  25.873  0.00  0.00    -0.453 OA
BRANCH  26  27
ATOM     27  C   UNL     1       5.732   0.674  25.822  0.00  0.00    +0.340 C 
ATOM     28  O   UNL     1       5.855   1.310  24.520  0.00  0.00    -0.331 OA
ATOM     29  C   UNL     1       5.693   2.742  24.705  0.00  0.00    +0.184 C 
ATOM     30  C   UNL     1       5.438   2.979  26.202  0.00  0.00    +0.180 C 
ATOM     31  C   UNL     1       6.150   1.781  26.807  0.00  0.00    +0.214 C 
BRANCH  30  32
ATOM     32  O   UNL     1       4.047   2.964  26.515  0.00  0.00    -0.386 OA
ATOM     33  H   UNL     1       3.914   3.350  27.400  0.00  0.00    +0.210 HD
ENDBRANCH  30  32
BRANCH  31  34
ATOM     34  O   UNL     1       7.568   2.000  26.817  0.00  0.00    -0.383 OA
ATOM     35  H   UNL     1       7.793   2.514  26.017  0.00  0.00    +0.210 HD
ENDBRANCH  31  34
BRANCH  29  36
ATOM     36  C   UNL     1       4.689   3.321  23.692  0.00  0.00    +0.171 C 
BRANCH  36  37
ATOM     37  O   UNL     1       3.442   2.608  23.731  0.00  0.00    -0.387 OA
ATOM     38  H   UNL     1       3.366   2.203  24.615  0.00  0.00    +0.210 HD
ENDBRANCH  36  37
BRANCH  36  39
ATOM     39  C   UNL     1       5.167   3.409  22.235  0.00  0.00    +0.189 C 
BRANCH  39  40
ATOM     40  O   UNL     1       6.576   3.156  22.183  0.00  0.00    -0.392 OA
ATOM     41  H   UNL     1       7.016   4.020  22.302  0.00  0.00    +0.210 HD
ENDBRANCH  39  40
ENDBRANCH  36  39
ENDBRANCH  29  36
ENDBRANCH  26  27
ENDBRANCH  11  26
TORSDOF 13
ENDMDL
MODEL 3
REMARK VINA RESULT:      -6.9      2.404      7.630
REMARK  Name = 
REMARK  13 active torsions:
REMARK  status: ('A' for Active; 'I' for Inactive)
REMARK    1  A    between atoms: C_3  and  O_33
REMARK    2  A    between atoms: C_4  and  O_32
REMARK    3  A    between atoms: C_6  and  C_7
REMARK    4  A    between atoms: C_8  and  O_20
REMARK    5  A    between atoms: C_12  and  O_19
REMARK    6  A    between atoms: C_14  and  O_18
REMARK    7  A    between atoms: O_20  and  C_21
REMARK    8  A    between atoms: C_22  and  O_31
REMARK    9  A    between atoms: C_23  and  O_30
REMARK   10  A    between atoms: C_24  and  C_26
REMARK   11  A    between atoms: C_26  and  C_27
REMARK   12  A    between atoms: C_26  and  O_29
REMARK   13  A    between atoms: C_27  and  O_28
REMARK                            x       y       z     vdW  Elec       q    Type
REMARK                         _______ _______ _______ _____ _____    ______ ____
ROOT
ATOM      1  C   UNL     1       5.992  -2.303  24.916  0.00  0.00    +0.181 A 
ATOM      2  O   UNL     1       5.433  -3.418  25.558  0.00  0.00    -0.451 OA
ATOM      3  C   UNL     1       5.220  -4.577  24.863  0.00  0.00    +0.147 A 
ATOM      4  C   UNL     1       5.682  -4.762  23.571  0.00  0.00    +0.109 A 
ATOM      5  C   UNL     1       5.485  -5.987  22.918  0.00  0.00    +0.135 A 
ATOM      6  C   UNL     1       4.807  -7.024  23.550  0.00  0.00    +0.091 A 
ATOM      7  C   UNL     1       4.338  -6.828  24.842  0.00  0.00    +0.124 A 
ATOM      8  C   UNL     1       6.375  -3.653  22.926  0.00  0.00    +0.238 A 
ATOM      9  O   UNL     1       6.942  -3.872  21.855  0.00  0.00    -0.283 OA
ATOM     10  C   UNL     1       4.538  -5.615  25.505  0.00  0.00    +0.092 A 
ATOM     11  C   UNL     1       6.371  -2.318  23.609  0.00  0.00    +0.214 A 
ENDROOT
BRANCH   1  13
ATOM     12  C   UNL     1       5.367  -0.008  25.878  0.00  0.00    +0.015 A 
ATOM     13  C   UNL     1       6.191  -1.153  25.882  0.00  0.00    +0.025 A 
ATOM     14  C   UNL     1       7.316  -1.112  26.737  0.00  0.00    +0.060 A 
ATOM     15  C   UNL     1       7.610   0.037  27.476  0.00  0.00    +0.159 A 
ATOM     16  C   UNL     1       6.823   1.174  27.376  0.00  0.00    +0.158 A 
ATOM     17  C   UNL     1       5.683   1.152  26.597  0.00  0.00    +0.050 A 
BRANCH  15  18
ATOM     18  O   UNL     1       8.705   0.052  28.291  0.00  0.00    -0.503 OA
ATOM     19  H   UNL     1       8.600  -0.738  28.860  0.00  0.00    +0.292 HD
ENDBRANCH  15  18
BRANCH  16  20
ATOM     20  O   UNL     1       7.215   2.299  28.046  0.00  0.00    -0.503 OA
ATOM     21  H   UNL     1       8.118   2.150  28.379  0.00  0.00    +0.292 HD
ENDBRANCH  16  20
ENDBRANCH   1  13
BRANCH   5  22
ATOM     22  O   UNL     1       5.940  -6.240  21.650  0.00  0.00    -0.506 OA
ATOM     23  H   UNL     1       5.216  -6.021  21.022  0.00  0.00    +0.292 HD
ENDBRANCH   5  22
BRANCH   7  24
ATOM     24  O   UNL     1       3.674  -7.822  25.507  0.00  0.00    -0.507 OA
ATOM     25  H   UNL     1       4.091  -7.952  26.370  0.00  0.00    +0.292 HD
ENDBRANCH   7  24
BRANCH  11  26
ATOM     26  O   UNL     1       6.787  -1.174  22.943  0.00  0.00    -0.453 OA
BRANCH  26  27
ATOM     27  C   UNL     1       7.967  -0.473  23.336  0.00  0.00    +0.340 C 
ATOM     28  O   UNL     1       8.001   0.832  22.695  0.00  0.00    -0.331 OA
ATOM     29  C   UNL     1       9.392   1.177  22.455  0.00  0.00    +0.184 C 
ATOM     30  C   UNL     1      10.245   0.022  23.002  0.00  0.00    +0.180 C 
ATOM     31  C   UNL     1       9.274  -1.140  22.869  0.00  0.00    +0.214 C 
BRANCH  30  32
ATOM     32  O   UNL     1      10.615   0.229  24.363  0.00  0.00    -0.386 OA
ATOM     33  H   UNL     1      10.348  -0.547  24.889  0.00  0.00    +0.210 HD
ENDBRANCH  30  32
BRANCH  31  34
ATOM     34  O   UNL     1       9.209  -1.577  21.504  0.00  0.00    -0.383 OA
ATOM     35  H   UNL     1       9.540  -2.496  21.471  0.00  0.00    +0.210 HD
ENDBRANCH  31  34
BRANCH  29  36
ATOM     36  C   UNL     1       9.699   2.605  22.939  0.00  0.00    +0.171 C 
BRANCH  36  37
ATOM     37  O   UNL     1      11.050   2.712  23.420  0.00  0.00    -0.387 OA
ATOM     38  H   UNL     1      11.640   2.443  22.691  0.00  0.00    +0.210 HD
ENDBRANCH  36  37
BRANCH  36  39
ATOM     39  C   UNL     1       8.748   3.186  23.996  0.00  0.00    +0.189 C 
BRANCH  39  40
ATOM     40  O   UNL     1       8.876   2.436  25.211  0.00  0.00    -0.392 OA
ATOM     41  H   UNL     1       9.644   2.808  25.685  0.00  0.00    +0.210 HD
ENDBRANCH  39  40
ENDBRANCH  36  39
ENDBRANCH  29  36
ENDBRANCH  26  27
ENDBRANCH  11  26
TORSDOF 13
ENDMDL
MODEL 4
REMARK VINA RESULT:      -6.9      2.167      4.681
REMARK  Name = 
REMARK  13 active torsions:
REMARK  status: ('A' for Active; 'I' for Inactive)
REMARK    1  A    between atoms: C_3  and  O_33
REMARK    2  A    between atoms: C_4  and  O_32
REMARK    3  A    between atoms: C_6  and  C_7
REMARK    4  A    between atoms: C_8  and  O_20
REMARK    5  A    between atoms: C_12  and  O_19
REMARK    6  A    between atoms: C_14  and  O_18
REMARK    7  A    between atoms: O_20  and  C_21
REMARK    8  A    between atoms: C_22  and  O_31
REMARK    9  A    between atoms: C_23  and  O_30
REMARK   10  A    between atoms: C_24  and  C_26
REMARK   11  A    between atoms: C_26  and  C_27
REMARK   12  A    between atoms: C_26  and  O_29
REMARK   13  A    between atoms: C_27  and  O_28
REMARK                            x       y       z     vdW  Elec       q    Type
REMARK                         _______ _______ _______ _____ _____    ______ ____
ROOT
ATOM      1  C   UNL     1       7.242  -1.386  23.513  0.00  0.00    +0.181 A 
ATOM      2  O   UNL     1       8.302  -0.680  22.927  0.00  0.00    -0.451 OA
ATOM      3  C   UNL     1       8.620   0.577  23.367  0.00  0.00    +0.147 A 
ATOM      4  C   UNL     1       8.039   1.136  24.491  0.00  0.00    +0.109 A 
ATOM      5  C   UNL     1       8.435   2.406  24.935  0.00  0.00    +0.135 A 
ATOM      6  C   UNL     1       9.401   3.127  24.243  0.00  0.00    +0.091 A 
ATOM      7  C   UNL     1       9.974   2.563  23.110  0.00  0.00    +0.124 A 
ATOM      8  C   UNL     1       7.015   0.366  25.189  0.00  0.00    +0.238 A 
ATOM      9  O   UNL     1       6.629   0.778  26.283  0.00  0.00    -0.283 OA
ATOM     10  C   UNL     1       9.594   1.295  22.666  0.00  0.00    +0.092 A 
ATOM     11  C   UNL     1       6.507  -0.888  24.545  0.00  0.00    +0.214 A 
ENDROOT
BRANCH   1  13
ATOM     12  C   UNL     1       6.057  -3.112  22.030  0.00  0.00    +0.015 A 
ATOM     13  C   UNL     1       7.103  -2.770  22.913  0.00  0.00    +0.025 A 
ATOM     14  C   UNL     1       7.938  -3.830  23.336  0.00  0.00    +0.060 A 
ATOM     15  C   UNL     1       7.678  -5.145  22.940  0.00  0.00    +0.159 A 
ATOM     16  C   UNL     1       6.587  -5.450  22.141  0.00  0.00    +0.158 A 
ATOM     17  C   UNL     1       5.784  -4.435  21.660  0.00  0.00    +0.050 A 
BRANCH  15  18
ATOM     18  O   UNL     1       8.497  -6.150  23.366  0.00  0.00    -0.503 OA
ATOM     19  H   UNL     1       9.363  -5.717  23.514  0.00  0.00    +0.292 HD
ENDBRANCH  15  18
BRANCH  16  20
ATOM     20  O   UNL     1       6.327  -6.764  21.867  0.00  0.00    -0.503 OA
ATOM     21  H   UNL     1       6.300  -7.246  22.713  0.00  0.00    +0.292 HD
ENDBRANCH  16  20
ENDBRANCH   1  13
BRANCH   5  22
ATOM     22  O   UNL     1       7.915   3.003  26.054  0.00  0.00    -0.506 OA
ATOM     23  H   UNL     1       8.456   3.801  26.247  0.00  0.00    +0.292 HD
ENDBRANCH   5  22
BRANCH   7  24
ATOM     24  O   UNL     1      10.935   3.231  22.402  0.00  0.00    -0.507 OA
ATOM     25  H   UNL     1      10.705   4.170  22.374  0.00  0.00    +0.292 HD
ENDBRANCH   7  24
BRANCH  11  26
ATOM     26  O   UNL     1       5.372  -1.526  25.023  0.00  0.00    -0.453 OA
BRANCH  26  27
ATOM     27  C   UNL     1       5.464  -2.682  25.858  0.00  0.00    +0.340 C 
ATOM     28  O   UNL     1       4.728  -3.783  25.257  0.00  0.00    -0.331 OA
ATOM     29  C   UNL     1       4.188  -4.599  26.332  0.00  0.00    +0.184 C 
ATOM     30  C   UNL     1       4.642  -3.963  27.655  0.00  0.00    +0.180 C 
ATOM     31  C   UNL     1       4.799  -2.510  27.236  0.00  0.00    +0.214 C 
BRANCH  30  32
ATOM     32  O   UNL     1       5.881  -4.503  28.109  0.00  0.00    -0.386 OA
ATOM     33  H   UNL     1       6.499  -4.563  27.357  0.00  0.00    +0.210 HD
ENDBRANCH  30  32
BRANCH  31  34
ATOM     34  O   UNL     1       3.513  -1.878  27.149  0.00  0.00    -0.383 OA
ATOM     35  H   UNL     1       3.615  -0.957  27.457  0.00  0.00    +0.210 HD
ENDBRANCH  31  34
BRANCH  29  36
ATOM     36  C   UNL     1       4.487  -6.090  26.097  0.00  0.00    +0.171 C 
BRANCH  36  37
ATOM     37  O   UNL     1       5.889  -6.310  25.867  0.00  0.00    -0.387 OA
ATOM     38  H   UNL     1       6.183  -5.650  25.211  0.00  0.00    +0.210 HD
ENDBRANCH  36  37
BRANCH  36  39
ATOM     39  C   UNL     1       3.685  -6.779  24.983  0.00  0.00    +0.189 C 
BRANCH  39  40
ATOM     40  O   UNL     1       4.581  -7.521  24.146  0.00  0.00    -0.392 OA
ATOM     41  H   UNL     1       5.275  -7.878  24.733  0.00  0.00    +0.210 HD
ENDBRANCH  39  40
ENDBRANCH  36  39
ENDBRANCH  29  36
ENDBRANCH  26  27
ENDBRANCH  11  26
TORSDOF 13
ENDMDL
MODEL 5
REMARK VINA RESULT:      -6.8      2.248      4.769
REMARK  Name = 
REMARK  13 active torsions:
REMARK  status: ('A' for Active; 'I' for Inactive)
REMARK    1  A    between atoms: C_3  and  O_33
REMARK    2  A    between atoms: C_4  and  O_32
REMARK    3  A    between atoms: C_6  and  C_7
REMARK    4  A    between atoms: C_8  and  O_20
REMARK    5  A    between atoms: C_12  and  O_19
REMARK    6  A    between atoms: C_14  and  O_18
REMARK    7  A    between atoms: O_20  and  C_21
REMARK    8  A    between atoms: C_22  and  O_31
REMARK    9  A    between atoms: C_23  and  O_30
REMARK   10  A    between atoms: C_24  and  C_26
REMARK   11  A    between atoms: C_26  and  C_27
REMARK   12  A    between atoms: C_26  and  O_29
REMARK   13  A    between atoms: C_27  and  O_28
REMARK                            x       y       z     vdW  Elec       q    Type
REMARK                         _______ _______ _______ _____ _____    ______ ____
ROOT
ATOM      1  C   UNL     1       7.350  -1.791  23.607  0.00  0.00    +0.181 A 
ATOM      2  O   UNL     1       6.918  -0.751  22.771  0.00  0.00    -0.451 OA
ATOM      3  C   UNL     1       7.323   0.535  23.005  0.00  0.00    +0.147 A 
ATOM      4  C   UNL     1       8.284   0.848  23.950  0.00  0.00    +0.109 A 
ATOM      5  C   UNL     1       8.706   2.175  24.118  0.00  0.00    +0.135 A 
ATOM      6  C   UNL     1       8.152   3.194  23.352  0.00  0.00    +0.091 A 
ATOM      7  C   UNL     1       7.181   2.874  22.412  0.00  0.00    +0.124 A 
ATOM      8  C   UNL     1       8.837  -0.239  24.751  0.00  0.00    +0.238 A 
ATOM      9  O   UNL     1       9.814   0.006  25.459  0.00  0.00    -0.283 OA
ATOM     10  C   UNL     1       6.762   1.554  22.231  0.00  0.00    +0.092 A 
ATOM     11  C   UNL     1       8.197  -1.590  24.654  0.00  0.00    +0.214 A 
ENDROOT
BRANCH   1  13
ATOM     12  C   UNL     1       7.621  -4.036  22.395  0.00  0.00    +0.015 A 
ATOM     13  C   UNL     1       6.829  -3.132  23.134  0.00  0.00    +0.025 A 
ATOM     14  C   UNL     1       5.465  -3.473  23.285  0.00  0.00    +0.060 A 
ATOM     15  C   UNL     1       4.941  -4.613  22.669  0.00  0.00    +0.159 A 
ATOM     16  C   UNL     1       5.735  -5.429  21.877  0.00  0.00    +0.158 A 
ATOM     17  C   UNL     1       7.084  -5.160  21.755  0.00  0.00    +0.050 A 
BRANCH  15  18
ATOM     18  O   UNL     1       3.620  -4.917  22.828  0.00  0.00    -0.503 OA
ATOM     19  H   UNL     1       3.212  -4.087  23.149  0.00  0.00    +0.292 HD
ENDBRANCH  15  18
BRANCH  16  20
ATOM     20  O   UNL     1       5.147  -6.473  21.221  0.00  0.00    -0.503 OA
ATOM     21  H   UNL     1       4.210  -6.247  21.079  0.00  0.00    +0.292 HD
ENDBRANCH  16  20
ENDBRANCH   1  13
BRANCH   5  22
ATOM     22  O   UNL     1       9.671   2.544  25.018  0.00  0.00    -0.506 OA
ATOM     23  H   UNL     1      10.545   2.305  24.636  0.00  0.00    +0.292 HD
ENDBRANCH   5  22
BRANCH   7  24
ATOM     24  O   UNL     1       6.614   3.842  21.630  0.00  0.00    -0.507 OA
ATOM     25  H   UNL     1       6.112   4.446  22.196  0.00  0.00    +0.292 HD
ENDBRANCH   7  24
BRANCH  11  26
ATOM     26  O   UNL     1       8.506  -2.593  25.562  0.00  0.00    -0.453 OA
BRANCH  26  27
ATOM     27  C   UNL     1       7.581  -3.642  25.855  0.00  0.00    +0.340 C 
ATOM     28  O   UNL     1       6.832  -3.315  27.058  0.00  0.00    -0.331 OA
ATOM     29  C   UNL     1       6.524  -4.559  27.744  0.00  0.00    +0.184 C 
ATOM     30  C   UNL     1       7.104  -5.700  26.894  0.00  0.00    +0.180 C 
ATOM     31  C   UNL     1       8.250  -4.985  26.197  0.00  0.00    +0.214 C 
BRANCH  30  32
ATOM     32  O   UNL     1       6.158  -6.196  25.950  0.00  0.00    -0.386 OA
ATOM     33  H   UNL     1       6.502  -6.056  25.049  0.00  0.00    +0.210 HD
ENDBRANCH  30  32
BRANCH  31  34
ATOM     34  O   UNL     1       9.358  -4.832  27.097  0.00  0.00    -0.383 OA
ATOM     35  H   UNL     1      10.157  -4.674  26.558  0.00  0.00    +0.210 HD
ENDBRANCH  31  34
BRANCH  29  36
ATOM     36  C   UNL     1       5.037  -4.621  28.135  0.00  0.00    +0.171 C 
BRANCH  36  37
ATOM     37  O   UNL     1       4.555  -5.976  28.132  0.00  0.00    -0.387 OA
ATOM     38  H   UNL     1       5.180  -6.506  27.602  0.00  0.00    +0.210 HD
ENDBRANCH  36  37
BRANCH  36  39
ATOM     39  C   UNL     1       4.078  -3.750  27.309  0.00  0.00    +0.189 C 
BRANCH  39  40
ATOM     40  O   UNL     1       3.907  -4.336  26.012  0.00  0.00    -0.392 OA
ATOM     41  H   UNL     1       3.160  -3.866  25.594  0.00  0.00    +0.210 HD
ENDBRANCH  39  40
ENDBRANCH  36  39
ENDBRANCH  29  36
ENDBRANCH  26  27
ENDBRANCH  11  26
TORSDOF 13
ENDMDL
MODEL 6
REMARK VINA RESULT:      -6.8      3.710      8.319
REMARK  Name = 
REMARK  13 active torsions:
REMARK  status: ('A' for Active; 'I' for Inactive)
REMARK    1  A    between atoms: C_3  and  O_33
REMARK    2  A    between atoms: C_4  and  O_32
REMARK    3  A    between atoms: C_6  and  C_7
REMARK    4  A    between atoms: C_8  and  O_20
REMARK    5  A    between atoms: C_12  and  O_19
REMARK    6  A    between atoms: C_14  and  O_18
REMARK    7  A    between atoms: O_20  and  C_21
REMARK    8  A    between atoms: C_22  and  O_31
REMARK    9  A    between atoms: C_23  and  O_30
REMARK   10  A    between atoms: C_24  and  C_26
REMARK   11  A    between atoms: C_26  and  C_27
REMARK   12  A    between atoms: C_26  and  O_29
REMARK   13  A    between atoms: C_27  and  O_28
REMARK                            x       y       z     vdW  Elec       q    Type
REMARK                         _______ _______ _______ _____ _____    ______ ____
ROOT
ATOM      1  C   UNL     1       7.306  -1.004  24.853  0.00  0.00    +0.181 A 
ATOM      2  O   UNL     1       7.884  -2.197  25.312  0.00  0.00    -0.451 OA
ATOM      3  C   UNL     1       7.139  -3.089  26.035  0.00  0.00    +0.147 A 
ATOM      4  C   UNL     1       5.774  -2.946  26.207  0.00  0.00    +0.109 A 
ATOM      5  C   UNL     1       5.044  -3.913  26.912  0.00  0.00    +0.135 A 
ATOM      6  C   UNL     1       5.684  -5.017  27.464  0.00  0.00    +0.091 A 
ATOM      7  C   UNL     1       7.056  -5.150  27.295  0.00  0.00    +0.124 A 
ATOM      8  C   UNL     1       5.130  -1.769  25.633  0.00  0.00    +0.238 A 
ATOM      9  O   UNL     1       3.900  -1.731  25.627  0.00  0.00    -0.283 OA
ATOM     10  C   UNL     1       7.790  -4.197  26.586  0.00  0.00    +0.092 A 
ATOM     11  C   UNL     1       6.001  -0.687  25.070  0.00  0.00    +0.214 A 
ENDROOT
BRANCH   1  13
ATOM     12  C   UNL     1       9.375   0.494  24.610  0.00  0.00    +0.015 A 
ATOM     13  C   UNL     1       8.289  -0.196  24.031  0.00  0.00    +0.025 A 
ATOM     14  C   UNL     1       8.070   0.026  22.652  0.00  0.00    +0.060 A 
ATOM     15  C   UNL     1       8.858   0.936  21.941  0.00  0.00    +0.159 A 
ATOM     16  C   UNL     1       9.860   1.660  22.569  0.00  0.00    +0.158 A 
ATOM     17  C   UNL     1      10.142   1.426  23.900  0.00  0.00    +0.050 A 
BRANCH  15  18
ATOM     18  O   UNL     1       8.621   1.135  20.611  0.00  0.00    -0.503 OA
ATOM     19  H   UNL     1       9.478   0.944  20.177  0.00  0.00    +0.292 HD
ENDBRANCH  15  18
BRANCH  16  20
ATOM     20  O   UNL     1      10.531   2.605  21.846  0.00  0.00    -0.503 OA
ATOM     21  H   UNL     1      10.880   3.267  22.470  0.00  0.00    +0.292 HD
ENDBRANCH  16  20
ENDBRANCH   1  13
BRANCH   5  22
ATOM     22  O   UNL     1       3.688  -3.841  27.095  0.00  0.00    -0.506 OA
ATOM     23  H   UNL     1       3.396  -4.682  27.514  0.00  0.00    +0.292 HD
ENDBRANCH   5  22
BRANCH   7  24
ATOM     24  O   UNL     1       7.727  -6.224  27.813  0.00  0.00    -0.507 OA
ATOM     25  H   UNL     1       7.895  -6.064  28.752  0.00  0.00    +0.292 HD
ENDBRANCH   7  24
BRANCH  11  26
ATOM     26  O   UNL     1       5.474   0.554  24.741  0.00  0.00    -0.453 OA
BRANCH  26  27
ATOM     27  C   UNL     1       5.486   1.638  25.671  0.00  0.00    +0.340 C 
ATOM     28  O   UNL     1       6.069   1.201  26.929  0.00  0.00    -0.331 OA
ATOM     29  C   UNL     1       5.423   1.938  28.002  0.00  0.00    +0.184 C 
ATOM     30  C   UNL     1       4.407   2.888  27.350  0.00  0.00    +0.180 C 
ATOM     31  C   UNL     1       4.083   2.130  26.073  0.00  0.00    +0.214 C 
BRANCH  30  32
ATOM     32  O   UNL     1       4.977   4.162  27.060  0.00  0.00    -0.386 OA
ATOM     33  H   UNL     1       4.762   4.408  26.141  0.00  0.00    +0.210 HD
ENDBRANCH  30  32
BRANCH  31  34
ATOM     34  O   UNL     1       3.182   1.048  26.355  0.00  0.00    -0.383 OA
ATOM     35  H   UNL     1       3.609   0.222  26.055  0.00  0.00    +0.210 HD
ENDBRANCH  31  34
BRANCH  29  36
ATOM     36  C   UNL     1       6.462   2.532  28.969  0.00  0.00    +0.171 C 
BRANCH  36  37
ATOM     37  O   UNL     1       7.474   3.265  28.259  0.00  0.00    -0.387 OA
ATOM     38  H   UNL     1       8.294   2.737  28.291  0.00  0.00    +0.210 HD
ENDBRANCH  36  37
BRANCH  36  39
ATOM     39  C   UNL     1       7.144   1.543  29.927  0.00  0.00    +0.189 C 
BRANCH  39  40
ATOM     40  O   UNL     1       8.508   1.938  30.121  0.00  0.00    -0.392 OA
ATOM     41  H   UNL     1       8.931   1.913  29.241  0.00  0.00    +0.210 HD
ENDBRANCH  39  40
ENDBRANCH  36  39
ENDBRANCH  29  36
ENDBRANCH  26  27
ENDBRANCH  11  26
TORSDOF 13
ENDMDL
MODEL 7
REMARK VINA RESULT:      -6.7      2.913      7.237
REMARK  Name = 
REMARK  13 active torsions:
REMARK  status: ('A' for Active; 'I' for Inactive)
REMARK    1  A    between atoms: C_3  and  O_33
REMARK    2  A    between atoms: C_4  and  O_32
REMARK    3  A    between atoms: C_6  and  C_7
REMARK    4  A    between atoms: C_8  and  O_20
REMARK    5  A    between atoms: C_12  and  O_19
REMARK    6  A    between atoms: C_14  and  O_18
REMARK    7  A    between atoms: O_20  and  C_21
REMARK    8  A    between atoms: C_22  and  O_31
REMARK    9  A    between atoms: C_23  and  O_30
REMARK   10  A    between atoms: C_24  and  C_26
REMARK   11  A    between atoms: C_26  and  C_27
REMARK   12  A    between atoms: C_26  and  O_29
REMARK   13  A    between atoms: C_27  and  O_28
REMARK                            x       y       z     vdW  Elec       q    Type
REMARK                         _______ _______ _______ _____ _____    ______ ____
ROOT
ATOM      1  C   UNL     1       6.680  -1.936  25.368  0.00  0.00    +0.181 A 
ATOM      2  O   UNL     1       5.547  -2.691  25.034  0.00  0.00    -0.451 OA
ATOM      3  C   UNL     1       5.661  -3.777  24.209  0.00  0.00    +0.147 A 
ATOM      4  C   UNL     1       6.888  -4.274  23.805  0.00  0.00    +0.109 A 
ATOM      5  C   UNL     1       6.958  -5.421  23.002  0.00  0.00    +0.135 A 
ATOM      6  C   UNL     1       5.797  -6.063  22.585  0.00  0.00    +0.091 A 
ATOM      7  C   UNL     1       4.569  -5.554  22.987  0.00  0.00    +0.124 A 
ATOM      8  C   UNL     1       8.090  -3.571  24.242  0.00  0.00    +0.238 A 
ATOM      9  O   UNL     1       9.178  -4.109  24.039  0.00  0.00    -0.283 OA
ATOM     10  C   UNL     1       4.490  -4.418  23.795  0.00  0.00    +0.092 A 
ATOM     11  C   UNL     1       7.929  -2.248  24.927  0.00  0.00    +0.214 A 
ENDROOT
BRANCH   1  13
ATOM     12  C   UNL     1       5.197  -0.001  26.168  0.00  0.00    +0.015 A 
ATOM     13  C   UNL     1       6.334  -0.820  26.332  0.00  0.00    +0.025 A 
ATOM     14  C   UNL     1       7.227  -0.451  27.365  0.00  0.00    +0.060 A 
ATOM     15  C   UNL     1       7.007   0.704  28.121  0.00  0.00    +0.159 A 
ATOM     16  C   UNL     1       5.923   1.530  27.868  0.00  0.00    +0.158 A 
ATOM     17  C   UNL     1       4.998   1.171  26.908  0.00  0.00    +0.050 A 
BRANCH  15  18
ATOM     18  O   UNL     1       7.888   1.039  29.109  0.00  0.00    -0.503 OA
ATOM     19  H   UNL     1       8.539   0.308  29.118  0.00  0.00    +0.292 HD
ENDBRANCH  15  18
BRANCH  16  20
ATOM     20  O   UNL     1       5.814   2.696  28.572  0.00  0.00    -0.503 OA
ATOM     21  H   UNL     1       5.419   3.365  27.984  0.00  0.00    +0.292 HD
ENDBRANCH  16  20
ENDBRANCH   1  13
BRANCH   5  22
ATOM     22  O   UNL     1       8.142  -5.976  22.591  0.00  0.00    -0.506 OA
ATOM     23  H   UNL     1       8.737  -6.024  23.372  0.00  0.00    +0.292 HD
ENDBRANCH   5  22
BRANCH   7  24
ATOM     24  O   UNL     1       3.400  -6.157  22.609  0.00  0.00    -0.507 OA
ATOM     25  H   UNL     1       2.958  -5.597  21.956  0.00  0.00    +0.292 HD
ENDBRANCH   7  24
BRANCH  11  26
ATOM     26  O   UNL     1       9.021  -1.418  25.142  0.00  0.00    -0.453 OA
BRANCH  26  27
ATOM     27  C   UNL     1       9.231  -0.247  24.352  0.00  0.00    +0.340 C 
ATOM     28  O   UNL     1       8.086  -0.025  23.484  0.00  0.00    -0.331 OA
ATOM     29  C   UNL     1       8.566   0.590  22.259  0.00  0.00    +0.184 C 
ATOM     30  C   UNL     1      10.085   0.767  22.406  0.00  0.00    +0.180 C 
ATOM     31  C   UNL     1      10.413  -0.359  23.372  0.00  0.00    +0.214 C 
BRANCH  30  32
ATOM     32  O   UNL     1      10.422   2.036  22.963  0.00  0.00    -0.386 OA
ATOM     33  H   UNL     1       9.788   2.704  22.644  0.00  0.00    +0.210 HD
ENDBRANCH  30  32
BRANCH  31  34
ATOM     34  O   UNL     1      10.432  -1.616  22.679  0.00  0.00    -0.383 OA
ATOM     35  H   UNL     1      11.367  -1.862  22.538  0.00  0.00    +0.210 HD
ENDBRANCH  31  34
BRANCH  29  36
ATOM     36  C   UNL     1       7.719   1.820  21.889  0.00  0.00    +0.171 C 
BRANCH  36  37
ATOM     37  O   UNL     1       8.547   2.901  21.427  0.00  0.00    -0.387 OA
ATOM     38  H   UNL     1       9.420   2.799  21.849  0.00  0.00    +0.210 HD
ENDBRANCH  36  37
BRANCH  36  39
ATOM     39  C   UNL     1       6.772   2.347  22.977  0.00  0.00    +0.189 C 
BRANCH  39  40
ATOM     40  O   UNL     1       5.619   1.499  23.052  0.00  0.00    -0.392 OA
ATOM     41  H   UNL     1       5.952   0.582  23.064  0.00  0.00    +0.210 HD
ENDBRANCH  39  40
ENDBRANCH  36  39
ENDBRANCH  29  36
ENDBRANCH  26  27
ENDBRANCH  11  26
TORSDOF 13
ENDMDL
MODEL 8
REMARK VINA RESULT:      -6.6      3.164      8.474
REMARK  Name = 
REMARK  13 active torsions:
REMARK  status: ('A' for Active; 'I' for Inactive)
REMARK    1  A    between atoms: C_3  and  O_33
REMARK    2  A    between atoms: C_4  and  O_32
REMARK    3  A    between atoms: C_6  and  C_7
REMARK    4  A    between atoms: C_8  and  O_20
REMARK    5  A    between atoms: C_12  and  O_19
REMARK    6  A    between atoms: C_14  and  O_18
REMARK    7  A    between atoms: O_20  and  C_21
REMARK    8  A    between atoms: C_22  and  O_31
REMARK    9  A    between atoms: C_23  and  O_30
REMARK   10  A    between atoms: C_24  and  C_26
REMARK   11  A    between atoms: C_26  and  C_27
REMARK   12  A    between atoms: C_26  and  O_29
REMARK   13  A    between atoms: C_27  and  O_28
REMARK                            x       y       z     vdW  Elec       q    Type
REMARK                         _______ _______ _______ _____ _____    ______ ____
ROOT
ATOM      1  C   UNL     1       8.067  -1.493  24.354  0.00  0.00    +0.181 A 
ATOM      2  O   UNL     1       7.925  -2.479  23.367  0.00  0.00    -0.451 OA
ATOM      3  C   UNL     1       7.139  -3.575  23.596  0.00  0.00    +0.147 A 
ATOM      4  C   UNL     1       6.333  -3.687  24.716  0.00  0.00    +0.109 A 
ATOM      5  C   UNL     1       5.503  -4.806  24.882  0.00  0.00    +0.135 A 
ATOM      6  C   UNL     1       5.494  -5.825  23.936  0.00  0.00    +0.091 A 
ATOM      7  C   UNL     1       6.312  -5.710  22.820  0.00  0.00    +0.124 A 
ATOM      8  C   UNL     1       6.375  -2.612  25.701  0.00  0.00    +0.238 A 
ATOM      9  O   UNL     1       5.533  -2.620  26.599  0.00  0.00    -0.283 OA
ATOM     10  C   UNL     1       7.134  -4.595  22.640  0.00  0.00    +0.092 A 
ATOM     11  C   UNL     1       7.426  -1.554  25.553  0.00  0.00    +0.214 A 
ENDROOT
BRANCH   1  13
ATOM     12  C   UNL     1      10.138   0.014  24.508  0.00  0.00    +0.015 A 
ATOM     13  C   UNL     1       8.933  -0.349  23.870  0.00  0.00    +0.025 A 
ATOM     14  C   UNL     1       8.489   0.509  22.837  0.00  0.00    +0.060 A 
ATOM     15  C   UNL     1       9.187   1.680  22.531  0.00  0.00    +0.159 A 
ATOM     16  C   UNL     1      10.320   2.046  23.243  0.00  0.00    +0.158 A 
ATOM     17  C   UNL     1      10.817   1.204  24.218  0.00  0.00    +0.050 A 
BRANCH  15  18
ATOM     18  O   UNL     1       8.734   2.493  21.532  0.00  0.00    -0.503 OA
ATOM     19  H   UNL     1       8.967   3.398  21.825  0.00  0.00    +0.292 HD
ENDBRANCH  15  18
BRANCH  16  20
ATOM     20  O   UNL     1      10.904   3.250  22.965  0.00  0.00    -0.503 OA
ATOM     21  H   UNL     1      11.081   3.699  23.812  0.00  0.00    +0.292 HD
ENDBRANCH  16  20
ENDBRANCH   1  13
BRANCH   5  22
ATOM     22  O   UNL     1       4.665  -4.962  25.955  0.00  0.00    -0.506 OA
ATOM     23  H   UNL     1       4.602  -4.095  26.415  0.00  0.00    +0.292 HD
ENDBRANCH   5  22
BRANCH   7  24
ATOM     24  O   UNL     1       6.330  -6.683  21.858  0.00  0.00    -0.507 OA
ATOM     25  H   UNL     1       7.041  -7.308  22.060  0.00  0.00    +0.292 HD
ENDBRANCH   7  24
BRANCH  11  26
ATOM     26  O   UNL     1       7.682  -0.654  26.578  0.00  0.00    -0.453 OA
BRANCH  26  27
ATOM     27  C   UNL     1       6.846   0.484  26.795  0.00  0.00    +0.340 C 
ATOM     28  O   UNL     1       7.389   1.635  26.093  0.00  0.00    -0.331 OA
ATOM     29  C   UNL     1       7.065   2.823  26.865  0.00  0.00    +0.184 C 
ATOM     30  C   UNL     1       6.264   2.361  28.092  0.00  0.00    +0.180 C 
ATOM     31  C   UNL     1       6.791   0.946  28.263  0.00  0.00    +0.214 C 
BRANCH  30  32
ATOM     32  O   UNL     1       4.860   2.360  27.843  0.00  0.00    -0.386 OA
ATOM     33  H   UNL     1       4.449   3.104  28.321  0.00  0.00    +0.210 HD
ENDBRANCH  30  32
BRANCH  31  34
ATOM     34  O   UNL     1       8.088   0.972  28.878  0.00  0.00    -0.383 OA
ATOM     35  H   UNL     1       8.711   0.526  28.273  0.00  0.00    +0.210 HD
ENDBRANCH  31  34
BRANCH  29  36
ATOM     36  C   UNL     1       6.462   3.918  25.968  0.00  0.00    +0.171 C 
BRANCH  36  37
ATOM     37  O   UNL     1       5.262   3.459  25.323  0.00  0.00    -0.387 OA
ATOM     38  H   UNL     1       5.277   2.484  25.341  0.00  0.00    +0.210 HD
ENDBRANCH  36  37
BRANCH  36  39
ATOM     39  C   UNL     1       7.396   4.523  24.909  0.00  0.00    +0.189 C 
BRANCH  39  40
ATOM     40  O   UNL     1       8.742   4.108  25.174  0.00  0.00    -0.392 OA
ATOM     41  H   UNL     1       9.284   4.443  24.434  0.00  0.00    +0.210 HD
ENDBRANCH  39  40
ENDBRANCH  36  39
ENDBRANCH  29  36
ENDBRANCH  26  27
ENDBRANCH  11  26
TORSDOF 13
ENDMDL
MODEL 9
REMARK VINA RESULT:      -6.6      3.462      8.356
REMARK  Name = 
REMARK  13 active torsions:
REMARK  status: ('A' for Active; 'I' for Inactive)
REMARK    1  A    between atoms: C_3  and  O_33
REMARK    2  A    between atoms: C_4  and  O_32
REMARK    3  A    between atoms: C_6  and  C_7
REMARK    4  A    between atoms: C_8  and  O_20
REMARK    5  A    between atoms: C_12  and  O_19
REMARK    6  A    between atoms: C_14  and  O_18
REMARK    7  A    between atoms: O_20  and  C_21
REMARK    8  A    between atoms: C_22  and  O_31
REMARK    9  A    between atoms: C_23  and  O_30
REMARK   10  A    between atoms: C_24  and  C_26
REMARK   11  A    between atoms: C_26  and  C_27
REMARK   12  A    between atoms: C_26  and  O_29
REMARK   13  A    between atoms: C_27  and  O_28
REMARK                            x       y       z     vdW  Elec       q    Type
REMARK                         _______ _______ _______ _____ _____    ______ ____
ROOT
ATOM      1  C   UNL     1       7.549  -1.472  23.997  0.00  0.00    +0.181 A 
ATOM      2  O   UNL     1       7.569  -2.480  23.022  0.00  0.00    -0.451 OA
ATOM      3  C   UNL     1       6.590  -3.436  23.000  0.00  0.00    +0.147 A 
ATOM      4  C   UNL     1       5.471  -3.369  23.811  0.00  0.00    +0.109 A 
ATOM      5  C   UNL     1       4.469  -4.345  23.716  0.00  0.00    +0.135 A 
ATOM      6  C   UNL     1       4.595  -5.403  22.822  0.00  0.00    +0.091 A 
ATOM      7  C   UNL     1       5.725  -5.469  22.018  0.00  0.00    +0.124 A 
ATOM      8  C   UNL     1       5.372  -2.259  24.752  0.00  0.00    +0.238 A 
ATOM      9  O   UNL     1       4.303  -2.096  25.341  0.00  0.00    -0.283 OA
ATOM     10  C   UNL     1       6.724  -4.496  22.098  0.00  0.00    +0.092 A 
ATOM     11  C   UNL     1       6.567  -1.373  24.934  0.00  0.00    +0.214 A 
ENDROOT
BRANCH   1  13
ATOM     12  C   UNL     1       9.707  -0.313  24.760  0.00  0.00    +0.015 A 
ATOM     13  C   UNL     1       8.688  -0.493  23.801  0.00  0.00    +0.025 A 
ATOM     14  C   UNL     1       8.695   0.400  22.704  0.00  0.00    +0.060 A 
ATOM     15  C   UNL     1       9.629   1.437  22.633  0.00  0.00    +0.159 A 
ATOM     16  C   UNL     1      10.560   1.633  23.642  0.00  0.00    +0.158 A 
ATOM     17  C   UNL     1      10.622   0.746  24.698  0.00  0.00    +0.050 A 
BRANCH  15  18
ATOM     18  O   UNL     1       9.611   2.288  21.566  0.00  0.00    -0.503 OA
ATOM     19  H   UNL     1      10.102   1.814  20.863  0.00  0.00    +0.292 HD
ENDBRANCH  15  18
BRANCH  16  20
ATOM     20  O   UNL     1      11.384   2.721  23.567  0.00  0.00    -0.503 OA
ATOM     21  H   UNL     1      10.856   3.474  23.243  0.00  0.00    +0.292 HD
ENDBRANCH  16  20
ENDBRANCH   1  13
BRANCH   5  22
ATOM     22  O   UNL     1       3.326  -4.320  24.473  0.00  0.00    -0.506 OA
ATOM     23  H   UNL     1       3.440  -4.961  25.210  0.00  0.00    +0.292 HD
ENDBRANCH   5  22
BRANCH   7  24
ATOM     24  O   UNL     1       5.889  -6.486  21.118  0.00  0.00    -0.507 OA
ATOM     25  H   UNL     1       5.464  -6.235  20.285  0.00  0.00    +0.292 HD
ENDBRANCH   7  24
BRANCH  11  26
ATOM     26  O   UNL     1       6.629  -0.465  25.981  0.00  0.00    -0.453 OA
BRANCH  26  27
ATOM     27  C   UNL     1       6.462   0.937  25.762  0.00  0.00    +0.340 C 
ATOM     28  O   UNL     1       6.651   1.657  27.010  0.00  0.00    -0.331 OA
ATOM     29  C   UNL     1       5.790   2.828  26.986  0.00  0.00    +0.184 C 
ATOM     30  C   UNL     1       5.057   2.822  25.636  0.00  0.00    +0.180 C 
ATOM     31  C   UNL     1       5.041   1.334  25.324  0.00  0.00    +0.214 C 
BRANCH  30  32
ATOM     32  O   UNL     1       5.770   3.548  24.638  0.00  0.00    -0.386 OA
ATOM     33  H   UNL     1       5.907   2.974  23.861  0.00  0.00    +0.210 HD
ENDBRANCH  30  32
BRANCH  31  34
ATOM     34  O   UNL     1       4.026   0.677  26.098  0.00  0.00    -0.383 OA
ATOM     35  H   UNL     1       3.659   1.333  26.723  0.00  0.00    +0.210 HD
ENDBRANCH  31  34
BRANCH  29  36
ATOM     36  C   UNL     1       6.566   4.093  27.390  0.00  0.00    +0.171 C 
BRANCH  36  37
ATOM     37  O   UNL     1       7.790   4.213  26.646  0.00  0.00    -0.387 OA
ATOM     38  H   UNL     1       7.598   4.751  25.855  0.00  0.00    +0.210 HD
ENDBRANCH  36  37
BRANCH  36  39
ATOM     39  C   UNL     1       6.876   4.253  28.886  0.00  0.00    +0.189 C 
BRANCH  39  40
ATOM     40  O   UNL     1       7.629   3.120  29.336  0.00  0.00    -0.392 OA
ATOM     41  H   UNL     1       7.959   2.672  28.534  0.00  0.00    +0.210 HD
ENDBRANCH  39  40
ENDBRANCH  36  39
ENDBRANCH  29  36
ENDBRANCH  26  27
ENDBRANCH  11  26
TORSDOF 13
ENDMDL
