MODEL 1
REMARK VINA RESULT:      -7.0      0.000      0.000
REMARK  Name = 
REMARK  21 active torsions:
REMARK  status: ('A' for Active; 'I' for Inactive)
REMARK    1  A    between atoms: C_3  and  O_66
REMARK    2  A    between atoms: C_4  and  O_65
REMARK    3  A    between atoms: C_6  and  C_7
REMARK    4  A    between atoms: C_8  and  C_9
REMARK    5  A    between atoms: C_9  and  O_11
REMARK    6  A    between atoms: O_11  and  C_12
REMARK    7  A    between atoms: C_12  and  C_13
REMARK    8  A    between atoms: C_15  and  O_64
REMARK    9  A    between atoms: C_17  and  O_63
REMARK   10  A    between atoms: C_19  and  O_62
REMARK   11  A    between atoms: C_21  and  O_24
REMARK   12  A    between atoms: O_24  and  C_25
REMARK   13  A    between atoms: C_27  and  O_61
REMARK   14  A    between atoms: C_29  and  O_60
REMARK   15  A    between atoms: C_31  and  C_58
REMARK   16  A    between atoms: C_34  and  O_36
REMARK   17  A    between atoms: O_36  and  C_37
REMARK   18  A    between atoms: C_38  and  C_50
REMARK   19  A    between atoms: C_42  and  O_49
REMARK   20  A    between atoms: C_52  and  O_57
REMARK   21  A    between atoms: C_58  and  O_59
REMARK                            x       y       z     vdW  Elec       q    Type
REMARK                         _______ _______ _______ _____ _____    ______ ____
ROOT
ATOM      1  C   UNL     1       4.966  -1.183  26.008  0.00  0.00    +0.221 C 
ATOM      2  C   UNL     1       5.545   0.223  25.590  0.00  0.00    +0.340 C 
ATOM      3  O   UNL     1       6.601   0.538  26.533  0.00  0.00    -0.331 OA
ATOM      4  C   UNL     1       6.060   0.960  27.789  0.00  0.00    +0.179 C 
ATOM      5  C   UNL     1       5.601  -0.327  28.454  0.00  0.00    +0.177 C 
ATOM      6  C   UNL     1       4.614  -1.114  27.537  0.00  0.00    +0.180 C 
ENDROOT
BRANCH   6   7
ATOM      7  O   UNL     1       4.531  -2.435  28.119  0.00  0.00    -0.386 OA
ATOM      8  H   UNL     1       5.442  -2.709  28.315  0.00  0.00    +0.210 HD
ENDBRANCH   6   7
BRANCH   5   9
ATOM      9  O   UNL     1       4.941  -0.046  29.701  0.00  0.00    -0.386 OA
ATOM     10  H   UNL     1       5.346  -0.647  30.348  0.00  0.00    +0.210 HD
ENDBRANCH   5   9
BRANCH   4  11
ATOM     11  C   UNL     1       7.045   1.791  28.650  0.00  0.00    +0.190 C 
BRANCH  11  12
ATOM     12  O   UNL     1       8.157   1.039  29.145  0.00  0.00    -0.392 OA
ATOM     13  H   UNL     1       8.465   0.541  28.364  0.00  0.00    +0.210 HD
ENDBRANCH  11  12
ENDBRANCH   4  11
BRANCH   2  14
ATOM     14  O   UNL     1       6.084   0.246  24.257  0.00  0.00    -0.453 OA
BRANCH  14  15
ATOM     15  C   UNL     1       6.693   1.457  23.901  0.00  0.00    +0.214 A 
ATOM     16  C   UNL     1       8.104   1.490  23.366  0.00  0.00    +0.234 A 
ATOM     17  O   UNL     1       8.506   0.627  22.596  0.00  0.00    -0.283 OA
ATOM     18  C   UNL     1       8.892   2.706  23.640  0.00  0.00    +0.060 A 
ATOM     19  C   UNL     1       8.119   3.872  23.729  0.00  0.00    +0.142 A 
ATOM     20  C   UNL     1       8.746   5.112  23.801  0.00  0.00    +0.092 A 
ATOM     21  C   UNL     1      10.138   5.167  23.770  0.00  0.00    +0.120 A 
ATOM     22  C   UNL     1      10.896   3.999  23.715  0.00  0.00    +0.038 A 
ATOM     23  O   UNL     1       6.735   3.858  23.666  0.00  0.00    -0.451 OA
ATOM     24  C   UNL     1      10.324   2.710  23.694  0.00  0.00    -0.090 A 
ATOM     25  O   UNL     1      11.075   1.678  23.735  0.00  0.00    -0.873 OA
ATOM     26  C   UNL     1       6.042   2.647  23.860  0.00  0.00    +0.181 A 
BRANCH  26  27
ATOM     27  C   UNL     1       4.540   2.825  23.956  0.00  0.00    +0.024 A 
ATOM     28  C   UNL     1       3.885   2.931  25.198  0.00  0.00    +0.011 A 
ATOM     29  C   UNL     1       2.506   3.264  25.326  0.00  0.00    -0.004 A 
ATOM     30  C   UNL     1       1.687   3.522  24.224  0.00  0.00    -0.066 A 
ATOM     31  O   UNL     1       0.443   3.875  24.336  0.00  0.00    -0.871 OA
ATOM     32  C   UNL     1       2.348   3.335  22.995  0.00  0.00    +0.110 A 
ATOM     33  C   UNL     1       3.699   3.015  22.861  0.00  0.00    +0.056 A 
BRANCH  32  34
ATOM     34  O   UNL     1       1.706   3.580  21.791  0.00  0.00    -0.507 OA
ATOM     35  H   UNL     1       2.351   3.242  21.148  0.00  0.00    +0.292 HD
ENDBRANCH  32  34
ENDBRANCH  26  27
BRANCH  21  36
ATOM     36  O   UNL     1      10.815   6.353  23.789  0.00  0.00    -0.507 OA
ATOM     37  H   UNL     1      10.270   6.994  24.270  0.00  0.00    +0.292 HD
ENDBRANCH  21  36
ENDBRANCH  14  15
ENDBRANCH   2  14
BRANCH   1  38
ATOM     38  O   UNL     1       3.932  -1.883  25.224  0.00  0.00    -0.337 OA
BRANCH  38  41
ATOM     39  C   UNL     1       4.115  -5.510  25.602  0.00  0.00    +0.190 C 
ATOM     40  O   UNL     1       4.191  -4.118  25.945  0.00  0.00    -0.339 OA
ATOM     41  C   UNL     1       4.009  -3.259  24.810  0.00  0.00    +0.282 C 
ATOM     42  C   UNL     1       5.277  -3.561  23.883  0.00  0.00    +0.201 C 
ATOM     43  C   UNL     1       5.207  -5.029  23.372  0.00  0.00    +0.179 C 
ATOM     44  C   UNL     1       5.152  -5.989  24.558  0.00  0.00    +0.178 C 
BRANCH  44  45
ATOM     45  O   UNL     1       4.818  -7.307  24.080  0.00  0.00    -0.386 OA
ATOM     46  H   UNL     1       5.563  -7.615  23.532  0.00  0.00    +0.210 HD
ENDBRANCH  44  45
BRANCH  43  47
ATOM     47  O   UNL     1       6.358  -5.371  22.567  0.00  0.00    -0.386 OA
ATOM     48  H   UNL     1       6.095  -5.268  21.633  0.00  0.00    +0.210 HD
ENDBRANCH  43  47
BRANCH  42  49
ATOM     49  O   UNL     1       5.436  -2.648  22.798  0.00  0.00    -0.384 OA
ATOM     50  H   UNL     1       4.659  -2.066  22.734  0.00  0.00    +0.210 HD
ENDBRANCH  42  49
BRANCH  39  51
ATOM     51  C   UNL     1       4.310  -6.314  26.903  0.00  0.00    +0.266 C 
BRANCH  51  52
ATOM     52  O   UNL     1       5.672  -6.718  27.061  0.00  0.00    -0.459 OA
BRANCH  52  53
ATOM     53  C   UNL     1       6.295  -6.029  28.048  0.00  0.00    +0.332 C 
ATOM     54  O   UNL     1       6.406  -6.378  29.211  0.00  0.00    -0.246 OA
BRANCH  53  56
ATOM     55  C   UNL     1       7.654  -4.901  26.429  0.00  0.00    +0.015 C 
ATOM     56  C   UNL     1       6.838  -4.790  27.485  0.00  0.00    +0.092 C 
BRANCH  55  58
ATOM     57  C   UNL     1       9.037  -4.027  24.593  0.00  0.00    +0.012 A 
ATOM     58  C   UNL     1       8.335  -3.779  25.782  0.00  0.00    -0.021 A 
ATOM     59  C   UNL     1       8.382  -2.505  26.360  0.00  0.00    +0.057 A 
ATOM     60  C   UNL     1       9.125  -1.505  25.749  0.00  0.00    +0.159 A 
ATOM     61  C   UNL     1       9.818  -1.757  24.569  0.00  0.00    +0.158 A 
ATOM     62  C   UNL     1       9.784  -3.017  23.985  0.00  0.00    +0.050 A 
BRANCH  61  63
ATOM     63  O   UNL     1      10.556  -0.735  24.037  0.00  0.00    -0.503 OA
ATOM     64  H   UNL     1       9.979   0.049  23.998  0.00  0.00    +0.292 HD
ENDBRANCH  61  63
BRANCH  60  65
ATOM     65  O   UNL     1       9.178  -0.270  26.328  0.00  0.00    -0.503 OA
ATOM     66  H   UNL     1       8.239  -0.035  26.468  0.00  0.00    +0.292 HD
ENDBRANCH  60  65
ENDBRANCH  55  58
ENDBRANCH  53  56
ENDBRANCH  52  53
ENDBRANCH  51  52
ENDBRANCH  39  51
ENDBRANCH  38  41
ENDBRANCH   1  38
TORSDOF 21
ENDMDL
MODEL 2
REMARK VINA RESULT:      -7.0      2.168      5.837
REMARK  Name = 
REMARK  21 active torsions:
REMARK  status: ('A' for Active; 'I' for Inactive)
REMARK    1  A    between atoms: C_3  and  O_66
REMARK    2  A    between atoms: C_4  and  O_65
REMARK    3  A    between atoms: C_6  and  C_7
REMARK    4  A    between atoms: C_8  and  C_9
REMARK    5  A    between atoms: C_9  and  O_11
REMARK    6  A    between atoms: O_11  and  C_12
REMARK    7  A    between atoms: C_12  and  C_13
REMARK    8  A    between atoms: C_15  and  O_64
REMARK    9  A    between atoms: C_17  and  O_63
REMARK   10  A    between atoms: C_19  and  O_62
REMARK   11  A    between atoms: C_21  and  O_24
REMARK   12  A    between atoms: O_24  and  C_25
REMARK   13  A    between atoms: C_27  and  O_61
REMARK   14  A    between atoms: C_29  and  O_60
REMARK   15  A    between atoms: C_31  and  C_58
REMARK   16  A    between atoms: C_34  and  O_36
REMARK   17  A    between atoms: O_36  and  C_37
REMARK   18  A    between atoms: C_38  and  C_50
REMARK   19  A    between atoms: C_42  and  O_49
REMARK   20  A    between atoms: C_52  and  O_57
REMARK   21  A    between atoms: C_58  and  O_59
REMARK                            x       y       z     vdW  Elec       q    Type
REMARK                         _______ _______ _______ _____ _____    ______ ____
ROOT
ATOM      1  C   UNL     1       3.624  -2.813  28.205  0.00  0.00    +0.221 C 
ATOM      2  C   UNL     1       4.521  -1.696  27.545  0.00  0.00    +0.340 C 
ATOM      3  O   UNL     1       3.905  -0.423  27.864  0.00  0.00    -0.331 OA
ATOM      4  C   UNL     1       2.747  -0.193  27.054  0.00  0.00    +0.179 C 
ATOM      5  C   UNL     1       1.673  -1.073  27.671  0.00  0.00    +0.177 C 
ATOM      6  C   UNL     1       2.142  -2.560  27.753  0.00  0.00    +0.180 C 
ENDROOT
BRANCH   6   7
ATOM      7  O   UNL     1       1.202  -3.202  28.644  0.00  0.00    -0.386 OA
ATOM      8  H   UNL     1       1.623  -3.229  29.518  0.00  0.00    +0.210 HD
ENDBRANCH   6   7
BRANCH   5   9
ATOM      9  O   UNL     1       0.464  -1.017  26.894  0.00  0.00    -0.386 OA
ATOM     10  H   UNL     1       0.376  -0.089  26.621  0.00  0.00    +0.210 HD
ENDBRANCH   5   9
BRANCH   4  11
ATOM     11  C   UNL     1       2.344   1.300  26.943  0.00  0.00    +0.190 C 
BRANCH  11  12
ATOM     12  O   UNL     1       1.272   1.543  26.027  0.00  0.00    -0.392 OA
ATOM     13  H   UNL     1       1.662   1.340  25.156  0.00  0.00    +0.210 HD
ENDBRANCH  11  12
ENDBRANCH   4  11
BRANCH   2  14
ATOM     14  O   UNL     1       5.877  -1.694  28.022  0.00  0.00    -0.453 OA
BRANCH  14  15
ATOM     15  C   UNL     1       6.669  -0.661  27.507  0.00  0.00    +0.214 A 
ATOM     16  C   UNL     1       6.658   0.714  28.132  0.00  0.00    +0.234 A 
ATOM     17  O   UNL     1       6.606   0.852  29.347  0.00  0.00    -0.283 OA
ATOM     18  C   UNL     1       6.928   1.855  27.238  0.00  0.00    +0.060 A 
ATOM     19  C   UNL     1       7.783   1.546  26.170  0.00  0.00    +0.142 A 
ATOM     20  C   UNL     1       8.266   2.566  25.356  0.00  0.00    +0.092 A 
ATOM     21  C   UNL     1       7.897   3.881  25.631  0.00  0.00    +0.120 A 
ATOM     22  C   UNL     1       7.020   4.172  26.674  0.00  0.00    +0.038 A 
ATOM     23  O   UNL     1       8.244   0.263  25.928  0.00  0.00    -0.451 OA
ATOM     24  C   UNL     1       6.452   3.180  27.502  0.00  0.00    -0.090 A 
ATOM     25  O   UNL     1       5.585   3.503  28.382  0.00  0.00    -0.873 OA
ATOM     26  C   UNL     1       7.598  -0.834  26.532  0.00  0.00    +0.181 A 
BRANCH  26  27
ATOM     27  C   UNL     1       8.090  -2.174  26.024  0.00  0.00    +0.024 A 
ATOM     28  C   UNL     1       9.053  -2.269  25.000  0.00  0.00    +0.011 A 
ATOM     29  C   UNL     1       9.660  -3.497  24.612  0.00  0.00    -0.004 A 
ATOM     30  C   UNL     1       9.354  -4.715  25.224  0.00  0.00    -0.066 A 
ATOM     31  O   UNL     1       9.940  -5.830  24.909  0.00  0.00    -0.871 OA
ATOM     32  C   UNL     1       8.336  -4.604  26.190  0.00  0.00    +0.110 A 
ATOM     33  C   UNL     1       7.741  -3.404  26.580  0.00  0.00    +0.056 A 
BRANCH  32  34
ATOM     34  O   UNL     1       7.923  -5.701  26.927  0.00  0.00    -0.507 OA
ATOM     35  H   UNL     1       6.956  -5.610  26.899  0.00  0.00    +0.292 HD
ENDBRANCH  32  34
ENDBRANCH  26  27
BRANCH  21  36
ATOM     36  O   UNL     1       8.373   4.933  24.902  0.00  0.00    -0.507 OA
ATOM     37  H   UNL     1       9.302   5.064  25.148  0.00  0.00    +0.292 HD
ENDBRANCH  21  36
ENDBRANCH  14  15
ENDBRANCH   2  14
BRANCH   1  38
ATOM     38  O   UNL     1       3.984  -4.243  28.175  0.00  0.00    -0.337 OA
BRANCH  38  41
ATOM     39  C   UNL     1       4.747  -4.767  24.643  0.00  0.00    +0.190 C 
ATOM     40  O   UNL     1       4.195  -4.164  25.823  0.00  0.00    -0.339 OA
ATOM     41  C   UNL     1       4.409  -4.957  27.000  0.00  0.00    +0.282 C 
ATOM     42  C   UNL     1       3.557  -6.285  26.737  0.00  0.00    +0.201 C 
ATOM     43  C   UNL     1       4.167  -7.062  25.535  0.00  0.00    +0.179 C 
ATOM     44  C   UNL     1       4.189  -6.168  24.297  0.00  0.00    +0.178 C 
BRANCH  44  45
ATOM     45  O   UNL     1       4.992  -6.797  23.279  0.00  0.00    -0.386 OA
ATOM     46  H   UNL     1       4.429  -7.450  22.824  0.00  0.00    +0.210 HD
ENDBRANCH  44  45
BRANCH  43  47
ATOM     47  O   UNL     1       3.404  -8.250  25.221  0.00  0.00    -0.386 OA
ATOM     48  H   UNL     1       3.280  -8.739  26.057  0.00  0.00    +0.210 HD
ENDBRANCH  43  47
BRANCH  42  49
ATOM     49  O   UNL     1       3.427  -7.129  27.879  0.00  0.00    -0.384 OA
ATOM     50  H   UNL     1       4.152  -7.777  27.902  0.00  0.00    +0.210 HD
ENDBRANCH  42  49
BRANCH  39  51
ATOM     51  C   UNL     1       4.464  -3.814  23.465  0.00  0.00    +0.266 C 
BRANCH  51  52
ATOM     52  O   UNL     1       5.139  -4.243  22.280  0.00  0.00    -0.459 OA
BRANCH  52  53
ATOM     53  C   UNL     1       6.421  -3.806  22.237  0.00  0.00    +0.332 C 
ATOM     54  O   UNL     1       7.420  -4.506  22.221  0.00  0.00    -0.246 OA
BRANCH  53  56
ATOM     55  C   UNL     1       7.604  -1.723  22.229  0.00  0.00    +0.015 C 
ATOM     56  C   UNL     1       6.417  -2.342  22.196  0.00  0.00    +0.092 C 
BRANCH  55  58
ATOM     57  C   UNL     1       6.673   0.529  22.562  0.00  0.00    +0.012 A 
ATOM     58  C   UNL     1       7.785  -0.272  22.261  0.00  0.00    -0.021 A 
ATOM     59  C   UNL     1       8.998   0.334  21.913  0.00  0.00    +0.057 A 
ATOM     60  C   UNL     1       9.082   1.718  21.866  0.00  0.00    +0.159 A 
ATOM     61  C   UNL     1       7.975   2.506  22.167  0.00  0.00    +0.158 A 
ATOM     62  C   UNL     1       6.764   1.920  22.512  0.00  0.00    +0.050 A 
BRANCH  61  63
ATOM     63  O   UNL     1       8.119   3.864  22.073  0.00  0.00    -0.503 OA
ATOM     64  H   UNL     1       8.496   4.175  22.915  0.00  0.00    +0.292 HD
ENDBRANCH  61  63
BRANCH  60  65
ATOM     65  O   UNL     1      10.264   2.300  21.510  0.00  0.00    -0.503 OA
ATOM     66  H   UNL     1      10.018   3.224  21.301  0.00  0.00    +0.292 HD
ENDBRANCH  60  65
ENDBRANCH  55  58
ENDBRANCH  53  56
ENDBRANCH  52  53
ENDBRANCH  51  52
ENDBRANCH  39  51
ENDBRANCH  38  41
ENDBRANCH   1  38
TORSDOF 21
ENDMDL
MODEL 3
REMARK VINA RESULT:      -6.6      1.973      7.402
REMARK  Name = 
REMARK  21 active torsions:
REMARK  status: ('A' for Active; 'I' for Inactive)
REMARK    1  A    between atoms: C_3  and  O_66
REMARK    2  A    between atoms: C_4  and  O_65
REMARK    3  A    between atoms: C_6  and  C_7
REMARK    4  A    between atoms: C_8  and  C_9
REMARK    5  A    between atoms: C_9  and  O_11
REMARK    6  A    between atoms: O_11  and  C_12
REMARK    7  A    between atoms: C_12  and  C_13
REMARK    8  A    between atoms: C_15  and  O_64
REMARK    9  A    between atoms: C_17  and  O_63
REMARK   10  A    between atoms: C_19  and  O_62
REMARK   11  A    between atoms: C_21  and  O_24
REMARK   12  A    between atoms: O_24  and  C_25
REMARK   13  A    between atoms: C_27  and  O_61
REMARK   14  A    between atoms: C_29  and  O_60
REMARK   15  A    between atoms: C_31  and  C_58
REMARK   16  A    between atoms: C_34  and  O_36
REMARK   17  A    between atoms: O_36  and  C_37
REMARK   18  A    between atoms: C_38  and  C_50
REMARK   19  A    between atoms: C_42  and  O_49
REMARK   20  A    between atoms: C_52  and  O_57
REMARK   21  A    between atoms: C_58  and  O_59
REMARK                            x       y       z     vdW  Elec       q    Type
REMARK                         _______ _______ _______ _____ _____    ______ ____
ROOT
ATOM      1  C   UNL     1       6.179   4.784  24.501  0.00  0.00    +0.221 C 
ATOM      2  C   UNL     1       6.336   3.734  23.335  0.00  0.00    +0.340 C 
ATOM      3  O   UNL     1       5.272   4.000  22.387  0.00  0.00    -0.331 OA
ATOM      4  C   UNL     1       4.017   3.510  22.871  0.00  0.00    +0.179 C 
ATOM      5  C   UNL     1       3.590   4.529  23.914  0.00  0.00    +0.177 C 
ATOM      6  C   UNL     1       4.693   4.718  25.002  0.00  0.00    +0.180 C 
ENDROOT
BRANCH   6   7
ATOM      7  O   UNL     1       4.321   5.923  25.709  0.00  0.00    -0.386 OA
ATOM      8  H   UNL     1       3.475   6.216  25.333  0.00  0.00    +0.210 HD
ENDBRANCH   6   7
BRANCH   5   9
ATOM      9  O   UNL     1       2.375   4.113  24.563  0.00  0.00    -0.386 OA
ATOM     10  H   UNL     1       2.461   4.408  25.484  0.00  0.00    +0.210 HD
ENDBRANCH   5   9
BRANCH   4  11
ATOM     11  C   UNL     1       2.963   3.275  21.759  0.00  0.00    +0.190 C 
BRANCH  11  12
ATOM     12  O   UNL     1       1.928   2.358  22.128  0.00  0.00    -0.392 OA
ATOM     13  H   UNL     1       1.261   2.925  22.559  0.00  0.00    +0.210 HD
ENDBRANCH  11  12
ENDBRANCH   4  11
BRANCH   2  14
ATOM     14  O   UNL     1       7.600   3.817  22.656  0.00  0.00    -0.453 OA
BRANCH  14  15
ATOM     15  C   UNL     1       8.386   2.661  22.753  0.00  0.00    +0.214 A 
ATOM     16  C   UNL     1       7.919   1.352  22.164  0.00  0.00    +0.234 A 
ATOM     17  O   UNL     1       7.333   1.318  21.089  0.00  0.00    -0.283 OA
ATOM     18  C   UNL     1       8.384   0.120  22.827  0.00  0.00    +0.060 A 
ATOM     19  C   UNL     1       9.646   0.241  23.424  0.00  0.00    +0.142 A 
ATOM     20  C   UNL     1      10.285  -0.890  23.925  0.00  0.00    +0.092 A 
ATOM     21  C   UNL     1       9.656  -2.127  23.807  0.00  0.00    +0.120 A 
ATOM     22  C   UNL     1       8.386  -2.230  23.243  0.00  0.00    +0.038 A 
ATOM     23  O   UNL     1      10.340   1.440  23.470  0.00  0.00    -0.451 OA
ATOM     24  C   UNL     1       7.663  -1.117  22.766  0.00  0.00    -0.090 A 
ATOM     25  O   UNL     1       6.467  -1.266  22.342  0.00  0.00    -0.873 OA
ATOM     26  C   UNL     1       9.656   2.648  23.231  0.00  0.00    +0.181 A 
BRANCH  26  27
ATOM     27  C   UNL     1      10.498   3.877  23.506  0.00  0.00    +0.024 A 
ATOM     28  C   UNL     1      10.006   4.957  24.264  0.00  0.00    +0.011 A 
ATOM     29  C   UNL     1      10.817   6.050  24.684  0.00  0.00    -0.004 A 
ATOM     30  C   UNL     1      12.178   6.137  24.382  0.00  0.00    -0.066 A 
ATOM     31  O   UNL     1      12.935   7.105  24.804  0.00  0.00    -0.871 OA
ATOM     32  C   UNL     1      12.627   5.085  23.561  0.00  0.00    +0.110 A 
ATOM     33  C   UNL     1      11.840   4.008  23.152  0.00  0.00    +0.056 A 
BRANCH  32  34
ATOM     34  O   UNL     1      13.957   4.983  23.188  0.00  0.00    -0.507 OA
ATOM     35  H   UNL     1      14.408   4.991  24.049  0.00  0.00    +0.292 HD
ENDBRANCH  32  34
ENDBRANCH  26  27
BRANCH  21  36
ATOM     36  O   UNL     1      10.247  -3.282  24.234  0.00  0.00    -0.507 OA
ATOM     37  H   UNL     1       9.658  -3.689  24.886  0.00  0.00    +0.292 HD
ENDBRANCH  21  36
ENDBRANCH  14  15
ENDBRANCH   2  14
BRANCH   1  38
ATOM     38  O   UNL     1       7.143   4.888  25.613  0.00  0.00    -0.337 OA
BRANCH  38  41
ATOM     39  C   UNL     1       6.482   1.883  27.581  0.00  0.00    +0.190 C 
ATOM     40  O   UNL     1       6.365   2.853  26.529  0.00  0.00    -0.339 OA
ATOM     41  C   UNL     1       7.165   4.020  26.762  0.00  0.00    +0.282 C 
ATOM     42  C   UNL     1       6.513   4.690  28.060  0.00  0.00    +0.201 C 
ATOM     43  C   UNL     1       6.702   3.744  29.281  0.00  0.00    +0.179 C 
ATOM     44  C   UNL     1       6.071   2.385  28.986  0.00  0.00    +0.178 C 
BRANCH  44  45
ATOM     45  O   UNL     1       6.484   1.447  30.000  0.00  0.00    -0.386 OA
ATOM     46  H   UNL     1       5.836   0.719  30.005  0.00  0.00    +0.210 HD
ENDBRANCH  44  45
BRANCH  43  47
ATOM     47  O   UNL     1       6.085   4.279  30.474  0.00  0.00    -0.386 OA
ATOM     48  H   UNL     1       5.576   5.067  30.204  0.00  0.00    +0.210 HD
ENDBRANCH  43  47
BRANCH  42  49
ATOM     49  O   UNL     1       6.998   6.000  28.347  0.00  0.00    -0.384 OA
ATOM     50  H   UNL     1       7.269   6.444  27.525  0.00  0.00    +0.210 HD
ENDBRANCH  42  49
BRANCH  39  51
ATOM     51  C   UNL     1       5.592   0.684  27.201  0.00  0.00    +0.266 C 
BRANCH  51  52
ATOM     52  O   UNL     1       6.098   0.011  26.046  0.00  0.00    -0.459 OA
BRANCH  52  53
ATOM     53  C   UNL     1       6.788  -1.111  26.371  0.00  0.00    +0.332 C 
ATOM     54  O   UNL     1       7.917  -1.154  26.827  0.00  0.00    -0.246 OA
BRANCH  53  56
ATOM     55  C   UNL     1       6.560  -3.425  25.794  0.00  0.00    +0.015 C 
ATOM     56  C   UNL     1       5.943  -2.276  26.100  0.00  0.00    +0.092 C 
BRANCH  55  58
ATOM     57  C   UNL     1       5.673  -4.940  24.071  0.00  0.00    +0.012 A 
ATOM     58  C   UNL     1       5.876  -4.666  25.433  0.00  0.00    -0.021 A 
ATOM     59  C   UNL     1       5.343  -5.530  26.397  0.00  0.00    +0.057 A 
ATOM     60  C   UNL     1       4.619  -6.642  25.994  0.00  0.00    +0.159 A 
ATOM     61  C   UNL     1       4.423  -6.908  24.642  0.00  0.00    +0.158 A 
ATOM     62  C   UNL     1       4.943  -6.059  23.673  0.00  0.00    +0.050 A 
BRANCH  61  63
ATOM     63  O   UNL     1       3.674  -8.005  24.314  0.00  0.00    -0.503 OA
ATOM     64  H   UNL     1       4.082  -8.410  23.528  0.00  0.00    +0.292 HD
ENDBRANCH  61  63
BRANCH  60  65
ATOM     65  O   UNL     1       4.091  -7.470  26.941  0.00  0.00    -0.503 OA
ATOM     66  H   UNL     1       3.170  -7.614  26.641  0.00  0.00    +0.292 HD
ENDBRANCH  60  65
ENDBRANCH  55  58
ENDBRANCH  53  56
ENDBRANCH  52  53
ENDBRANCH  51  52
ENDBRANCH  39  51
ENDBRANCH  38  41
ENDBRANCH   1  38
TORSDOF 21
ENDMDL
MODEL 4
REMARK VINA RESULT:      -6.6      2.003      6.159
REMARK  Name = 
REMARK  21 active torsions:
REMARK  status: ('A' for Active; 'I' for Inactive)
REMARK    1  A    between atoms: C_3  and  O_66
REMARK    2  A    between atoms: C_4  and  O_65
REMARK    3  A    between atoms: C_6  and  C_7
REMARK    4  A    between atoms: C_8  and  C_9
REMARK    5  A    between atoms: C_9  and  O_11
REMARK    6  A    between atoms: O_11  and  C_12
REMARK    7  A    between atoms: C_12  and  C_13
REMARK    8  A    between atoms: C_15  and  O_64
REMARK    9  A    between atoms: C_17  and  O_63
REMARK   10  A    between atoms: C_19  and  O_62
REMARK   11  A    between atoms: C_21  and  O_24
REMARK   12  A    between atoms: O_24  and  C_25
REMARK   13  A    between atoms: C_27  and  O_61
REMARK   14  A    between atoms: C_29  and  O_60
REMARK   15  A    between atoms: C_31  and  C_58
REMARK   16  A    between atoms: C_34  and  O_36
REMARK   17  A    between atoms: O_36  and  C_37
REMARK   18  A    between atoms: C_38  and  C_50
REMARK   19  A    between atoms: C_42  and  O_49
REMARK   20  A    between atoms: C_52  and  O_57
REMARK   21  A    between atoms: C_58  and  O_59
REMARK                            x       y       z     vdW  Elec       q    Type
REMARK                         _______ _______ _______ _____ _____    ______ ____
ROOT
ATOM      1  C   UNL     1       5.822   0.208  25.571  0.00  0.00    +0.221 C 
ATOM      2  C   UNL     1       5.444   1.661  26.053  0.00  0.00    +0.340 C 
ATOM      3  O   UNL     1       5.775   1.732  27.464  0.00  0.00    -0.331 OA
ATOM      4  C   UNL     1       4.801   1.046  28.256  0.00  0.00    +0.179 C 
ATOM      5  C   UNL     1       5.129  -0.426  28.067  0.00  0.00    +0.177 C 
ATOM      6  C   UNL     1       5.144  -0.810  26.554  0.00  0.00    +0.180 C 
ENDROOT
BRANCH   6   7
ATOM      7  O   UNL     1       5.787  -2.103  26.501  0.00  0.00    -0.386 OA
ATOM      8  H   UNL     1       5.078  -2.765  26.465  0.00  0.00    +0.210 HD
ENDBRANCH   6   7
BRANCH   5   9
ATOM      9  O   UNL     1       4.160  -1.251  28.739  0.00  0.00    -0.386 OA
ATOM     10  H   UNL     1       4.516  -1.392  29.631  0.00  0.00    +0.210 HD
ENDBRANCH   5   9
BRANCH   4  11
ATOM     11  C   UNL     1       4.770   1.493  29.740  0.00  0.00    +0.190 C 
BRANCH  11  12
ATOM     12  O   UNL     1       3.498   1.313  30.371  0.00  0.00    -0.392 OA
ATOM     13  H   UNL     1       3.720   1.236  31.319  0.00  0.00    +0.210 HD
ENDBRANCH  11  12
ENDBRANCH   4  11
BRANCH   2  14
ATOM     14  O   UNL     1       6.151   2.699  25.353  0.00  0.00    -0.453 OA
BRANCH  14  15
ATOM     15  C   UNL     1       5.327   3.586  24.649  0.00  0.00    +0.214 A 
ATOM     16  C   UNL     1       3.827   3.553  24.818  0.00  0.00    +0.234 A 
ATOM     17  O   UNL     1       3.320   3.362  25.916  0.00  0.00    -0.283 OA
ATOM     18  C   UNL     1       3.017   3.971  23.659  0.00  0.00    +0.060 A 
ATOM     19  C   UNL     1       3.639   4.934  22.852  0.00  0.00    +0.142 A 
ATOM     20  C   UNL     1       2.919   5.549  21.832  0.00  0.00    +0.092 A 
ATOM     21  C   UNL     1       1.584   5.201  21.644  0.00  0.00    +0.120 A 
ATOM     22  C   UNL     1       0.986   4.217  22.429  0.00  0.00    +0.038 A 
ATOM     23  O   UNL     1       4.934   5.372  23.074  0.00  0.00    -0.451 OA
ATOM     24  C   UNL     1       1.674   3.518  23.443  0.00  0.00    -0.090 A 
ATOM     25  O   UNL     1       1.096   2.565  24.067  0.00  0.00    -0.873 OA
ATOM     26  C   UNL     1       5.792   4.617  23.899  0.00  0.00    +0.181 A 
BRANCH  26  27
ATOM     27  C   UNL     1       7.223   5.114  23.890  0.00  0.00    +0.024 A 
ATOM     28  C   UNL     1       7.580   6.352  24.459  0.00  0.00    +0.011 A 
ATOM     29  C   UNL     1       8.930   6.776  24.619  0.00  0.00    -0.004 A 
ATOM     30  C   UNL     1      10.018   5.991  24.228  0.00  0.00    -0.066 A 
ATOM     31  O   UNL     1      11.252   6.350  24.417  0.00  0.00    -0.871 OA
ATOM     32  C   UNL     1       9.632   4.795  23.595  0.00  0.00    +0.110 A 
ATOM     33  C   UNL     1       8.312   4.369  23.440  0.00  0.00    +0.056 A 
BRANCH  32  34
ATOM     34  O   UNL     1      10.574   3.871  23.171  0.00  0.00    -0.507 OA
ATOM     35  H   UNL     1      10.973   3.592  24.012  0.00  0.00    +0.292 HD
ENDBRANCH  32  34
ENDBRANCH  26  27
BRANCH  21  36
ATOM     36  O   UNL     1       0.807   5.800  20.693  0.00  0.00    -0.507 OA
ATOM     37  H   UNL     1       1.286   5.753  19.852  0.00  0.00    +0.292 HD
ENDBRANCH  21  36
ENDBRANCH  14  15
ENDBRANCH   2  14
BRANCH   1  38
ATOM     38  O   UNL     1       5.715  -0.215  24.162  0.00  0.00    -0.337 OA
BRANCH  38  41
ATOM     39  C   UNL     1       8.816  -1.903  23.232  0.00  0.00    +0.190 C 
ATOM     40  O   UNL     1       7.767  -1.382  24.061  0.00  0.00    -0.339 OA
ATOM     41  C   UNL     1       6.830  -0.580  23.328  0.00  0.00    +0.282 C 
ATOM     42  C   UNL     1       7.687   0.682  22.847  0.00  0.00    +0.201 C 
ATOM     43  C   UNL     1       8.782   0.213  21.846  0.00  0.00    +0.179 C 
ATOM     44  C   UNL     1       9.672  -0.838  22.506  0.00  0.00    +0.178 C 
BRANCH  44  45
ATOM     45  O   UNL     1      10.499  -1.452  21.498  0.00  0.00    -0.386 OA
ATOM     46  H   UNL     1      11.326  -0.939  21.446  0.00  0.00    +0.210 HD
ENDBRANCH  44  45
BRANCH  43  47
ATOM     47  O   UNL     1       9.620   1.310  21.416  0.00  0.00    -0.386 OA
ATOM     48  H   UNL     1       9.805   1.855  22.205  0.00  0.00    +0.210 HD
ENDBRANCH  43  47
BRANCH  42  49
ATOM     49  O   UNL     1       6.906   1.740  22.293  0.00  0.00    -0.384 OA
ATOM     50  H   UNL     1       6.276   2.072  22.955  0.00  0.00    +0.210 HD
ENDBRANCH  42  49
BRANCH  39  51
ATOM     51  C   UNL     1       9.735  -2.751  24.133  0.00  0.00    +0.266 C 
BRANCH  51  52
ATOM     52  O   UNL     1       9.007  -3.325  25.220  0.00  0.00    -0.459 OA
BRANCH  52  53
ATOM     53  C   UNL     1       8.879  -4.669  25.095  0.00  0.00    +0.332 C 
ATOM     54  O   UNL     1       9.785  -5.464  24.915  0.00  0.00    -0.246 OA
BRANCH  53  56
ATOM     55  C   UNL     1       6.742  -5.110  24.104  0.00  0.00    +0.015 C 
ATOM     56  C   UNL     1       7.463  -5.020  25.229  0.00  0.00    +0.092 C 
BRANCH  55  58
ATOM     57  C   UNL     1       4.420  -4.304  24.159  0.00  0.00    +0.012 A 
ATOM     58  C   UNL     1       5.307  -5.386  24.055  0.00  0.00    -0.021 A 
ATOM     59  C   UNL     1       4.801  -6.691  24.003  0.00  0.00    +0.057 A 
ATOM     60  C   UNL     1       3.431  -6.895  24.058  0.00  0.00    +0.159 A 
ATOM     61  C   UNL     1       2.556  -5.817  24.159  0.00  0.00    +0.158 A 
ATOM     62  C   UNL     1       3.042  -4.517  24.215  0.00  0.00    +0.050 A 
BRANCH  61  63
ATOM     63  O   UNL     1       1.218  -6.091  24.239  0.00  0.00    -0.503 OA
ATOM     64  H   UNL     1       1.032  -6.359  25.157  0.00  0.00    +0.292 HD
ENDBRANCH  61  63
BRANCH  60  65
ATOM     65  O   UNL     1       2.947  -8.171  24.022  0.00  0.00    -0.503 OA
ATOM     66  H   UNL     1       3.376  -8.607  24.785  0.00  0.00    +0.292 HD
ENDBRANCH  60  65
ENDBRANCH  55  58
ENDBRANCH  53  56
ENDBRANCH  52  53
ENDBRANCH  51  52
ENDBRANCH  39  51
ENDBRANCH  38  41
ENDBRANCH   1  38
TORSDOF 21
ENDMDL
MODEL 5
REMARK VINA RESULT:      -6.6      2.237      6.220
REMARK  Name = 
REMARK  21 active torsions:
REMARK  status: ('A' for Active; 'I' for Inactive)
REMARK    1  A    between atoms: C_3  and  O_66
REMARK    2  A    between atoms: C_4  and  O_65
REMARK    3  A    between atoms: C_6  and  C_7
REMARK    4  A    between atoms: C_8  and  C_9
REMARK    5  A    between atoms: C_9  and  O_11
REMARK    6  A    between atoms: O_11  and  C_12
REMARK    7  A    between atoms: C_12  and  C_13
REMARK    8  A    between atoms: C_15  and  O_64
REMARK    9  A    between atoms: C_17  and  O_63
REMARK   10  A    between atoms: C_19  and  O_62
REMARK   11  A    between atoms: C_21  and  O_24
REMARK   12  A    between atoms: O_24  and  C_25
REMARK   13  A    between atoms: C_27  and  O_61
REMARK   14  A    between atoms: C_29  and  O_60
REMARK   15  A    between atoms: C_31  and  C_58
REMARK   16  A    between atoms: C_34  and  O_36
REMARK   17  A    between atoms: O_36  and  C_37
REMARK   18  A    between atoms: C_38  and  C_50
REMARK   19  A    between atoms: C_42  and  O_49
REMARK   20  A    between atoms: C_52  and  O_57
REMARK   21  A    between atoms: C_58  and  O_59
REMARK                            x       y       z     vdW  Elec       q    Type
REMARK                         _______ _______ _______ _____ _____    ______ ____
ROOT
ATOM      1  C   UNL     1       6.409   1.967  24.863  0.00  0.00    +0.221 C 
ATOM      2  C   UNL     1       7.584   2.680  25.636  0.00  0.00    +0.340 C 
ATOM      3  O   UNL     1       8.613   2.969  24.655  0.00  0.00    -0.331 OA
ATOM      4  C   UNL     1       9.345   1.788  24.313  0.00  0.00    +0.179 C 
ATOM      5  C   UNL     1       8.418   1.025  23.382  0.00  0.00    +0.177 C 
ATOM      6  C   UNL     1       7.029   0.776  24.050  0.00  0.00    +0.180 C 
ENDROOT
BRANCH   6   7
ATOM      7  O   UNL     1       6.161   0.366  22.970  0.00  0.00    -0.386 OA
ATOM      8  H   UNL     1       5.447  -0.156  23.371  0.00  0.00    +0.210 HD
ENDBRANCH   6   7
BRANCH   5   9
ATOM      9  O   UNL     1       8.989  -0.247  23.028  0.00  0.00    -0.386 OA
ATOM     10  H   UNL     1       9.479  -0.538  23.815  0.00  0.00    +0.210 HD
ENDBRANCH   5   9
BRANCH   4  11
ATOM     11  C   UNL     1      10.745   2.068  23.709  0.00  0.00    +0.190 C 
BRANCH  11  12
ATOM     12  O   UNL     1      10.708   2.795  22.477  0.00  0.00    -0.392 OA
ATOM     13  H   UNL     1      11.080   3.666  22.711  0.00  0.00    +0.210 HD
ENDBRANCH  11  12
ENDBRANCH   4  11
BRANCH   2  14
ATOM     14  O   UNL     1       7.189   3.905  26.275  0.00  0.00    -0.453 OA
BRANCH  14  15
ATOM     15  C   UNL     1       6.484   4.788  25.446  0.00  0.00    +0.214 A 
ATOM     16  C   UNL     1       4.977   4.858  25.488  0.00  0.00    +0.234 A 
ATOM     17  O   UNL     1       4.372   4.777  26.550  0.00  0.00    -0.283 OA
ATOM     18  C   UNL     1       4.292   5.240  24.239  0.00  0.00    +0.060 A 
ATOM     19  C   UNL     1       5.040   6.103  23.427  0.00  0.00    +0.142 A 
ATOM     20  C   UNL     1       4.447   6.687  22.310  0.00  0.00    +0.092 A 
ATOM     21  C   UNL     1       3.111   6.407  22.033  0.00  0.00    +0.120 A 
ATOM     22  C   UNL     1       2.388   5.520  22.828  0.00  0.00    +0.038 A 
ATOM     23  O   UNL     1       6.340   6.477  23.728  0.00  0.00    -0.451 OA
ATOM     24  C   UNL     1       2.945   4.855  23.941  0.00  0.00    -0.090 A 
ATOM     25  O   UNL     1       2.256   3.986  24.575  0.00  0.00    -0.873 OA
ATOM     26  C   UNL     1       7.076   5.733  24.671  0.00  0.00    +0.181 A 
BRANCH  26  27
ATOM     27  C   UNL     1       8.533   6.140  24.751  0.00  0.00    +0.024 A 
ATOM     28  C   UNL     1       9.063   6.775  25.891  0.00  0.00    +0.011 A 
ATOM     29  C   UNL     1      10.454   7.021  26.071  0.00  0.00    -0.004 A 
ATOM     30  C   UNL     1      11.414   6.644  25.129  0.00  0.00    -0.066 A 
ATOM     31  O   UNL     1      12.687   6.821  25.309  0.00  0.00    -0.871 OA
ATOM     32  C   UNL     1      10.851   6.081  23.968  0.00  0.00    +0.110 A 
ATOM     33  C   UNL     1       9.491   5.831  23.786  0.00  0.00    +0.056 A 
BRANCH  32  34
ATOM     34  O   UNL     1      11.651   5.614  22.937  0.00  0.00    -0.507 OA
ATOM     35  H   UNL     1      12.500   6.044  23.132  0.00  0.00    +0.292 HD
ENDBRANCH  32  34
ENDBRANCH  26  27
BRANCH  21  36
ATOM     36  O   UNL     1       2.455   6.983  20.982  0.00  0.00    -0.507 OA
ATOM     37  H   UNL     1       2.901   6.701  20.169  0.00  0.00    +0.292 HD
ENDBRANCH  21  36
ENDBRANCH  14  15
ENDBRANCH   2  14
BRANCH   1  38
ATOM     38  O   UNL     1       5.137   1.602  25.513  0.00  0.00    -0.337 OA
BRANCH  38  41
ATOM     39  C   UNL     1       3.960  -1.279  27.424  0.00  0.00    +0.190 C 
ATOM     40  O   UNL     1       4.007  -0.276  26.398  0.00  0.00    -0.339 OA
ATOM     41  C   UNL     1       5.017   0.714  26.640  0.00  0.00    +0.282 C 
ATOM     42  C   UNL     1       4.527   1.457  27.969  0.00  0.00    +0.201 C 
ATOM     43  C   UNL     1       4.558   0.459  29.162  0.00  0.00    +0.179 C 
ATOM     44  C   UNL     1       3.677  -0.749  28.850  0.00  0.00    +0.178 C 
BRANCH  44  45
ATOM     45  O   UNL     1       3.926  -1.776  29.830  0.00  0.00    -0.386 OA
ATOM     46  H   UNL     1       3.510  -2.596  29.507  0.00  0.00    +0.210 HD
ENDBRANCH  44  45
BRANCH  43  47
ATOM     47  O   UNL     1       4.075   1.067  30.382  0.00  0.00    -0.386 OA
ATOM     48  H   UNL     1       3.233   1.511  30.166  0.00  0.00    +0.210 HD
ENDBRANCH  43  47
BRANCH  42  49
ATOM     49  O   UNL     1       5.255   2.645  28.275  0.00  0.00    -0.384 OA
ATOM     50  H   UNL     1       4.688   3.271  28.756  0.00  0.00    +0.210 HD
ENDBRANCH  42  49
BRANCH  39  51
ATOM     51  C   UNL     1       2.854  -2.280  27.036  0.00  0.00    +0.266 C 
BRANCH  51  52
ATOM     52  O   UNL     1       2.759  -2.421  25.617  0.00  0.00    -0.459 OA
BRANCH  52  53
ATOM     53  C   UNL     1       2.799  -3.720  25.231  0.00  0.00    +0.332 C 
ATOM     54  O   UNL     1       1.870  -4.363  24.771  0.00  0.00    -0.246 OA
BRANCH  53  56
ATOM     55  C   UNL     1       5.144  -3.650  24.748  0.00  0.00    +0.015 C 
ATOM     56  C   UNL     1       4.155  -4.231  25.440  0.00  0.00    +0.092 C 
BRANCH  55  58
ATOM     57  C   UNL     1       6.879  -5.197  25.553  0.00  0.00    +0.012 A 
ATOM     58  C   UNL     1       6.544  -4.071  24.783  0.00  0.00    -0.021 A 
ATOM     59  C   UNL     1       7.558  -3.338  24.156  0.00  0.00    +0.057 A 
ATOM     60  C   UNL     1       8.880  -3.732  24.306  0.00  0.00    +0.159 A 
ATOM     61  C   UNL     1       9.204  -4.850  25.069  0.00  0.00    +0.158 A 
ATOM     62  C   UNL     1       8.210  -5.586  25.700  0.00  0.00    +0.050 A 
BRANCH  61  63
ATOM     63  O   UNL     1      10.529  -5.165  25.201  0.00  0.00    -0.503 OA
ATOM     64  H   UNL     1      10.941  -4.465  25.737  0.00  0.00    +0.292 HD
ENDBRANCH  61  63
BRANCH  60  65
ATOM     65  O   UNL     1       9.863  -3.002  23.704  0.00  0.00    -0.503 OA
ATOM     66  H   UNL     1      10.399  -3.672  23.232  0.00  0.00    +0.292 HD
ENDBRANCH  60  65
ENDBRANCH  55  58
ENDBRANCH  53  56
ENDBRANCH  52  53
ENDBRANCH  51  52
ENDBRANCH  39  51
ENDBRANCH  38  41
ENDBRANCH   1  38
TORSDOF 21
ENDMDL
MODEL 6
REMARK VINA RESULT:      -6.5      2.440      8.577
REMARK  Name = 
REMARK  21 active torsions:
REMARK  status: ('A' for Active; 'I' for Inactive)
REMARK    1  A    between atoms: C_3  and  O_66
REMARK    2  A    between atoms: C_4  and  O_65
REMARK    3  A    between atoms: C_6  and  C_7
REMARK    4  A    between atoms: C_8  and  C_9
REMARK    5  A    between atoms: C_9  and  O_11
REMARK    6  A    between atoms: O_11  and  C_12
REMARK    7  A    between atoms: C_12  and  C_13
REMARK    8  A    between atoms: C_15  and  O_64
REMARK    9  A    between atoms: C_17  and  O_63
REMARK   10  A    between atoms: C_19  and  O_62
REMARK   11  A    between atoms: C_21  and  O_24
REMARK   12  A    between atoms: O_24  and  C_25
REMARK   13  A    between atoms: C_27  and  O_61
REMARK   14  A    between atoms: C_29  and  O_60
REMARK   15  A    between atoms: C_31  and  C_58
REMARK   16  A    between atoms: C_34  and  O_36
REMARK   17  A    between atoms: O_36  and  C_37
REMARK   18  A    between atoms: C_38  and  C_50
REMARK   19  A    between atoms: C_42  and  O_49
REMARK   20  A    between atoms: C_52  and  O_57
REMARK   21  A    between atoms: C_58  and  O_59
REMARK                            x       y       z     vdW  Elec       q    Type
REMARK                         _______ _______ _______ _____ _____    ______ ____
ROOT
ATOM      1  C   UNL     1       5.601  -0.773  25.711  0.00  0.00    +0.221 C 
ATOM      2  C   UNL     1       5.331  -2.185  26.359  0.00  0.00    +0.340 C 
ATOM      3  O   UNL     1       6.417  -3.051  25.941  0.00  0.00    -0.331 OA
ATOM      4  C   UNL     1       6.250  -3.468  24.582  0.00  0.00    +0.179 C 
ATOM      5  C   UNL     1       6.658  -2.256  23.762  0.00  0.00    +0.177 C 
ATOM      6  C   UNL     1       5.839  -0.993  24.175  0.00  0.00    +0.180 C 
ENDROOT
BRANCH   6   7
ATOM      7  O   UNL     1       6.544   0.123  23.585  0.00  0.00    -0.386 OA
ATOM      8  H   UNL     1       5.871   0.691  23.177  0.00  0.00    +0.210 HD
ENDBRANCH   6   7
BRANCH   5   9
ATOM      9  O   UNL     1       6.448  -2.498  22.359  0.00  0.00    -0.386 OA
ATOM     10  H   UNL     1       6.284  -3.453  22.285  0.00  0.00    +0.210 HD
ENDBRANCH   5   9
BRANCH   4  11
ATOM     11  C   UNL     1       7.028  -4.758  24.220  0.00  0.00    +0.190 C 
BRANCH  11  12
ATOM     12  O   UNL     1       8.239  -4.520  23.496  0.00  0.00    -0.392 OA
ATOM     13  H   UNL     1       8.380  -3.559  23.592  0.00  0.00    +0.210 HD
ENDBRANCH  11  12
ENDBRANCH   4  11
BRANCH   2  14
ATOM     14  O   UNL     1       5.281  -2.156  27.795  0.00  0.00    -0.453 OA
BRANCH  14  15
ATOM     15  C   UNL     1       4.293  -2.976  28.356  0.00  0.00    +0.214 A 
ATOM     16  C   UNL     1       4.641  -4.323  28.944  0.00  0.00    +0.234 A 
ATOM     17  O   UNL     1       5.670  -4.481  29.589  0.00  0.00    -0.283 OA
ATOM     18  C   UNL     1       3.598  -5.363  28.891  0.00  0.00    +0.060 A 
ATOM     19  C   UNL     1       2.292  -4.858  28.950  0.00  0.00    +0.142 A 
ATOM     20  C   UNL     1       1.218  -5.732  29.093  0.00  0.00    +0.092 A 
ATOM     21  C   UNL     1       1.471  -7.099  29.187  0.00  0.00    +0.120 A 
ATOM     22  C   UNL     1       2.770  -7.593  29.092  0.00  0.00    +0.038 A 
ATOM     23  O   UNL     1       2.015  -3.500  28.956  0.00  0.00    -0.451 OA
ATOM     24  C   UNL     1       3.895  -6.765  28.893  0.00  0.00    -0.090 A 
ATOM     25  O   UNL     1       5.049  -7.286  28.725  0.00  0.00    -0.873 OA
ATOM     26  C   UNL     1       3.008  -2.586  28.552  0.00  0.00    +0.181 A 
BRANCH  26  27
ATOM     27  C   UNL     1       2.498  -1.165  28.426  0.00  0.00    +0.024 A 
ATOM     28  C   UNL     1       2.829  -0.174  29.371  0.00  0.00    +0.011 A 
ATOM     29  C   UNL     1       2.510   1.204  29.200  0.00  0.00    -0.004 A 
ATOM     30  C   UNL     1       1.847   1.689  28.071  0.00  0.00    -0.066 A 
ATOM     31  O   UNL     1       1.598   2.950  27.886  0.00  0.00    -0.871 OA
ATOM     32  C   UNL     1       1.462   0.670  27.180  0.00  0.00    +0.110 A 
ATOM     33  C   UNL     1       1.775  -0.681  27.337  0.00  0.00    +0.056 A 
BRANCH  32  34
ATOM     34  O   UNL     1       0.824   0.963  25.985  0.00  0.00    -0.507 OA
ATOM     35  H   UNL     1       0.207   0.218  25.900  0.00  0.00    +0.292 HD
ENDBRANCH  32  34
ENDBRANCH  26  27
BRANCH  21  36
ATOM     36  O   UNL     1       0.468  -8.008  29.376  0.00  0.00    -0.507 OA
ATOM     37  H   UNL     1       0.297  -8.435  28.523  0.00  0.00    +0.292 HD
ENDBRANCH  21  36
ENDBRANCH  14  15
ENDBRANCH   2  14
BRANCH   1  38
ATOM     38  O   UNL     1       4.754   0.403  25.986  0.00  0.00    -0.337 OA
BRANCH  38  41
ATOM     39  C   UNL     1       6.234   3.739  26.088  0.00  0.00    +0.190 C 
ATOM     40  O   UNL     1       5.889   2.437  25.592  0.00  0.00    -0.339 OA
ATOM     41  C   UNL     1       5.222   1.631  26.573  0.00  0.00    +0.282 C 
ATOM     42  C   UNL     1       6.327   1.398  27.706  0.00  0.00    +0.201 C 
ATOM     43  C   UNL     1       6.674   2.757  28.378  0.00  0.00    +0.179 C 
ATOM     44  C   UNL     1       7.167   3.747  27.324  0.00  0.00    +0.178 C 
BRANCH  44  45
ATOM     45  O   UNL     1       7.225   5.063  27.907  0.00  0.00    -0.386 OA
ATOM     46  H   UNL     1       6.940   5.698  27.224  0.00  0.00    +0.210 HD
ENDBRANCH  44  45
BRANCH  43  47
ATOM     47  O   UNL     1       7.708   2.612  29.379  0.00  0.00    -0.386 OA
ATOM     48  H   UNL     1       8.197   1.794  29.168  0.00  0.00    +0.210 HD
ENDBRANCH  43  47
BRANCH  42  49
ATOM     49  O   UNL     1       5.966   0.422  28.681  0.00  0.00    -0.384 OA
ATOM     50  H   UNL     1       5.037   0.158  28.562  0.00  0.00    +0.210 HD
ENDBRANCH  42  49
BRANCH  39  51
ATOM     51  C   UNL     1       6.924   4.501  24.940  0.00  0.00    +0.266 C 
BRANCH  51  52
ATOM     52  O   UNL     1       8.156   5.081  25.372  0.00  0.00    -0.459 OA
BRANCH  52  53
ATOM     53  C   UNL     1       9.149   4.903  24.466  0.00  0.00    +0.332 C 
ATOM     54  O   UNL     1      10.071   5.671  24.248  0.00  0.00    -0.246 OA
BRANCH  53  56
ATOM     55  C   UNL     1       9.873   2.670  23.986  0.00  0.00    +0.015 C 
ATOM     56  C   UNL     1       8.946   3.618  23.794  0.00  0.00    +0.092 C 
BRANCH  55  58
ATOM     57  C   UNL     1       9.564   1.288  21.975  0.00  0.00    +0.012 A 
ATOM     58  C   UNL     1       9.865   1.356  23.345  0.00  0.00    -0.021 A 
ATOM     59  C   UNL     1      10.054   0.173  24.069  0.00  0.00    +0.057 A 
ATOM     60  C   UNL     1       9.937  -1.049  23.425  0.00  0.00    +0.159 A 
ATOM     61  C   UNL     1       9.640  -1.110  22.067  0.00  0.00    +0.158 A 
ATOM     62  C   UNL     1       9.447   0.055  21.334  0.00  0.00    +0.050 A 
BRANCH  61  63
ATOM     63  O   UNL     1       9.510  -2.349  21.501  0.00  0.00    -0.503 OA
ATOM     64  H   UNL     1       8.605  -2.411  21.146  0.00  0.00    +0.292 HD
ENDBRANCH  61  63
BRANCH  60  65
ATOM     65  O   UNL     1      10.108  -2.197  24.143  0.00  0.00    -0.503 OA
ATOM     66  H   UNL     1       9.265  -2.298  24.630  0.00  0.00    +0.292 HD
ENDBRANCH  60  65
ENDBRANCH  55  58
ENDBRANCH  53  56
ENDBRANCH  52  53
ENDBRANCH  51  52
ENDBRANCH  39  51
ENDBRANCH  38  41
ENDBRANCH   1  38
TORSDOF 21
ENDMDL
MODEL 7
REMARK VINA RESULT:      -6.5      1.450      2.461
REMARK  Name = 
REMARK  21 active torsions:
REMARK  status: ('A' for Active; 'I' for Inactive)
REMARK    1  A    between atoms: C_3  and  O_66
REMARK    2  A    between atoms: C_4  and  O_65
REMARK    3  A    between atoms: C_6  and  C_7
REMARK    4  A    between atoms: C_8  and  C_9
REMARK    5  A    between atoms: C_9  and  O_11
REMARK    6  A    between atoms: O_11  and  C_12
REMARK    7  A    between atoms: C_12  and  C_13
REMARK    8  A    between atoms: C_15  and  O_64
REMARK    9  A    between atoms: C_17  and  O_63
REMARK   10  A    between atoms: C_19  and  O_62
REMARK   11  A    between atoms: C_21  and  O_24
REMARK   12  A    between atoms: O_24  and  C_25
REMARK   13  A    between atoms: C_27  and  O_61
REMARK   14  A    between atoms: C_29  and  O_60
REMARK   15  A    between atoms: C_31  and  C_58
REMARK   16  A    between atoms: C_34  and  O_36
REMARK   17  A    between atoms: O_36  and  C_37
REMARK   18  A    between atoms: C_38  and  C_50
REMARK   19  A    between atoms: C_42  and  O_49
REMARK   20  A    between atoms: C_52  and  O_57
REMARK   21  A    between atoms: C_58  and  O_59
REMARK                            x       y       z     vdW  Elec       q    Type
REMARK                         _______ _______ _______ _____ _____    ______ ____
ROOT
ATOM      1  C   UNL     1       5.319  -0.770  25.668  0.00  0.00    +0.221 C 
ATOM      2  C   UNL     1       5.559   0.727  25.235  0.00  0.00    +0.340 C 
ATOM      3  O   UNL     1       6.594   1.253  26.104  0.00  0.00    -0.331 OA
ATOM      4  C   UNL     1       6.073   1.547  27.405  0.00  0.00    +0.179 C 
ATOM      5  C   UNL     1       5.944   0.191  28.077  0.00  0.00    +0.177 C 
ATOM      6  C   UNL     1       5.077  -0.782  27.219  0.00  0.00    +0.180 C 
ENDROOT
BRANCH   6   7
ATOM      7  O   UNL     1       5.316  -2.093  27.779  0.00  0.00    -0.386 OA
ATOM      8  H   UNL     1       4.721  -2.182  28.541  0.00  0.00    +0.210 HD
ENDBRANCH   6   7
BRANCH   5   9
ATOM      9  O   UNL     1       5.336   0.323  29.374  0.00  0.00    -0.386 OA
ATOM     10  H   UNL     1       4.836   1.156  29.339  0.00  0.00    +0.210 HD
ENDBRANCH   5   9
BRANCH   4  11
ATOM     11  C   UNL     1       6.925   2.564  28.207  0.00  0.00    +0.190 C 
BRANCH  11  12
ATOM     12  O   UNL     1       7.780   1.959  29.183  0.00  0.00    -0.392 OA
ATOM     13  H   UNL     1       7.214   1.890  29.974  0.00  0.00    +0.210 HD
ENDBRANCH  11  12
ENDBRANCH   4  11
BRANCH   2  14
ATOM     14  O   UNL     1       5.980   0.867  23.867  0.00  0.00    -0.453 OA
BRANCH  14  15
ATOM     15  C   UNL     1       6.656   2.063  23.591  0.00  0.00    +0.214 A 
ATOM     16  C   UNL     1       8.094   2.055  23.131  0.00  0.00    +0.234 A 
ATOM     17  O   UNL     1       8.500   1.205  22.349  0.00  0.00    -0.283 OA
ATOM     18  C   UNL     1       8.915   3.225  23.492  0.00  0.00    +0.060 A 
ATOM     19  C   UNL     1       8.187   4.419  23.586  0.00  0.00    +0.142 A 
ATOM     20  C   UNL     1       8.860   5.628  23.739  0.00  0.00    +0.092 A 
ATOM     21  C   UNL     1      10.252   5.624  23.782  0.00  0.00    +0.120 A 
ATOM     22  C   UNL     1      10.964   4.428  23.721  0.00  0.00    +0.038 A 
ATOM     23  O   UNL     1       6.809   4.467  23.452  0.00  0.00    -0.451 OA
ATOM     24  C   UNL     1      10.341   3.166  23.620  0.00  0.00    -0.090 A 
ATOM     25  O   UNL     1      11.046   2.101  23.660  0.00  0.00    -0.873 OA
ATOM     26  C   UNL     1       6.057   3.281  23.563  0.00  0.00    +0.181 A 
BRANCH  26  27
ATOM     27  C   UNL     1       4.561   3.519  23.587  0.00  0.00    +0.024 A 
ATOM     28  C   UNL     1       3.908   4.007  24.736  0.00  0.00    +0.011 A 
ATOM     29  C   UNL     1       2.539   4.400  24.747  0.00  0.00    -0.004 A 
ATOM     30  C   UNL     1       1.729   4.342  23.611  0.00  0.00    -0.066 A 
ATOM     31  O   UNL     1       0.495   4.746  23.602  0.00  0.00    -0.871 OA
ATOM     32  C   UNL     1       2.385   3.781  22.498  0.00  0.00    +0.110 A 
ATOM     33  C   UNL     1       3.726   3.400  22.477  0.00  0.00    +0.056 A 
BRANCH  32  34
ATOM     34  O   UNL     1       1.751   3.675  21.271  0.00  0.00    -0.507 OA
ATOM     35  H   UNL     1       2.363   4.154  20.687  0.00  0.00    +0.292 HD
ENDBRANCH  32  34
ENDBRANCH  26  27
BRANCH  21  36
ATOM     36  O   UNL     1      10.976   6.778  23.882  0.00  0.00    -0.507 OA
ATOM     37  H   UNL     1      10.348   7.517  23.897  0.00  0.00    +0.292 HD
ENDBRANCH  21  36
ENDBRANCH  14  15
ENDBRANCH   2  14
BRANCH   1  38
ATOM     38  O   UNL     1       4.398  -1.668  24.947  0.00  0.00    -0.337 OA
BRANCH  38  41
ATOM     39  C   UNL     1       4.237  -5.267  24.348  0.00  0.00    +0.190 C 
ATOM     40  O   UNL     1       4.272  -3.859  24.070  0.00  0.00    -0.339 OA
ATOM     41  C   UNL     1       4.198  -3.059  25.259  0.00  0.00    +0.282 C 
ATOM     42  C   UNL     1       2.741  -3.363  25.846  0.00  0.00    +0.201 C 
ATOM     43  C   UNL     1       2.659  -4.854  26.282  0.00  0.00    +0.179 C 
ATOM     44  C   UNL     1       2.973  -5.760  25.093  0.00  0.00    +0.178 C 
BRANCH  44  45
ATOM     45  O   UNL     1       3.158  -7.108  25.568  0.00  0.00    -0.386 OA
ATOM     46  H   UNL     1       3.655  -7.058  26.404  0.00  0.00    +0.210 HD
ENDBRANCH  44  45
BRANCH  43  47
ATOM     47  O   UNL     1       1.344  -5.196  26.775  0.00  0.00    -0.386 OA
ATOM     48  H   UNL     1       0.768  -4.425  26.614  0.00  0.00    +0.210 HD
ENDBRANCH  43  47
BRANCH  42  49
ATOM     49  O   UNL     1       2.349  -2.496  26.909  0.00  0.00    -0.384 OA
ATOM     50  H   UNL     1       1.462  -2.137  26.738  0.00  0.00    +0.210 HD
ENDBRANCH  42  49
BRANCH  39  51
ATOM     51  C   UNL     1       4.338  -6.004  22.999  0.00  0.00    +0.266 C 
BRANCH  51  52
ATOM     52  O   UNL     1       5.119  -5.260  22.061  0.00  0.00    -0.459 OA
BRANCH  52  53
ATOM     53  C   UNL     1       6.428  -5.613  22.094  0.00  0.00    +0.332 C 
ATOM     54  O   UNL     1       6.879  -6.724  21.874  0.00  0.00    -0.246 OA
BRANCH  53  56
ATOM     55  C   UNL     1       7.632  -4.295  23.692  0.00  0.00    +0.015 C 
ATOM     56  C   UNL     1       7.225  -4.429  22.423  0.00  0.00    +0.092 C 
BRANCH  55  58
ATOM     57  C   UNL     1       8.137  -2.743  25.532  0.00  0.00    +0.012 A 
ATOM     58  C   UNL     1       8.378  -3.149  24.210  0.00  0.00    -0.021 A 
ATOM     59  C   UNL     1       9.244  -2.399  23.405  0.00  0.00    +0.057 A 
ATOM     60  C   UNL     1       9.849  -1.264  23.924  0.00  0.00    +0.159 A 
ATOM     61  C   UNL     1       9.607  -0.869  25.236  0.00  0.00    +0.158 A 
ATOM     62  C   UNL     1       8.748  -1.600  26.047  0.00  0.00    +0.050 A 
BRANCH  61  63
ATOM     63  O   UNL     1      10.212   0.278  25.675  0.00  0.00    -0.503 OA
ATOM     64  H   UNL     1      10.565   0.737  24.892  0.00  0.00    +0.292 HD
ENDBRANCH  61  63
BRANCH  60  65
ATOM     65  O   UNL     1      10.680  -0.531  23.127  0.00  0.00    -0.503 OA
ATOM     66  H   UNL     1      10.111  -0.262  22.378  0.00  0.00    +0.292 HD
ENDBRANCH  60  65
ENDBRANCH  55  58
ENDBRANCH  53  56
ENDBRANCH  52  53
ENDBRANCH  51  52
ENDBRANCH  39  51
ENDBRANCH  38  41
ENDBRANCH   1  38
TORSDOF 21
ENDMDL
MODEL 8
REMARK VINA RESULT:      -6.4      1.854      6.121
REMARK  Name = 
REMARK  21 active torsions:
REMARK  status: ('A' for Active; 'I' for Inactive)
REMARK    1  A    between atoms: C_3  and  O_66
REMARK    2  A    between atoms: C_4  and  O_65
REMARK    3  A    between atoms: C_6  and  C_7
REMARK    4  A    between atoms: C_8  and  C_9
REMARK    5  A    between atoms: C_9  and  O_11
REMARK    6  A    between atoms: O_11  and  C_12
REMARK    7  A    between atoms: C_12  and  C_13
REMARK    8  A    between atoms: C_15  and  O_64
REMARK    9  A    between atoms: C_17  and  O_63
REMARK   10  A    between atoms: C_19  and  O_62
REMARK   11  A    between atoms: C_21  and  O_24
REMARK   12  A    between atoms: O_24  and  C_25
REMARK   13  A    between atoms: C_27  and  O_61
REMARK   14  A    between atoms: C_29  and  O_60
REMARK   15  A    between atoms: C_31  and  C_58
REMARK   16  A    between atoms: C_34  and  O_36
REMARK   17  A    between atoms: O_36  and  C_37
REMARK   18  A    between atoms: C_38  and  C_50
REMARK   19  A    between atoms: C_42  and  O_49
REMARK   20  A    between atoms: C_52  and  O_57
REMARK   21  A    between atoms: C_58  and  O_59
REMARK                            x       y       z     vdW  Elec       q    Type
REMARK                         _______ _______ _______ _____ _____    ______ ____
ROOT
ATOM      1  C   UNL     1       8.015   3.021  23.092  0.00  0.00    +0.221 C 
ATOM      2  C   UNL     1       7.747   4.144  24.165  0.00  0.00    +0.340 C 
ATOM      3  O   UNL     1       8.578   5.276  23.802  0.00  0.00    -0.331 OA
ATOM      4  C   UNL     1       9.946   5.045  24.155  0.00  0.00    +0.179 C 
ATOM      5  C   UNL     1      10.457   4.094  23.086  0.00  0.00    +0.177 C 
ATOM      6  C   UNL     1       9.568   2.814  22.999  0.00  0.00    +0.180 C 
ENDROOT
BRANCH   6   7
ATOM      7  O   UNL     1       9.943   2.180  21.755  0.00  0.00    -0.386 OA
ATOM      8  H   UNL     1      10.901   2.029  21.798  0.00  0.00    +0.210 HD
ENDBRANCH   6   7
BRANCH   5   9
ATOM      9  O   UNL     1      11.810   3.693  23.370  0.00  0.00    -0.386 OA
ATOM     10  H   UNL     1      11.818   2.727  23.270  0.00  0.00    +0.210 HD
ENDBRANCH   5   9
BRANCH   4  11
ATOM     11  C   UNL     1      10.786   6.340  24.294  0.00  0.00    +0.190 C 
BRANCH  11  12
ATOM     12  O   UNL     1      12.178   6.103  24.527  0.00  0.00    -0.392 OA
ATOM     13  H   UNL     1      12.518   5.846  23.649  0.00  0.00    +0.210 HD
ENDBRANCH  11  12
ENDBRANCH   4  11
BRANCH   2  14
ATOM     14  O   UNL     1       6.375   4.569  24.219  0.00  0.00    -0.453 OA
BRANCH  14  15
ATOM     15  C   UNL     1       5.547   3.751  24.999  0.00  0.00    +0.214 A 
ATOM     16  C   UNL     1       5.884   3.452  26.440  0.00  0.00    +0.234 A 
ATOM     17  O   UNL     1       6.352   4.316  27.170  0.00  0.00    -0.283 OA
ATOM     18  C   UNL     1       5.430   2.155  26.975  0.00  0.00    +0.060 A 
ATOM     19  C   UNL     1       4.245   1.687  26.392  0.00  0.00    +0.142 A 
ATOM     20  C   UNL     1       3.606   0.571  26.926  0.00  0.00    +0.092 A 
ATOM     21  C   UNL     1       4.157  -0.050  28.044  0.00  0.00    +0.120 A 
ATOM     22  C   UNL     1       5.355   0.403  28.594  0.00  0.00    +0.038 A 
ATOM     23  O   UNL     1       3.620   2.338  25.341  0.00  0.00    -0.451 OA
ATOM     24  C   UNL     1       6.079   1.494  28.069  0.00  0.00    -0.090 A 
ATOM     25  O   UNL     1       7.215   1.804  28.564  0.00  0.00    -0.873 OA
ATOM     26  C   UNL     1       4.334   3.295  24.593  0.00  0.00    +0.181 A 
BRANCH  26  27
ATOM     27  C   UNL     1       3.588   3.776  23.366  0.00  0.00    +0.024 A 
ATOM     28  C   UNL     1       2.447   3.105  22.883  0.00  0.00    +0.011 A 
ATOM     29  C   UNL     1       1.624   3.616  21.839  0.00  0.00    -0.004 A 
ATOM     30  C   UNL     1       1.879   4.837  21.209  0.00  0.00    -0.066 A 
ATOM     31  O   UNL     1       1.105   5.332  20.291  0.00  0.00    -0.871 OA
ATOM     32  C   UNL     1       3.065   5.449  21.657  0.00  0.00    +0.110 A 
ATOM     33  C   UNL     1       3.872   4.958  22.683  0.00  0.00    +0.056 A 
BRANCH  32  34
ATOM     34  O   UNL     1       3.462   6.684  21.172  0.00  0.00    -0.507 OA
ATOM     35  H   UNL     1       3.443   7.231  21.975  0.00  0.00    +0.292 HD
ENDBRANCH  32  34
ENDBRANCH  26  27
BRANCH  21  36
ATOM     36  O   UNL     1       3.557  -1.119  28.646  0.00  0.00    -0.507 OA
ATOM     37  H   UNL     1       3.978  -1.922  28.305  0.00  0.00    +0.292 HD
ENDBRANCH  21  36
ENDBRANCH  14  15
ENDBRANCH   2  14
BRANCH   1  38
ATOM     38  O   UNL     1       7.276   1.745  23.075  0.00  0.00    -0.337 OA
BRANCH  38  41
ATOM     39  C   UNL     1       7.718  -1.867  22.768  0.00  0.00    +0.190 C 
ATOM     40  O   UNL     1       7.088  -0.580  22.692  0.00  0.00    -0.339 OA
ATOM     41  C   UNL     1       7.865   0.453  23.315  0.00  0.00    +0.282 C 
ATOM     42  C   UNL     1       7.879   0.053  24.864  0.00  0.00    +0.201 C 
ATOM     43  C   UNL     1       8.651  -1.285  25.046  0.00  0.00    +0.179 C 
ATOM     44  C   UNL     1       8.001  -2.378  24.201  0.00  0.00    +0.178 C 
BRANCH  44  45
ATOM     45  O   UNL     1       8.873  -3.525  24.167  0.00  0.00    -0.386 OA
ATOM     46  H   UNL     1       9.696  -3.253  23.721  0.00  0.00    +0.210 HD
ENDBRANCH  44  45
BRANCH  43  47
ATOM     47  O   UNL     1       8.651  -1.720  26.425  0.00  0.00    -0.386 OA
ATOM     48  H   UNL     1       8.154  -2.560  26.459  0.00  0.00    +0.210 HD
ENDBRANCH  43  47
BRANCH  42  49
ATOM     49  O   UNL     1       8.399   1.066  25.722  0.00  0.00    -0.384 OA
ATOM     50  H   UNL     1       7.681   1.644  26.032  0.00  0.00    +0.210 HD
ENDBRANCH  42  49
BRANCH  39  51
ATOM     51  C   UNL     1       6.795  -2.873  22.054  0.00  0.00    +0.266 C 
BRANCH  51  52
ATOM     52  O   UNL     1       7.398  -4.167  21.982  0.00  0.00    -0.459 OA
BRANCH  52  53
ATOM     53  C   UNL     1       6.489  -5.139  21.720  0.00  0.00    +0.332 C 
ATOM     54  O   UNL     1       5.957  -5.356  20.645  0.00  0.00    -0.246 OA
BRANCH  53  56
ATOM     55  C   UNL     1       5.692  -5.267  23.976  0.00  0.00    +0.015 C 
ATOM     56  C   UNL     1       6.258  -5.908  22.945  0.00  0.00    +0.092 C 
BRANCH  55  58
ATOM     57  C   UNL     1       4.288  -6.628  25.467  0.00  0.00    +0.012 A 
ATOM     58  C   UNL     1       5.448  -5.858  25.291  0.00  0.00    -0.021 A 
ATOM     59  C   UNL     1       6.281  -5.603  26.388  0.00  0.00    +0.057 A 
ATOM     60  C   UNL     1       5.945  -6.112  27.633  0.00  0.00    +0.159 A 
ATOM     61  C   UNL     1       4.794  -6.876  27.801  0.00  0.00    +0.158 A 
ATOM     62  C   UNL     1       3.956  -7.135  26.723  0.00  0.00    +0.050 A 
BRANCH  61  63
ATOM     63  O   UNL     1       4.506  -7.321  29.062  0.00  0.00    -0.503 OA
ATOM     64  H   UNL     1       5.352  -7.431  29.531  0.00  0.00    +0.292 HD
ENDBRANCH  61  63
BRANCH  60  65
ATOM     65  O   UNL     1       6.754  -5.846  28.700  0.00  0.00    -0.503 OA
ATOM     66  H   UNL     1       6.198  -5.293  29.285  0.00  0.00    +0.292 HD
ENDBRANCH  60  65
ENDBRANCH  55  58
ENDBRANCH  53  56
ENDBRANCH  52  53
ENDBRANCH  51  52
ENDBRANCH  39  51
ENDBRANCH  38  41
ENDBRANCH   1  38
TORSDOF 21
ENDMDL
MODEL 9
REMARK VINA RESULT:      -6.4      2.453      8.356
REMARK  Name = 
REMARK  21 active torsions:
REMARK  status: ('A' for Active; 'I' for Inactive)
REMARK    1  A    between atoms: C_3  and  O_66
REMARK    2  A    between atoms: C_4  and  O_65
REMARK    3  A    between atoms: C_6  and  C_7
REMARK    4  A    between atoms: C_8  and  C_9
REMARK    5  A    between atoms: C_9  and  O_11
REMARK    6  A    between atoms: O_11  and  C_12
REMARK    7  A    between atoms: C_12  and  C_13
REMARK    8  A    between atoms: C_15  and  O_64
REMARK    9  A    between atoms: C_17  and  O_63
REMARK   10  A    between atoms: C_19  and  O_62
REMARK   11  A    between atoms: C_21  and  O_24
REMARK   12  A    between atoms: O_24  and  C_25
REMARK   13  A    between atoms: C_27  and  O_61
REMARK   14  A    between atoms: C_29  and  O_60
REMARK   15  A    between atoms: C_31  and  C_58
REMARK   16  A    between atoms: C_34  and  O_36
REMARK   17  A    between atoms: O_36  and  C_37
REMARK   18  A    between atoms: C_38  and  C_50
REMARK   19  A    between atoms: C_42  and  O_49
REMARK   20  A    between atoms: C_52  and  O_57
REMARK   21  A    between atoms: C_58  and  O_59
REMARK                            x       y       z     vdW  Elec       q    Type
REMARK                         _______ _______ _______ _____ _____    ______ ____
ROOT
ATOM      1  C   UNL     1       5.284  -1.559  25.155  0.00  0.00    +0.221 C 
ATOM      2  C   UNL     1       4.827  -2.741  26.093  0.00  0.00    +0.340 C 
ATOM      3  O   UNL     1       5.685  -3.870  25.791  0.00  0.00    -0.331 OA
ATOM      4  C   UNL     1       5.304  -4.492  24.559  0.00  0.00    +0.179 C 
ATOM      5  C   UNL     1       5.843  -3.563  23.484  0.00  0.00    +0.177 C 
ATOM      6  C   UNL     1       5.317  -2.106  23.684  0.00  0.00    +0.180 C 
ENDROOT
BRANCH   6   7
ATOM      7  O   UNL     1       6.151  -1.286  22.834  0.00  0.00    -0.386 OA
ATOM      8  H   UNL     1       6.865  -1.858  22.510  0.00  0.00    +0.210 HD
ENDBRANCH   6   7
BRANCH   5   9
ATOM      9  O   UNL     1       5.447  -4.017  22.178  0.00  0.00    -0.386 OA
ATOM     10  H   UNL     1       4.935  -3.285  21.795  0.00  0.00    +0.210 HD
ENDBRANCH   5   9
BRANCH   4  11
ATOM     11  C   UNL     1       5.789  -5.957  24.419  0.00  0.00    +0.190 C 
BRANCH  11  12
ATOM     12  O   UNL     1       5.232  -6.645  23.294  0.00  0.00    -0.392 OA
ATOM     13  H   UNL     1       5.973  -7.189  22.966  0.00  0.00    +0.210 HD
ENDBRANCH  11  12
ENDBRANCH   4  11
BRANCH   2  14
ATOM     14  O   UNL     1       4.932  -2.433  27.493  0.00  0.00    -0.453 OA
BRANCH  14  15
ATOM     15  C   UNL     1       4.078  -3.181  28.315  0.00  0.00    +0.214 A 
ATOM     16  C   UNL     1       4.514  -4.512  28.881  0.00  0.00    +0.234 A 
ATOM     17  O   UNL     1       5.660  -4.683  29.276  0.00  0.00    -0.283 OA
ATOM     18  C   UNL     1       3.455  -5.507  29.133  0.00  0.00    +0.060 A 
ATOM     19  C   UNL     1       2.216  -4.943  29.466  0.00  0.00    +0.142 A 
ATOM     20  C   UNL     1       1.180  -5.762  29.905  0.00  0.00    +0.092 A 
ATOM     21  C   UNL     1       1.405  -7.132  30.016  0.00  0.00    +0.120 A 
ATOM     22  C   UNL     1       2.630  -7.686  29.648  0.00  0.00    +0.038 A 
ATOM     23  O   UNL     1       1.991  -3.576  29.459  0.00  0.00    -0.451 OA
ATOM     24  C   UNL     1       3.701  -6.919  29.146  0.00  0.00    -0.090 A 
ATOM     25  O   UNL     1       4.767  -7.497  28.742  0.00  0.00    -0.873 OA
ATOM     26  C   UNL     1       2.888  -2.726  28.783  0.00  0.00    +0.181 A 
BRANCH  26  27
ATOM     27  C   UNL     1       2.408  -1.292  28.699  0.00  0.00    +0.024 A 
ATOM     28  C   UNL     1       2.241  -0.498  29.850  0.00  0.00    +0.011 A 
ATOM     29  C   UNL     1       1.954   0.896  29.802  0.00  0.00    -0.004 A 
ATOM     30  C   UNL     1       1.822   1.597  28.601  0.00  0.00    -0.066 A 
ATOM     31  O   UNL     1       1.611   2.877  28.550  0.00  0.00    -0.871 OA
ATOM     32  C   UNL     1       1.919   0.767  27.468  0.00  0.00    +0.110 A 
ATOM     33  C   UNL     1       2.206  -0.598  27.506  0.00  0.00    +0.056 A 
BRANCH  32  34
ATOM     34  O   UNL     1       1.850   1.290  26.187  0.00  0.00    -0.507 OA
ATOM     35  H   UNL     1       2.728   1.695  26.088  0.00  0.00    +0.292 HD
ENDBRANCH  32  34
ENDBRANCH  26  27
BRANCH  21  36
ATOM     36  O   UNL     1       0.447  -7.986  30.485  0.00  0.00    -0.507 OA
ATOM     37  H   UNL     1       0.881  -8.828  30.690  0.00  0.00    +0.292 HD
ENDBRANCH  21  36
ENDBRANCH  14  15
ENDBRANCH   2  14
BRANCH   1  38
ATOM     38  O   UNL     1       4.702  -0.206  25.238  0.00  0.00    -0.337 OA
BRANCH  38  41
ATOM     39  C   UNL     1       7.144   2.444  24.650  0.00  0.00    +0.190 C 
ATOM     40  O   UNL     1       6.474   1.182  24.518  0.00  0.00    -0.339 OA
ATOM     41  C   UNL     1       5.450   0.993  25.506  0.00  0.00    +0.282 C 
ATOM     42  C   UNL     1       6.249   0.932  26.891  0.00  0.00    +0.201 C 
ATOM     43  C   UNL     1       6.914   2.311  27.166  0.00  0.00    +0.179 C 
ATOM     44  C   UNL     1       7.843   2.679  26.011  0.00  0.00    +0.178 C 
BRANCH  44  45
ATOM     45  O   UNL     1       8.236   4.059  26.147  0.00  0.00    -0.386 OA
ATOM     46  H   UNL     1       9.152   4.135  25.821  0.00  0.00    +0.210 HD
ENDBRANCH  44  45
BRANCH  43  47
ATOM     47  O   UNL     1       7.693   2.297  28.384  0.00  0.00    -0.386 OA
ATOM     48  H   UNL     1       8.629   2.394  28.126  0.00  0.00    +0.210 HD
ENDBRANCH  43  47
BRANCH  42  49
ATOM     49  O   UNL     1       5.458   0.514  28.002  0.00  0.00    -0.384 OA
ATOM     50  H   UNL     1       5.436  -0.457  28.050  0.00  0.00    +0.210 HD
ENDBRANCH  42  49
BRANCH  39  51
ATOM     51  C   UNL     1       8.198   2.524  23.529  0.00  0.00    +0.266 C 
BRANCH  51  52
ATOM     52  O   UNL     1       9.339   1.720  23.835  0.00  0.00    -0.459 OA
BRANCH  52  53
ATOM     53  C   UNL     1       9.688   0.917  22.799  0.00  0.00    +0.332 C 
ATOM     54  O   UNL     1      10.148   1.280  21.730  0.00  0.00    -0.246 OA
BRANCH  53  56
ATOM     55  C   UNL     1       9.214  -0.727  24.476  0.00  0.00    +0.015 C 
ATOM     56  C   UNL     1       9.439  -0.475  23.180  0.00  0.00    +0.092 C 
BRANCH  55  58
ATOM     57  C   UNL     1       8.628  -2.159  26.388  0.00  0.00    +0.012 A 
ATOM     58  C   UNL     1       9.011  -2.061  25.042  0.00  0.00    -0.021 A 
ATOM     59  C   UNL     1       9.277  -3.226  24.313  0.00  0.00    +0.057 A 
ATOM     60  C   UNL     1       9.160  -4.461  24.933  0.00  0.00    +0.159 A 
ATOM     61  C   UNL     1       8.779  -4.552  26.268  0.00  0.00    +0.158 A 
ATOM     62  C   UNL     1       8.515  -3.404  27.006  0.00  0.00    +0.050 A 
BRANCH  61  63
ATOM     63  O   UNL     1       8.713  -5.799  26.826  0.00  0.00    -0.503 OA
ATOM     64  H   UNL     1       8.503  -5.684  27.769  0.00  0.00    +0.292 HD
ENDBRANCH  61  63
BRANCH  60  65
ATOM     65  O   UNL     1       9.436  -5.591  24.219  0.00  0.00    -0.503 OA
ATOM     66  H   UNL     1      10.385  -5.504  23.996  0.00  0.00    +0.292 HD
ENDBRANCH  60  65
ENDBRANCH  55  58
ENDBRANCH  53  56
ENDBRANCH  52  53
ENDBRANCH  51  52
ENDBRANCH  39  51
ENDBRANCH  38  41
ENDBRANCH   1  38
TORSDOF 21
ENDMDL
