MODEL 1
REMARK VINA RESULT:      -6.9      0.000      0.000
REMARK  Name = 
REMARK  17 active torsions:
REMARK  status: ('A' for Active; 'I' for Inactive)
REMARK    1  A    between atoms: C_1  and  C_2
REMARK    2  A    between atoms: C_3  and  O_43
REMARK    3  A    between atoms: C_4  and  O_42
REMARK    4  A    between atoms: C_5  and  O_41
REMARK    5  A    between atoms: C_6  and  O_8
REMARK    6  A    between atoms: O_8  and  C_9
REMARK    7  A    between atoms: C_10  and  O_40
REMARK    8  A    between atoms: C_11  and  O_39
REMARK    9  A    between atoms: C_12  and  C_37
REMARK   10  A    between atoms: C_14  and  C_15
REMARK   11  A    between atoms: C_16  and  O_36
REMARK   12  A    between atoms: C_18  and  O_35
REMARK   13  A    between atoms: C_22  and  C_27
REMARK   14  A    between atoms: C_23  and  O_26
REMARK   15  A    between atoms: C_29  and  O_34
REMARK   16  A    between atoms: C_30  and  O_33
REMARK   17  A    between atoms: C_37  and  O_38
REMARK                            x       y       z     vdW  Elec       q    Type
REMARK                         _______ _______ _______ _____ _____    ______ ____
ROOT
ATOM      1  C   UNL     1       7.783   0.004  23.955  0.00  0.00    +0.186 C 
ATOM      2  C   UNL     1       6.551   0.970  23.896  0.00  0.00    +0.187 C 
ATOM      3  O   UNL     1       6.406   1.472  22.549  0.00  0.00    -0.361 OA
ATOM      4  C   UNL     1       7.513   2.131  21.921  0.00  0.00    +0.175 C 
ATOM      5  C   UNL     1       8.846   1.380  22.077  0.00  0.00    +0.176 C 
ATOM      6  C   UNL     1       9.026   0.779  23.472  0.00  0.00    +0.177 C 
ENDROOT
BRANCH   2   7
ATOM      7  C   UNL     1       6.458   2.084  24.977  0.00  0.00    +0.068 A 
ATOM      8  C   UNL     1       5.495   3.127  24.893  0.00  0.00    +0.152 A 
ATOM      9  O   UNL     1       4.563   3.077  23.877  0.00  0.00    -0.450 OA
ATOM     10  C   UNL     1       3.676   4.130  23.715  0.00  0.00    +0.181 A 
ATOM     11  C   UNL     1       3.614   5.225  24.499  0.00  0.00    +0.208 A 
ATOM     12  C   UNL     1       4.562   5.322  25.631  0.00  0.00    +0.238 A 
ATOM     13  O   UNL     1       4.549   6.317  26.354  0.00  0.00    -0.283 OA
ATOM     14  C   UNL     1       5.500   4.196  25.820  0.00  0.00    +0.110 A 
ATOM     15  C   UNL     1       6.401   4.186  26.891  0.00  0.00    +0.135 A 
ATOM     16  C   UNL     1       7.279   3.133  27.051  0.00  0.00    +0.092 A 
ATOM     17  C   UNL     1       7.303   2.109  26.110  0.00  0.00    +0.130 A 
BRANCH  10  18
ATOM     18  C   UNL     1       2.739   3.983  22.597  0.00  0.00    +0.025 A 
ATOM     19  C   UNL     1       1.740   2.985  22.633  0.00  0.00    +0.015 A 
ATOM     20  C   UNL     1       0.982   2.704  21.496  0.00  0.00    +0.050 A 
ATOM     21  C   UNL     1       1.213   3.423  20.332  0.00  0.00    +0.158 A 
ATOM     22  C   UNL     1       2.183   4.422  20.291  0.00  0.00    +0.159 A 
ATOM     23  C   UNL     1       2.946   4.712  21.417  0.00  0.00    +0.060 A 
BRANCH  22  24
ATOM     24  O   UNL     1       2.378   5.067  19.100  0.00  0.00    -0.503 OA
ATOM     25  H   UNL     1       1.575   5.571  18.886  0.00  0.00    +0.292 HD
ENDBRANCH  22  24
BRANCH  21  26
ATOM     26  O   UNL     1       0.499   3.122  19.210  0.00  0.00    -0.503 OA
ATOM     27  H   UNL     1       0.246   3.988  18.829  0.00  0.00    +0.292 HD
ENDBRANCH  21  26
ENDBRANCH  10  18
BRANCH  15  28
ATOM     28  O   UNL     1       6.428   5.192  27.815  0.00  0.00    -0.506 OA
ATOM     29  H   UNL     1       7.292   5.630  27.841  0.00  0.00    +0.292 HD
ENDBRANCH  15  28
BRANCH  17  30
ATOM     30  O   UNL     1       8.187   1.106  26.375  0.00  0.00    -0.506 OA
ATOM     31  H   UNL     1       9.057   1.321  25.996  0.00  0.00    +0.292 HD
ENDBRANCH  17  30
BRANCH  11  32
ATOM     32  O   UNL     1       2.718   6.269  24.326  0.00  0.00    -0.501 OA
ATOM     33  H   UNL     1       2.762   6.871  25.078  0.00  0.00    +0.292 HD
ENDBRANCH  11  32
ENDBRANCH   2   7
BRANCH   6  34
ATOM     34  O   UNL     1      10.238   0.008  23.523  0.00  0.00    -0.386 OA
ATOM     35  H   UNL     1      10.336  -0.454  22.665  0.00  0.00    +0.210 HD
ENDBRANCH   6  34
BRANCH   5  36
ATOM     36  O   UNL     1       9.972   2.223  21.766  0.00  0.00    -0.386 OA
ATOM     37  H   UNL     1       9.694   2.893  21.114  0.00  0.00    +0.210 HD
ENDBRANCH   5  36
BRANCH   4  38
ATOM     38  C   UNL     1       7.562   3.634  22.264  0.00  0.00    +0.190 C 
BRANCH  38  39
ATOM     39  O   UNL     1       6.421   4.362  21.825  0.00  0.00    -0.392 OA
ATOM     40  H   UNL     1       6.736   5.080  21.242  0.00  0.00    +0.210 HD
ENDBRANCH  38  39
ENDBRANCH   4  38
BRANCH   1  41
ATOM     41  O   UNL     1       7.536  -1.252  23.284  0.00  0.00    -0.340 OA
BRANCH  41  45
ATOM     42  C   UNL     1       6.218  -3.501  26.551  0.00  0.00    +0.041 C 
ATOM     43  C   UNL     1       7.675  -3.018  26.470  0.00  0.00    +0.149 C 
ATOM     44  O   UNL     1       7.833  -1.967  25.497  0.00  0.00    -0.343 OA
ATOM     45  C   UNL     1       7.604  -2.407  24.148  0.00  0.00    +0.282 C 
ATOM     46  C   UNL     1       8.682  -3.477  23.794  0.00  0.00    +0.201 C 
ATOM     47  C   UNL     1       8.579  -4.652  24.773  0.00  0.00    +0.179 C 
ATOM     48  C   UNL     1       8.670  -4.167  26.225  0.00  0.00    +0.174 C 
BRANCH  48  49
ATOM     49  O   UNL     1       8.421  -5.233  27.148  0.00  0.00    -0.387 OA
ATOM     50  H   UNL     1       7.624  -5.006  27.662  0.00  0.00    +0.210 HD
ENDBRANCH  48  49
BRANCH  47  51
ATOM     51  O   UNL     1       9.611  -5.614  24.515  0.00  0.00    -0.386 OA
ATOM     52  H   UNL     1       9.620  -5.741  23.543  0.00  0.00    +0.210 HD
ENDBRANCH  47  51
BRANCH  46  53
ATOM     53  O   UNL     1      10.023  -2.949  23.862  0.00  0.00    -0.384 OA
ATOM     54  H   UNL     1      10.153  -2.622  24.774  0.00  0.00    +0.210 HD
ENDBRANCH  46  53
ENDBRANCH  41  45
ENDBRANCH   1  41
TORSDOF 16
ENDMDL
MODEL 2
REMARK VINA RESULT:      -6.9      3.969      7.882
REMARK  Name = 
REMARK  17 active torsions:
REMARK  status: ('A' for Active; 'I' for Inactive)
REMARK    1  A    between atoms: C_1  and  C_2
REMARK    2  A    between atoms: C_3  and  O_43
REMARK    3  A    between atoms: C_4  and  O_42
REMARK    4  A    between atoms: C_5  and  O_41
REMARK    5  A    between atoms: C_6  and  O_8
REMARK    6  A    between atoms: O_8  and  C_9
REMARK    7  A    between atoms: C_10  and  O_40
REMARK    8  A    between atoms: C_11  and  O_39
REMARK    9  A    between atoms: C_12  and  C_37
REMARK   10  A    between atoms: C_14  and  C_15
REMARK   11  A    between atoms: C_16  and  O_36
REMARK   12  A    between atoms: C_18  and  O_35
REMARK   13  A    between atoms: C_22  and  C_27
REMARK   14  A    between atoms: C_23  and  O_26
REMARK   15  A    between atoms: C_29  and  O_34
REMARK   16  A    between atoms: C_30  and  O_33
REMARK   17  A    between atoms: C_37  and  O_38
REMARK                            x       y       z     vdW  Elec       q    Type
REMARK                         _______ _______ _______ _____ _____    ______ ____
ROOT
ATOM      1  C   UNL     1       5.915  -4.256  24.189  0.00  0.00    +0.186 C 
ATOM      2  C   UNL     1       6.080  -2.867  23.485  0.00  0.00    +0.187 C 
ATOM      3  O   UNL     1       7.263  -2.892  22.657  0.00  0.00    -0.361 OA
ATOM      4  C   UNL     1       8.525  -3.243  23.242  0.00  0.00    +0.175 C 
ATOM      5  C   UNL     1       8.463  -4.493  24.134  0.00  0.00    +0.176 C 
ATOM      6  C   UNL     1       7.199  -4.544  24.994  0.00  0.00    +0.177 C 
ENDROOT
BRANCH   2   7
ATOM      7  C   UNL     1       5.983  -1.595  24.374  0.00  0.00    +0.068 A 
ATOM      8  C   UNL     1       5.502  -1.652  25.711  0.00  0.00    +0.152 A 
ATOM      9  O   UNL     1       5.217  -2.890  26.251  0.00  0.00    -0.450 OA
ATOM     10  C   UNL     1       4.657  -2.968  27.516  0.00  0.00    +0.181 A 
ATOM     11  C   UNL     1       4.379  -1.915  28.312  0.00  0.00    +0.208 A 
ATOM     12  C   UNL     1       4.697  -0.561  27.807  0.00  0.00    +0.238 A 
ATOM     13  O   UNL     1       4.437   0.424  28.497  0.00  0.00    -0.283 OA
ATOM     14  C   UNL     1       5.310  -0.471  26.466  0.00  0.00    +0.110 A 
ATOM     15  C   UNL     1       5.682   0.767  25.929  0.00  0.00    +0.135 A 
ATOM     16  C   UNL     1       6.244   0.839  24.671  0.00  0.00    +0.092 A 
ATOM     17  C   UNL     1       6.386  -0.321  23.915  0.00  0.00    +0.130 A 
BRANCH  10  18
ATOM     18  C   UNL     1       4.379  -4.327  27.988  0.00  0.00    +0.025 A 
ATOM     19  C   UNL     1       3.059  -4.829  27.976  0.00  0.00    +0.015 A 
ATOM     20  C   UNL     1       2.757  -6.035  28.610  0.00  0.00    +0.050 A 
ATOM     21  C   UNL     1       3.769  -6.741  29.243  0.00  0.00    +0.158 A 
ATOM     22  C   UNL     1       5.078  -6.265  29.245  0.00  0.00    +0.159 A 
ATOM     23  C   UNL     1       5.393  -5.065  28.617  0.00  0.00    +0.060 A 
BRANCH  22  24
ATOM     24  O   UNL     1       6.018  -6.998  29.917  0.00  0.00    -0.503 OA
ATOM     25  H   UNL     1       5.565  -7.698  30.417  0.00  0.00    +0.292 HD
ENDBRANCH  22  24
BRANCH  21  26
ATOM     26  O   UNL     1       3.466  -7.900  29.895  0.00  0.00    -0.503 OA
ATOM     27  H   UNL     1       2.903  -8.402  29.272  0.00  0.00    +0.292 HD
ENDBRANCH  21  26
ENDBRANCH  10  18
BRANCH  15  28
ATOM     28  O   UNL     1       5.525   1.928  26.631  0.00  0.00    -0.506 OA
ATOM     29  H   UNL     1       6.366   2.243  26.993  0.00  0.00    +0.292 HD
ENDBRANCH  15  28
BRANCH  17  30
ATOM     30  O   UNL     1       6.975  -0.144  22.698  0.00  0.00    -0.506 OA
ATOM     31  H   UNL     1       7.914   0.089  22.814  0.00  0.00    +0.292 HD
ENDBRANCH  17  30
BRANCH  11  32
ATOM     32  O   UNL     1       3.821  -2.009  29.578  0.00  0.00    -0.501 OA
ATOM     33  H   UNL     1       3.696  -2.936  29.817  0.00  0.00    +0.292 HD
ENDBRANCH  11  32
ENDBRANCH   2   7
BRANCH   6  34
ATOM     34  O   UNL     1       7.151  -5.780  25.727  0.00  0.00    -0.386 OA
ATOM     35  H   UNL     1       6.239  -5.893  26.067  0.00  0.00    +0.210 HD
ENDBRANCH   6  34
BRANCH   5  36
ATOM     36  O   UNL     1       9.624  -4.603  24.979  0.00  0.00    -0.386 OA
ATOM     37  H   UNL     1       9.374  -4.364  25.892  0.00  0.00    +0.210 HD
ENDBRANCH   5  36
BRANCH   4  38
ATOM     38  C   UNL     1       9.230  -2.023  23.869  0.00  0.00    +0.190 C 
BRANCH  38  39
ATOM     39  O   UNL     1       9.774  -1.119  22.914  0.00  0.00    -0.392 OA
ATOM     40  H   UNL     1      10.451  -0.581  23.370  0.00  0.00    +0.210 HD
ENDBRANCH  38  39
ENDBRANCH   4  38
BRANCH   1  41
ATOM     41  O   UNL     1       5.512  -5.299  23.272  0.00  0.00    -0.340 OA
BRANCH  41  45
ATOM     42  C   UNL     1       1.340  -5.256  23.018  0.00  0.00    +0.041 C 
ATOM     43  C   UNL     1       2.041  -5.258  24.385  0.00  0.00    +0.149 C 
ATOM     44  O   UNL     1       3.431  -4.894  24.272  0.00  0.00    -0.343 OA
ATOM     45  C   UNL     1       4.211  -5.860  23.551  0.00  0.00    +0.282 C 
ATOM     46  C   UNL     1       4.190  -7.200  24.350  0.00  0.00    +0.201 C 
ATOM     47  C   UNL     1       2.742  -7.679  24.508  0.00  0.00    +0.179 C 
ATOM     48  C   UNL     1       1.868  -6.589  25.140  0.00  0.00    +0.174 C 
BRANCH  48  49
ATOM     49  O   UNL     1       0.487  -6.968  25.150  0.00  0.00    -0.387 OA
ATOM     50  H   UNL     1       0.162  -6.947  24.231  0.00  0.00    +0.210 HD
ENDBRANCH  48  49
BRANCH  47  51
ATOM     51  O   UNL     1       2.691  -8.869  25.307  0.00  0.00    -0.386 OA
ATOM     52  H   UNL     1       1.740  -9.036  25.475  0.00  0.00    +0.210 HD
ENDBRANCH  47  51
BRANCH  46  53
ATOM     53  O   UNL     1       4.765  -7.063  25.666  0.00  0.00    -0.384 OA
ATOM     54  H   UNL     1       4.039  -7.186  26.308  0.00  0.00    +0.210 HD
ENDBRANCH  46  53
ENDBRANCH  41  45
ENDBRANCH   1  41
TORSDOF 16
ENDMDL
MODEL 3
REMARK VINA RESULT:      -6.8      3.153      6.971
REMARK  Name = 
REMARK  17 active torsions:
REMARK  status: ('A' for Active; 'I' for Inactive)
REMARK    1  A    between atoms: C_1  and  C_2
REMARK    2  A    between atoms: C_3  and  O_43
REMARK    3  A    between atoms: C_4  and  O_42
REMARK    4  A    between atoms: C_5  and  O_41
REMARK    5  A    between atoms: C_6  and  O_8
REMARK    6  A    between atoms: O_8  and  C_9
REMARK    7  A    between atoms: C_10  and  O_40
REMARK    8  A    between atoms: C_11  and  O_39
REMARK    9  A    between atoms: C_12  and  C_37
REMARK   10  A    between atoms: C_14  and  C_15
REMARK   11  A    between atoms: C_16  and  O_36
REMARK   12  A    between atoms: C_18  and  O_35
REMARK   13  A    between atoms: C_22  and  C_27
REMARK   14  A    between atoms: C_23  and  O_26
REMARK   15  A    between atoms: C_29  and  O_34
REMARK   16  A    between atoms: C_30  and  O_33
REMARK   17  A    between atoms: C_37  and  O_38
REMARK                            x       y       z     vdW  Elec       q    Type
REMARK                         _______ _______ _______ _____ _____    ______ ____
ROOT
ATOM      1  C   UNL     1       7.503  -2.393  25.047  0.00  0.00    +0.186 C 
ATOM      2  C   UNL     1       7.396  -3.759  25.804  0.00  0.00    +0.187 C 
ATOM      3  O   UNL     1       7.518  -4.840  24.852  0.00  0.00    -0.361 OA
ATOM      4  C   UNL     1       6.632  -4.889  23.726  0.00  0.00    +0.175 C 
ATOM      5  C   UNL     1       6.486  -3.542  22.999  0.00  0.00    +0.176 C 
ATOM      6  C   UNL     1       6.408  -2.356  23.961  0.00  0.00    +0.177 C 
ENDROOT
BRANCH   2   7
ATOM      7  C   UNL     1       6.208  -3.944  26.789  0.00  0.00    +0.068 A 
ATOM      8  C   UNL     1       5.427  -2.842  27.234  0.00  0.00    +0.152 A 
ATOM      9  O   UNL     1       5.678  -1.600  26.687  0.00  0.00    -0.450 OA
ATOM     10  C   UNL     1       4.999  -0.493  27.172  0.00  0.00    +0.181 A 
ATOM     11  C   UNL     1       4.062  -0.516  28.140  0.00  0.00    +0.208 A 
ATOM     12  C   UNL     1       3.718  -1.824  28.742  0.00  0.00    +0.238 A 
ATOM     13  O   UNL     1       2.883  -1.880  29.644  0.00  0.00    -0.283 OA
ATOM     14  C   UNL     1       4.426  -3.010  28.219  0.00  0.00    +0.110 A 
ATOM     15  C   UNL     1       4.131  -4.291  28.701  0.00  0.00    +0.135 A 
ATOM     16  C   UNL     1       4.806  -5.390  28.212  0.00  0.00    +0.092 A 
ATOM     17  C   UNL     1       5.823  -5.213  27.278  0.00  0.00    +0.130 A 
BRANCH  10  18
ATOM     18  C   UNL     1       5.352   0.778  26.533  0.00  0.00    +0.025 A 
ATOM     19  C   UNL     1       4.846   1.096  25.253  0.00  0.00    +0.015 A 
ATOM     20  C   UNL     1       5.336   2.200  24.554  0.00  0.00    +0.050 A 
ATOM     21  C   UNL     1       6.319   2.988  25.135  0.00  0.00    +0.158 A 
ATOM     22  C   UNL     1       6.811   2.695  26.405  0.00  0.00    +0.159 A 
ATOM     23  C   UNL     1       6.332   1.598  27.112  0.00  0.00    +0.060 A 
BRANCH  22  24
ATOM     24  O   UNL     1       7.802   3.498  26.901  0.00  0.00    -0.503 OA
ATOM     25  H   UNL     1       8.554   3.478  26.285  0.00  0.00    +0.292 HD
ENDBRANCH  22  24
BRANCH  21  26
ATOM     26  O   UNL     1       6.824   4.044  24.436  0.00  0.00    -0.503 OA
ATOM     27  H   UNL     1       7.795   3.917  24.449  0.00  0.00    +0.292 HD
ENDBRANCH  21  26
ENDBRANCH  10  18
BRANCH  15  28
ATOM     28  O   UNL     1       3.162  -4.497  29.642  0.00  0.00    -0.506 OA
ATOM     29  H   UNL     1       3.041  -3.718  30.206  0.00  0.00    +0.292 HD
ENDBRANCH  15  28
BRANCH  17  30
ATOM     30  O   UNL     1       6.408  -6.364  26.842  0.00  0.00    -0.506 OA
ATOM     31  H   UNL     1       6.238  -7.085  27.474  0.00  0.00    +0.292 HD
ENDBRANCH  17  30
BRANCH  11  32
ATOM     32  O   UNL     1       3.388   0.600  28.613  0.00  0.00    -0.501 OA
ATOM     33  H   UNL     1       2.492   0.623  28.254  0.00  0.00    +0.292 HD
ENDBRANCH  11  32
ENDBRANCH   2   7
BRANCH   6  34
ATOM     34  O   UNL     1       6.375  -1.124  23.222  0.00  0.00    -0.386 OA
ATOM     35  H   UNL     1       5.630  -0.587  23.565  0.00  0.00    +0.210 HD
ENDBRANCH   6  34
BRANCH   5  36
ATOM     36  O   UNL     1       5.340  -3.530  22.125  0.00  0.00    -0.386 OA
ATOM     37  H   UNL     1       5.382  -4.309  21.540  0.00  0.00    +0.210 HD
ENDBRANCH   5  36
BRANCH   4  38
ATOM     38  C   UNL     1       5.306  -5.600  24.064  0.00  0.00    +0.190 C 
BRANCH  38  39
ATOM     39  O   UNL     1       4.781  -6.378  22.994  0.00  0.00    -0.392 OA
ATOM     40  H   UNL     1       4.743  -7.307  23.296  0.00  0.00    +0.210 HD
ENDBRANCH  38  39
ENDBRANCH   4  38
BRANCH   1  41
ATOM     41  O   UNL     1       8.844  -2.119  24.583  0.00  0.00    -0.340 OA
BRANCH  41  45
ATOM     42  C   UNL     1       8.853   0.081  21.029  0.00  0.00    +0.041 C 
ATOM     43  C   UNL     1      10.088   0.067  21.943  0.00  0.00    +0.149 C 
ATOM     44  O   UNL     1      10.036  -1.018  22.890  0.00  0.00    -0.343 OA
ATOM     45  C   UNL     1       8.974  -0.882  23.848  0.00  0.00    +0.282 C 
ATOM     46  C   UNL     1       9.239   0.403  24.692  0.00  0.00    +0.201 C 
ATOM     47  C   UNL     1       9.294   1.622  23.765  0.00  0.00    +0.179 C 
ATOM     48  C   UNL     1      10.322   1.417  22.646  0.00  0.00    +0.174 C 
BRANCH  48  49
ATOM     49  O   UNL     1      10.272   2.480  21.689  0.00  0.00    -0.387 OA
ATOM     50  H   UNL     1      10.499   2.111  20.816  0.00  0.00    +0.210 HD
ENDBRANCH  48  49
BRANCH  47  51
ATOM     51  O   UNL     1       9.613   2.806  24.509  0.00  0.00    -0.386 OA
ATOM     52  H   UNL     1       9.239   2.667  25.404  0.00  0.00    +0.210 HD
ENDBRANCH  47  51
BRANCH  46  53
ATOM     53  O   UNL     1      10.482   0.334  25.421  0.00  0.00    -0.384 OA
ATOM     54  H   UNL     1      10.253   0.280  26.369  0.00  0.00    +0.210 HD
ENDBRANCH  46  53
ENDBRANCH  41  45
ENDBRANCH   1  41
TORSDOF 16
ENDMDL
MODEL 4
REMARK VINA RESULT:      -6.8      2.954      5.405
REMARK  Name = 
REMARK  17 active torsions:
REMARK  status: ('A' for Active; 'I' for Inactive)
REMARK    1  A    between atoms: C_1  and  C_2
REMARK    2  A    between atoms: C_3  and  O_43
REMARK    3  A    between atoms: C_4  and  O_42
REMARK    4  A    between atoms: C_5  and  O_41
REMARK    5  A    between atoms: C_6  and  O_8
REMARK    6  A    between atoms: O_8  and  C_9
REMARK    7  A    between atoms: C_10  and  O_40
REMARK    8  A    between atoms: C_11  and  O_39
REMARK    9  A    between atoms: C_12  and  C_37
REMARK   10  A    between atoms: C_14  and  C_15
REMARK   11  A    between atoms: C_16  and  O_36
REMARK   12  A    between atoms: C_18  and  O_35
REMARK   13  A    between atoms: C_22  and  C_27
REMARK   14  A    between atoms: C_23  and  O_26
REMARK   15  A    between atoms: C_29  and  O_34
REMARK   16  A    between atoms: C_30  and  O_33
REMARK   17  A    between atoms: C_37  and  O_38
REMARK                            x       y       z     vdW  Elec       q    Type
REMARK                         _______ _______ _______ _____ _____    ______ ____
ROOT
ATOM      1  C   UNL     1       7.727  -0.686  23.239  0.00  0.00    +0.186 C 
ATOM      2  C   UNL     1       7.569   0.672  22.478  0.00  0.00    +0.187 C 
ATOM      3  O   UNL     1       8.840   1.042  21.897  0.00  0.00    -0.361 OA
ATOM      4  C   UNL     1       9.995   1.141  22.740  0.00  0.00    +0.175 C 
ATOM      5  C   UNL     1      10.164  -0.051  23.696  0.00  0.00    +0.176 C 
ATOM      6  C   UNL     1       8.838  -0.519  24.297  0.00  0.00    +0.177 C 
ENDROOT
BRANCH   2   7
ATOM      7  C   UNL     1       6.877   1.843  23.232  0.00  0.00    +0.068 A 
ATOM      8  C   UNL     1       6.058   1.617  24.372  0.00  0.00    +0.152 A 
ATOM      9  O   UNL     1       5.970   0.333  24.870  0.00  0.00    -0.450 OA
ATOM     10  C   UNL     1       5.105   0.069  25.920  0.00  0.00    +0.181 A 
ATOM     11  C   UNL     1       4.335   0.981  26.544  0.00  0.00    +0.208 A 
ATOM     12  C   UNL     1       4.411   2.386  26.083  0.00  0.00    +0.238 A 
ATOM     13  O   UNL     1       3.705   3.242  26.615  0.00  0.00    -0.283 OA
ATOM     14  C   UNL     1       5.344   2.679  24.975  0.00  0.00    +0.110 A 
ATOM     15  C   UNL     1       5.510   3.987  24.506  0.00  0.00    +0.135 A 
ATOM     16  C   UNL     1       6.377   4.246  23.464  0.00  0.00    +0.092 A 
ATOM     17  C   UNL     1       7.041   3.192  22.843  0.00  0.00    +0.130 A 
BRANCH  10  18
ATOM     18  C   UNL     1       5.077  -1.329  26.361  0.00  0.00    +0.025 A 
ATOM     19  C   UNL     1       6.230  -1.921  26.923  0.00  0.00    +0.015 A 
ATOM     20  C   UNL     1       6.276  -3.296  27.154  0.00  0.00    +0.050 A 
ATOM     21  C   UNL     1       5.173  -4.075  26.834  0.00  0.00    +0.158 A 
ATOM     22  C   UNL     1       4.024  -3.499  26.298  0.00  0.00    +0.159 A 
ATOM     23  C   UNL     1       3.965  -2.130  26.062  0.00  0.00    +0.060 A 
BRANCH  22  24
ATOM     24  O   UNL     1       2.988  -4.333  25.978  0.00  0.00    -0.503 OA
ATOM     25  H   UNL     1       2.605  -4.040  25.134  0.00  0.00    +0.292 HD
ENDBRANCH  22  24
BRANCH  21  26
ATOM     26  O   UNL     1       5.233  -5.424  27.025  0.00  0.00    -0.503 OA
ATOM     27  H   UNL     1       4.859  -5.572  27.917  0.00  0.00    +0.292 HD
ENDBRANCH  21  26
ENDBRANCH  10  18
BRANCH  15  28
ATOM     28  O   UNL     1       4.849   5.040  25.070  0.00  0.00    -0.506 OA
ATOM     29  H   UNL     1       4.158   4.742  25.681  0.00  0.00    +0.292 HD
ENDBRANCH  15  28
BRANCH  17  30
ATOM     30  O   UNL     1       7.891   3.559  21.843  0.00  0.00    -0.506 OA
ATOM     31  H   UNL     1       7.472   4.234  21.281  0.00  0.00    +0.292 HD
ENDBRANCH  17  30
BRANCH  11  32
ATOM     32  O   UNL     1       3.475   0.701  27.597  0.00  0.00    -0.501 OA
ATOM     33  H   UNL     1       3.452   1.444  28.212  0.00  0.00    +0.292 HD
ENDBRANCH  11  32
ENDBRANCH   2   7
BRANCH   6  34
ATOM     34  O   UNL     1       9.048  -1.695  25.098  0.00  0.00    -0.386 OA
ATOM     35  H   UNL     1       8.243  -2.250  25.034  0.00  0.00    +0.210 HD
ENDBRANCH   6  34
BRANCH   5  36
ATOM     36  O   UNL     1      11.095   0.242  24.755  0.00  0.00    -0.386 OA
ATOM     37  H   UNL     1      11.977   0.395  24.367  0.00  0.00    +0.210 HD
ENDBRANCH   5  36
BRANCH   4  38
ATOM     38  C   UNL     1      10.115   2.531  23.397  0.00  0.00    +0.190 C 
BRANCH  38  39
ATOM     39  O   UNL     1      10.846   3.474  22.621  0.00  0.00    -0.392 OA
ATOM     40  H   UNL     1      11.712   3.605  23.055  0.00  0.00    +0.210 HD
ENDBRANCH  38  39
ENDBRANCH   4  38
BRANCH   1  41
ATOM     41  O   UNL     1       7.889  -1.809  22.344  0.00  0.00    -0.340 OA
BRANCH  41  45
ATOM     42  C   UNL     1       7.919  -5.594  24.119  0.00  0.00    +0.041 C 
ATOM     43  C   UNL     1       7.417  -5.409  22.678  0.00  0.00    +0.149 C 
ATOM     44  O   UNL     1       7.832  -4.143  22.128  0.00  0.00    -0.343 OA
ATOM     45  C   UNL     1       7.230  -3.017  22.786  0.00  0.00    +0.282 C 
ATOM     46  C   UNL     1       5.687  -3.088  22.564  0.00  0.00    +0.201 C 
ATOM     47  C   UNL     1       5.148  -4.403  23.137  0.00  0.00    +0.179 C 
ATOM     48  C   UNL     1       5.895  -5.607  22.549  0.00  0.00    +0.174 C 
BRANCH  48  49
ATOM     49  O   UNL     1       5.506  -6.826  23.190  0.00  0.00    -0.387 OA
ATOM     50  H   UNL     1       5.306  -7.481  22.495  0.00  0.00    +0.210 HD
ENDBRANCH  48  49
BRANCH  47  51
ATOM     51  O   UNL     1       3.743  -4.527  22.876  0.00  0.00    -0.386 OA
ATOM     52  H   UNL     1       3.566  -3.958  22.097  0.00  0.00    +0.210 HD
ENDBRANCH  47  51
BRANCH  46  53
ATOM     53  O   UNL     1       5.331  -3.024  21.168  0.00  0.00    -0.384 OA
ATOM     54  H   UNL     1       4.761  -2.238  21.055  0.00  0.00    +0.210 HD
ENDBRANCH  46  53
ENDBRANCH  41  45
ENDBRANCH   1  41
TORSDOF 16
ENDMDL
MODEL 5
REMARK VINA RESULT:      -6.6      3.161      6.346
REMARK  Name = 
REMARK  17 active torsions:
REMARK  status: ('A' for Active; 'I' for Inactive)
REMARK    1  A    between atoms: C_1  and  C_2
REMARK    2  A    between atoms: C_3  and  O_43
REMARK    3  A    between atoms: C_4  and  O_42
REMARK    4  A    between atoms: C_5  and  O_41
REMARK    5  A    between atoms: C_6  and  O_8
REMARK    6  A    between atoms: O_8  and  C_9
REMARK    7  A    between atoms: C_10  and  O_40
REMARK    8  A    between atoms: C_11  and  O_39
REMARK    9  A    between atoms: C_12  and  C_37
REMARK   10  A    between atoms: C_14  and  C_15
REMARK   11  A    between atoms: C_16  and  O_36
REMARK   12  A    between atoms: C_18  and  O_35
REMARK   13  A    between atoms: C_22  and  C_27
REMARK   14  A    between atoms: C_23  and  O_26
REMARK   15  A    between atoms: C_29  and  O_34
REMARK   16  A    between atoms: C_30  and  O_33
REMARK   17  A    between atoms: C_37  and  O_38
REMARK                            x       y       z     vdW  Elec       q    Type
REMARK                         _______ _______ _______ _____ _____    ______ ____
ROOT
ATOM      1  C   UNL     1       6.553  -1.458  23.614  0.00  0.00    +0.186 C 
ATOM      2  C   UNL     1       6.293   0.070  23.389  0.00  0.00    +0.187 C 
ATOM      3  O   UNL     1       7.411   0.641  22.672  0.00  0.00    -0.361 OA
ATOM      4  C   UNL     1       8.735   0.492  23.200  0.00  0.00    +0.175 C 
ATOM      5  C   UNL     1       9.059  -0.941  23.653  0.00  0.00    +0.176 C 
ATOM      6  C   UNL     1       7.887  -1.613  24.371  0.00  0.00    +0.177 C 
ENDROOT
BRANCH   2   7
ATOM      7  C   UNL     1       5.861   0.915  24.621  0.00  0.00    +0.068 A 
ATOM      8  C   UNL     1       5.468   0.306  25.844  0.00  0.00    +0.152 A 
ATOM      9  O   UNL     1       5.576  -1.065  25.956  0.00  0.00    -0.450 OA
ATOM     10  C   UNL     1       5.110  -1.693  27.100  0.00  0.00    +0.181 A 
ATOM     11  C   UNL     1       4.567  -1.071  28.165  0.00  0.00    +0.208 A 
ATOM     12  C   UNL     1       4.456   0.405  28.124  0.00  0.00    +0.238 A 
ATOM     13  O   UNL     1       3.946   1.005  29.069  0.00  0.00    -0.283 OA
ATOM     14  C   UNL     1       4.967   1.083  26.915  0.00  0.00    +0.110 A 
ATOM     15  C   UNL     1       4.941   2.478  26.811  0.00  0.00    +0.135 A 
ATOM     16  C   UNL     1       5.412   3.100  25.672  0.00  0.00    +0.092 A 
ATOM     17  C   UNL     1       5.858   2.328  24.603  0.00  0.00    +0.130 A 
BRANCH  10  18
ATOM     18  C   UNL     1       5.259  -3.151  27.110  0.00  0.00    +0.025 A 
ATOM     19  C   UNL     1       4.127  -3.981  27.264  0.00  0.00    +0.015 A 
ATOM     20  C   UNL     1       4.280  -5.351  27.481  0.00  0.00    +0.050 A 
ATOM     21  C   UNL     1       5.557  -5.891  27.534  0.00  0.00    +0.158 A 
ATOM     22  C   UNL     1       6.680  -5.085  27.365  0.00  0.00    +0.159 A 
ATOM     23  C   UNL     1       6.542  -3.718  27.148  0.00  0.00    +0.060 A 
BRANCH  22  24
ATOM     24  O   UNL     1       7.908  -5.681  27.462  0.00  0.00    -0.503 OA
ATOM     25  H   UNL     1       8.224  -5.590  28.376  0.00  0.00    +0.292 HD
ENDBRANCH  22  24
BRANCH  21  26
ATOM     26  O   UNL     1       5.707  -7.223  27.784  0.00  0.00    -0.503 OA
ATOM     27  H   UNL     1       6.223  -7.568  27.027  0.00  0.00    +0.292 HD
ENDBRANCH  21  26
ENDBRANCH  10  18
BRANCH  15  28
ATOM     28  O   UNL     1       4.478   3.264  27.828  0.00  0.00    -0.506 OA
ATOM     29  H   UNL     1       3.511   3.250  27.878  0.00  0.00    +0.292 HD
ENDBRANCH  15  28
BRANCH  17  30
ATOM     30  O   UNL     1       6.325   3.039  23.539  0.00  0.00    -0.506 OA
ATOM     31  H   UNL     1       7.108   3.556  23.800  0.00  0.00    +0.292 HD
ENDBRANCH  17  30
BRANCH  11  32
ATOM     32  O   UNL     1       4.107  -1.713  29.305  0.00  0.00    -0.501 OA
ATOM     33  H   UNL     1       4.739  -2.386  29.584  0.00  0.00    +0.292 HD
ENDBRANCH  11  32
ENDBRANCH   2   7
BRANCH   6  34
ATOM     34  O   UNL     1       8.216  -2.979  24.678  0.00  0.00    -0.386 OA
ATOM     35  H   UNL     1       8.817  -2.977  25.451  0.00  0.00    +0.210 HD
ENDBRANCH   6  34
BRANCH   5  36
ATOM     36  O   UNL     1      10.227  -0.983  24.496  0.00  0.00    -0.386 OA
ATOM     37  H   UNL     1      10.042  -0.487  25.316  0.00  0.00    +0.210 HD
ENDBRANCH   5  36
BRANCH   4  38
ATOM     38  C   UNL     1       9.080   1.596  24.220  0.00  0.00    +0.190 C 
BRANCH  38  39
ATOM     39  O   UNL     1       9.010   1.170  25.576  0.00  0.00    -0.392 OA
ATOM     40  H   UNL     1       8.984   0.193  25.577  0.00  0.00    +0.210 HD
ENDBRANCH  38  39
ENDBRANCH   4  38
BRANCH   1  41
ATOM     41  O   UNL     1       6.439  -2.225  22.394  0.00  0.00    -0.340 OA
BRANCH  41  45
ATOM     42  C   UNL     1       3.170  -4.574  23.521  0.00  0.00    +0.041 C 
ATOM     43  C   UNL     1       4.548  -4.788  24.167  0.00  0.00    +0.149 C 
ATOM     44  O   UNL     1       5.423  -3.666  23.939  0.00  0.00    -0.343 OA
ATOM     45  C   UNL     1       5.780  -3.500  22.558  0.00  0.00    +0.282 C 
ATOM     46  C   UNL     1       6.581  -4.759  22.104  0.00  0.00    +0.201 C 
ATOM     47  C   UNL     1       5.717  -6.011  22.295  0.00  0.00    +0.179 C 
ATOM     48  C   UNL     1       5.206  -6.113  23.738  0.00  0.00    +0.174 C 
BRANCH  48  49
ATOM     49  O   UNL     1       4.276  -7.191  23.887  0.00  0.00    -0.387 OA
ATOM     50  H   UNL     1       3.395  -6.807  24.052  0.00  0.00    +0.210 HD
ENDBRANCH  48  49
BRANCH  47  51
ATOM     51  O   UNL     1       6.461  -7.191  21.958  0.00  0.00    -0.386 OA
ATOM     52  H   UNL     1       7.207  -6.885  21.401  0.00  0.00    +0.210 HD
ENDBRANCH  47  51
BRANCH  46  53
ATOM     53  O   UNL     1       7.800  -4.933  22.856  0.00  0.00    -0.384 OA
ATOM     54  H   UNL     1       7.540  -5.172  23.767  0.00  0.00    +0.210 HD
ENDBRANCH  46  53
ENDBRANCH  41  45
ENDBRANCH   1  41
TORSDOF 16
ENDMDL
MODEL 6
REMARK VINA RESULT:      -6.6      4.477      8.268
REMARK  Name = 
REMARK  17 active torsions:
REMARK  status: ('A' for Active; 'I' for Inactive)
REMARK    1  A    between atoms: C_1  and  C_2
REMARK    2  A    between atoms: C_3  and  O_43
REMARK    3  A    between atoms: C_4  and  O_42
REMARK    4  A    between atoms: C_5  and  O_41
REMARK    5  A    between atoms: C_6  and  O_8
REMARK    6  A    between atoms: O_8  and  C_9
REMARK    7  A    between atoms: C_10  and  O_40
REMARK    8  A    between atoms: C_11  and  O_39
REMARK    9  A    between atoms: C_12  and  C_37
REMARK   10  A    between atoms: C_14  and  C_15
REMARK   11  A    between atoms: C_16  and  O_36
REMARK   12  A    between atoms: C_18  and  O_35
REMARK   13  A    between atoms: C_22  and  C_27
REMARK   14  A    between atoms: C_23  and  O_26
REMARK   15  A    between atoms: C_29  and  O_34
REMARK   16  A    between atoms: C_30  and  O_33
REMARK   17  A    between atoms: C_37  and  O_38
REMARK                            x       y       z     vdW  Elec       q    Type
REMARK                         _______ _______ _______ _____ _____    ______ ____
ROOT
ATOM      1  C   UNL     1       8.407  -3.362  24.494  0.00  0.00    +0.186 C 
ATOM      2  C   UNL     1       6.923  -3.049  24.882  0.00  0.00    +0.187 C 
ATOM      3  O   UNL     1       6.795  -3.062  26.321  0.00  0.00    -0.361 OA
ATOM      4  C   UNL     1       7.206  -4.224  27.053  0.00  0.00    +0.175 C 
ATOM      5  C   UNL     1       8.580  -4.765  26.628  0.00  0.00    +0.176 C 
ATOM      6  C   UNL     1       8.790  -4.722  25.113  0.00  0.00    +0.177 C 
ENDROOT
BRANCH   2   7
ATOM      7  C   UNL     1       5.806  -3.857  24.161  0.00  0.00    +0.068 A 
ATOM      8  C   UNL     1       4.453  -3.814  24.598  0.00  0.00    +0.152 A 
ATOM      9  O   UNL     1       4.123  -2.950  25.622  0.00  0.00    -0.450 OA
ATOM     10  C   UNL     1       2.835  -2.958  26.131  0.00  0.00    +0.181 A 
ATOM     11  C   UNL     1       1.826  -3.735  25.688  0.00  0.00    +0.208 A 
ATOM     12  C   UNL     1       2.104  -4.658  24.565  0.00  0.00    +0.238 A 
ATOM     13  O   UNL     1       1.214  -5.399  24.149  0.00  0.00    -0.283 OA
ATOM     14  C   UNL     1       3.472  -4.643  24.006  0.00  0.00    +0.110 A 
ATOM     15  C   UNL     1       3.809  -5.452  22.915  0.00  0.00    +0.135 A 
ATOM     16  C   UNL     1       5.092  -5.437  22.408  0.00  0.00    +0.092 A 
ATOM     17  C   UNL     1       6.065  -4.655  23.025  0.00  0.00    +0.130 A 
BRANCH  10  18
ATOM     18  C   UNL     1       2.595  -2.013  27.226  0.00  0.00    +0.025 A 
ATOM     19  C   UNL     1       1.731  -0.912  27.039  0.00  0.00    +0.015 A 
ATOM     20  C   UNL     1       1.659   0.099  27.998  0.00  0.00    +0.050 A 
ATOM     21  C   UNL     1       2.437   0.005  29.143  0.00  0.00    +0.158 A 
ATOM     22  C   UNL     1       3.277  -1.086  29.347  0.00  0.00    +0.159 A 
ATOM     23  C   UNL     1       3.360  -2.101  28.399  0.00  0.00    +0.060 A 
BRANCH  22  24
ATOM     24  O   UNL     1       4.039  -1.096  30.484  0.00  0.00    -0.503 OA
ATOM     25  H   UNL     1       3.482  -1.384  31.226  0.00  0.00    +0.292 HD
ENDBRANCH  22  24
BRANCH  21  26
ATOM     26  O   UNL     1       2.393   1.012  30.062  0.00  0.00    -0.503 OA
ATOM     27  H   UNL     1       1.943   1.752  29.607  0.00  0.00    +0.292 HD
ENDBRANCH  21  26
ENDBRANCH  10  18
BRANCH  15  28
ATOM     28  O   UNL     1       2.887  -6.257  22.307  0.00  0.00    -0.506 OA
ATOM     29  H   UNL     1       2.652  -5.928  21.427  0.00  0.00    +0.292 HD
ENDBRANCH  15  28
BRANCH  17  30
ATOM     30  O   UNL     1       7.291  -4.692  22.431  0.00  0.00    -0.506 OA
ATOM     31  H   UNL     1       7.727  -3.825  22.514  0.00  0.00    +0.292 HD
ENDBRANCH  17  30
BRANCH  11  32
ATOM     32  O   UNL     1       0.539  -3.730  26.206  0.00  0.00    -0.501 OA
ATOM     33  H   UNL     1      -0.024  -3.144  25.687  0.00  0.00    +0.292 HD
ENDBRANCH  11  32
ENDBRANCH   2   7
BRANCH   6  34
ATOM     34  O   UNL     1      10.125  -5.144  24.788  0.00  0.00    -0.386 OA
ATOM     35  H   UNL     1      10.749  -4.511  25.200  0.00  0.00    +0.210 HD
ENDBRANCH   6  34
BRANCH   5  36
ATOM     36  O   UNL     1       8.796  -6.107  27.105  0.00  0.00    -0.386 OA
ATOM     37  H   UNL     1       8.637  -6.732  26.373  0.00  0.00    +0.210 HD
ENDBRANCH   5  36
BRANCH   4  38
ATOM     38  C   UNL     1       6.084  -5.279  27.142  0.00  0.00    +0.190 C 
BRANCH  38  39
ATOM     39  O   UNL     1       6.304  -6.271  28.138  0.00  0.00    -0.392 OA
ATOM     40  H   UNL     1       6.641  -5.818  28.936  0.00  0.00    +0.210 HD
ENDBRANCH  38  39
ENDBRANCH   4  38
BRANCH   1  41
ATOM     41  O   UNL     1       9.302  -2.269  24.798  0.00  0.00    -0.340 OA
BRANCH  41  45
ATOM     42  C   UNL     1       9.010  -0.496  21.024  0.00  0.00    +0.041 C 
ATOM     43  C   UNL     1      10.114  -0.070  22.005  0.00  0.00    +0.149 C 
ATOM     44  O   UNL     1      10.284  -1.033  23.065  0.00  0.00    -0.343 OA
ATOM     45  C   UNL     1       9.146  -1.120  23.937  0.00  0.00    +0.282 C 
ATOM     46  C   UNL     1       8.964   0.259  24.644  0.00  0.00    +0.201 C 
ATOM     47  C   UNL     1       8.758   1.351  23.589  0.00  0.00    +0.179 C 
ATOM     48  C   UNL     1       9.898   1.349  22.563  0.00  0.00    +0.174 C 
BRANCH  48  49
ATOM     49  O   UNL     1       9.637   2.260  21.491  0.00  0.00    -0.387 OA
ATOM     50  H   UNL     1       8.712   2.134  21.207  0.00  0.00    +0.210 HD
ENDBRANCH  48  49
BRANCH  47  51
ATOM     51  O   UNL     1       8.666   2.640  24.212  0.00  0.00    -0.386 OA
ATOM     52  H   UNL     1       9.221   3.239  23.669  0.00  0.00    +0.210 HD
ENDBRANCH  47  51
BRANCH  46  53
ATOM     53  O   UNL     1      10.107   0.617  25.447  0.00  0.00    -0.384 OA
ATOM     54  H   UNL     1      10.492  -0.216  25.782  0.00  0.00    +0.210 HD
ENDBRANCH  46  53
ENDBRANCH  41  45
ENDBRANCH   1  41
TORSDOF 16
ENDMDL
MODEL 7
REMARK VINA RESULT:      -6.6      3.941      7.537
REMARK  Name = 
REMARK  17 active torsions:
REMARK  status: ('A' for Active; 'I' for Inactive)
REMARK    1  A    between atoms: C_1  and  C_2
REMARK    2  A    between atoms: C_3  and  O_43
REMARK    3  A    between atoms: C_4  and  O_42
REMARK    4  A    between atoms: C_5  and  O_41
REMARK    5  A    between atoms: C_6  and  O_8
REMARK    6  A    between atoms: O_8  and  C_9
REMARK    7  A    between atoms: C_10  and  O_40
REMARK    8  A    between atoms: C_11  and  O_39
REMARK    9  A    between atoms: C_12  and  C_37
REMARK   10  A    between atoms: C_14  and  C_15
REMARK   11  A    between atoms: C_16  and  O_36
REMARK   12  A    between atoms: C_18  and  O_35
REMARK   13  A    between atoms: C_22  and  C_27
REMARK   14  A    between atoms: C_23  and  O_26
REMARK   15  A    between atoms: C_29  and  O_34
REMARK   16  A    between atoms: C_30  and  O_33
REMARK   17  A    between atoms: C_37  and  O_38
REMARK                            x       y       z     vdW  Elec       q    Type
REMARK                         _______ _______ _______ _____ _____    ______ ____
ROOT
ATOM      1  C   UNL     1       4.888  -2.111  27.412  0.00  0.00    +0.186 C 
ATOM      2  C   UNL     1       6.011  -1.032  27.573  0.00  0.00    +0.187 C 
ATOM      3  O   UNL     1       5.469   0.122  28.254  0.00  0.00    -0.361 OA
ATOM      4  C   UNL     1       4.307   0.771  27.719  0.00  0.00    +0.175 C 
ATOM      5  C   UNL     1       3.184  -0.202  27.326  0.00  0.00    +0.176 C 
ATOM      6  C   UNL     1       3.710  -1.469  26.650  0.00  0.00    +0.177 C 
ENDROOT
BRANCH   2   7
ATOM      7  C   UNL     1       6.840  -0.663  26.310  0.00  0.00    +0.068 A 
ATOM      8  C   UNL     1       6.835  -1.482  25.147  0.00  0.00    +0.152 A 
ATOM      9  O   UNL     1       5.989  -2.572  25.119  0.00  0.00    -0.450 OA
ATOM     10  C   UNL     1       6.034  -3.440  24.040  0.00  0.00    +0.181 A 
ATOM     11  C   UNL     1       6.832  -3.304  22.962  0.00  0.00    +0.208 A 
ATOM     12  C   UNL     1       7.738  -2.134  22.913  0.00  0.00    +0.238 A 
ATOM     13  O   UNL     1       8.496  -1.989  21.955  0.00  0.00    -0.283 OA
ATOM     14  C   UNL     1       7.683  -1.195  24.052  0.00  0.00    +0.110 A 
ATOM     15  C   UNL     1       8.473  -0.040  24.067  0.00  0.00    +0.135 A 
ATOM     16  C   UNL     1       8.421   0.824  25.141  0.00  0.00    +0.092 A 
ATOM     17  C   UNL     1       7.621   0.512  26.237  0.00  0.00    +0.130 A 
BRANCH  10  18
ATOM     18  C   UNL     1       5.105  -4.572  24.117  0.00  0.00    +0.025 A 
ATOM     19  C   UNL     1       5.508  -5.782  24.724  0.00  0.00    +0.015 A 
ATOM     20  C   UNL     1       4.711  -6.923  24.619  0.00  0.00    +0.050 A 
ATOM     21  C   UNL     1       3.514  -6.853  23.920  0.00  0.00    +0.158 A 
ATOM     22  C   UNL     1       3.099  -5.660  23.334  0.00  0.00    +0.159 A 
ATOM     23  C   UNL     1       3.883  -4.515  23.431  0.00  0.00    +0.060 A 
BRANCH  22  24
ATOM     24  O   UNL     1       1.924  -5.674  22.634  0.00  0.00    -0.503 OA
ATOM     25  H   UNL     1       2.048  -5.173  21.811  0.00  0.00    +0.292 HD
ENDBRANCH  22  24
BRANCH  21  26
ATOM     26  O   UNL     1       2.756  -7.978  23.786  0.00  0.00    -0.503 OA
ATOM     27  H   UNL     1       2.979  -8.530  24.562  0.00  0.00    +0.292 HD
ENDBRANCH  21  26
ENDBRANCH  10  18
BRANCH  15  28
ATOM     28  O   UNL     1       9.295   0.280  23.024  0.00  0.00    -0.506 OA
ATOM     29  H   UNL     1      10.223   0.323  23.301  0.00  0.00    +0.292 HD
ENDBRANCH  15  28
BRANCH  17  30
ATOM     30  O   UNL     1       7.622   1.443  27.232  0.00  0.00    -0.506 OA
ATOM     31  H   UNL     1       7.405   1.022  28.082  0.00  0.00    +0.292 HD
ENDBRANCH  17  30
BRANCH  11  32
ATOM     32  O   UNL     1       6.864  -4.180  21.888  0.00  0.00    -0.501 OA
ATOM     33  H   UNL     1       6.821  -3.689  21.058  0.00  0.00    +0.292 HD
ENDBRANCH  11  32
ENDBRANCH   2   7
BRANCH   6  34
ATOM     34  O   UNL     1       2.626  -2.380  26.399  0.00  0.00    -0.386 OA
ATOM     35  H   UNL     1       2.973  -3.292  26.486  0.00  0.00    +0.210 HD
ENDBRANCH   6  34
BRANCH   5  36
ATOM     36  O   UNL     1       2.207   0.428  26.475  0.00  0.00    -0.386 OA
ATOM     37  H   UNL     1       2.655   0.761  25.674  0.00  0.00    +0.210 HD
ENDBRANCH   5  36
BRANCH   4  38
ATOM     38  C   UNL     1       4.672   1.820  26.650  0.00  0.00    +0.190 C 
BRANCH  38  39
ATOM     39  O   UNL     1       4.443   1.384  25.315  0.00  0.00    -0.392 OA
ATOM     40  H   UNL     1       3.479   1.262  25.205  0.00  0.00    +0.210 HD
ENDBRANCH  38  39
ENDBRANCH   4  38
BRANCH   1  41
ATOM     41  O   UNL     1       4.543  -2.744  28.665  0.00  0.00    -0.340 OA
BRANCH  41  45
ATOM     42  C   UNL     1       1.540  -5.610  28.178  0.00  0.00    +0.041 C 
ATOM     43  C   UNL     1       2.466  -5.648  29.403  0.00  0.00    +0.149 C 
ATOM     44  O   UNL     1       3.159  -4.397  29.586  0.00  0.00    -0.343 OA
ATOM     45  C   UNL     1       4.092  -4.110  28.532  0.00  0.00    +0.282 C 
ATOM     46  C   UNL     1       5.198  -5.210  28.545  0.00  0.00    +0.201 C 
ATOM     47  C   UNL     1       4.553  -6.585  28.339  0.00  0.00    +0.179 C 
ATOM     48  C   UNL     1       3.447  -6.835  29.371  0.00  0.00    +0.174 C 
BRANCH  48  49
ATOM     49  O   UNL     1       2.737  -8.047  29.093  0.00  0.00    -0.387 OA
ATOM     50  H   UNL     1       3.270  -8.791  29.429  0.00  0.00    +0.210 HD
ENDBRANCH  48  49
BRANCH  47  51
ATOM     51  O   UNL     1       5.542  -7.622  28.424  0.00  0.00    -0.386 OA
ATOM     52  H   UNL     1       5.046  -8.466  28.387  0.00  0.00    +0.210 HD
ENDBRANCH  47  51
BRANCH  46  53
ATOM     53  O   UNL     1       5.931  -5.237  29.787  0.00  0.00    -0.384 OA
ATOM     54  H   UNL     1       6.640  -4.568  29.713  0.00  0.00    +0.210 HD
ENDBRANCH  46  53
ENDBRANCH  41  45
ENDBRANCH   1  41
TORSDOF 16
ENDMDL
MODEL 8
REMARK VINA RESULT:      -6.6      1.819      9.006
REMARK  Name = 
REMARK  17 active torsions:
REMARK  status: ('A' for Active; 'I' for Inactive)
REMARK    1  A    between atoms: C_1  and  C_2
REMARK    2  A    between atoms: C_3  and  O_43
REMARK    3  A    between atoms: C_4  and  O_42
REMARK    4  A    between atoms: C_5  and  O_41
REMARK    5  A    between atoms: C_6  and  O_8
REMARK    6  A    between atoms: O_8  and  C_9
REMARK    7  A    between atoms: C_10  and  O_40
REMARK    8  A    between atoms: C_11  and  O_39
REMARK    9  A    between atoms: C_12  and  C_37
REMARK   10  A    between atoms: C_14  and  C_15
REMARK   11  A    between atoms: C_16  and  O_36
REMARK   12  A    between atoms: C_18  and  O_35
REMARK   13  A    between atoms: C_22  and  C_27
REMARK   14  A    between atoms: C_23  and  O_26
REMARK   15  A    between atoms: C_29  and  O_34
REMARK   16  A    between atoms: C_30  and  O_33
REMARK   17  A    between atoms: C_37  and  O_38
REMARK                            x       y       z     vdW  Elec       q    Type
REMARK                         _______ _______ _______ _____ _____    ______ ____
ROOT
ATOM      1  C   UNL     1       5.159   2.255  24.821  0.00  0.00    +0.186 C 
ATOM      2  C   UNL     1       5.554   0.747  24.668  0.00  0.00    +0.187 C 
ATOM      3  O   UNL     1       5.581   0.128  25.973  0.00  0.00    -0.361 OA
ATOM      4  C   UNL     1       6.400   0.695  27.004  0.00  0.00    +0.175 C 
ATOM      5  C   UNL     1       6.258   2.221  27.132  0.00  0.00    +0.176 C 
ATOM      6  C   UNL     1       6.170   2.922  25.776  0.00  0.00    +0.177 C 
ENDROOT
BRANCH   2   7
ATOM      7  C   UNL     1       6.807   0.416  23.808  0.00  0.00    +0.068 A 
ATOM      8  C   UNL     1       7.424  -0.864  23.849  0.00  0.00    +0.152 A 
ATOM      9  O   UNL     1       6.822  -1.857  24.595  0.00  0.00    -0.450 OA
ATOM     10  C   UNL     1       7.453  -3.083  24.730  0.00  0.00    +0.181 A 
ATOM     11  C   UNL     1       8.625  -3.425  24.158  0.00  0.00    +0.208 A 
ATOM     12  C   UNL     1       9.304  -2.417  23.313  0.00  0.00    +0.238 A 
ATOM     13  O   UNL     1      10.386  -2.686  22.793  0.00  0.00    -0.283 OA
ATOM     14  C   UNL     1       8.629  -1.112  23.151  0.00  0.00    +0.110 A 
ATOM     15  C   UNL     1       9.180  -0.118  22.334  0.00  0.00    +0.135 A 
ATOM     16  C   UNL     1       8.546   1.100  22.199  0.00  0.00    +0.092 A 
ATOM     17  C   UNL     1       7.386   1.356  22.925  0.00  0.00    +0.130 A 
BRANCH  10  18
ATOM     18  C   UNL     1       6.736  -4.060  25.556  0.00  0.00    +0.025 A 
ATOM     19  C   UNL     1       7.021  -4.171  26.934  0.00  0.00    +0.015 A 
ATOM     20  C   UNL     1       6.499  -5.229  27.680  0.00  0.00    +0.050 A 
ATOM     21  C   UNL     1       5.688  -6.165  27.055  0.00  0.00    +0.158 A 
ATOM     22  C   UNL     1       5.385  -6.054  25.700  0.00  0.00    +0.159 A 
ATOM     23  C   UNL     1       5.899  -5.005  24.945  0.00  0.00    +0.060 A 
BRANCH  22  24
ATOM     24  O   UNL     1       4.605  -7.031  25.143  0.00  0.00    -0.503 OA
ATOM     25  H   UNL     1       4.488  -6.833  24.199  0.00  0.00    +0.292 HD
ENDBRANCH  22  24
BRANCH  21  26
ATOM     26  O   UNL     1       5.209  -7.218  27.775  0.00  0.00    -0.503 OA
ATOM     27  H   UNL     1       5.998  -7.623  28.190  0.00  0.00    +0.292 HD
ENDBRANCH  21  26
ENDBRANCH  10  18
BRANCH  15  28
ATOM     28  O   UNL     1      10.334  -0.324  21.634  0.00  0.00    -0.506 OA
ATOM     29  H   UNL     1      10.162  -0.441  20.688  0.00  0.00    +0.292 HD
ENDBRANCH  15  28
BRANCH  17  30
ATOM     30  O   UNL     1       6.826   2.578  22.700  0.00  0.00    -0.506 OA
ATOM     31  H   UNL     1       7.103   3.204  23.392  0.00  0.00    +0.292 HD
ENDBRANCH  17  30
BRANCH  11  32
ATOM     32  O   UNL     1       9.242  -4.659  24.300  0.00  0.00    -0.501 OA
ATOM     33  H   UNL     1       8.870  -5.289  23.671  0.00  0.00    +0.292 HD
ENDBRANCH  11  32
ENDBRANCH   2   7
BRANCH   6  34
ATOM     34  O   UNL     1       5.938   4.329  25.964  0.00  0.00    -0.386 OA
ATOM     35  H   UNL     1       5.455   4.661  25.179  0.00  0.00    +0.210 HD
ENDBRANCH   6  34
BRANCH   5  36
ATOM     36  O   UNL     1       7.334   2.793  27.901  0.00  0.00    -0.386 OA
ATOM     37  H   UNL     1       6.956   3.298  28.645  0.00  0.00    +0.210 HD
ENDBRANCH   5  36
BRANCH   4  38
ATOM     38  C   UNL     1       7.849   0.173  26.944  0.00  0.00    +0.190 C 
BRANCH  38  39
ATOM     39  O   UNL     1       8.505   0.149  28.207  0.00  0.00    -0.392 OA
ATOM     40  H   UNL     1       8.380   1.026  28.621  0.00  0.00    +0.210 HD
ENDBRANCH  38  39
ENDBRANCH   4  38
BRANCH   1  41
ATOM     41  O   UNL     1       3.767   2.431  25.171  0.00  0.00    -0.340 OA
BRANCH  41  45
ATOM     42  C   UNL     1       1.843   2.805  21.479  0.00  0.00    +0.041 C 
ATOM     43  C   UNL     1       2.980   3.762  21.869  0.00  0.00    +0.149 C 
ATOM     44  O   UNL     1       3.751   3.250  22.974  0.00  0.00    -0.343 OA
ATOM     45  C   UNL     1       3.005   3.180  24.199  0.00  0.00    +0.282 C 
ATOM     46  C   UNL     1       2.597   4.630  24.606  0.00  0.00    +0.201 C 
ATOM     47  C   UNL     1       1.752   5.256  23.490  0.00  0.00    +0.179 C 
ATOM     48  C   UNL     1       2.485   5.194  22.144  0.00  0.00    +0.174 C 
BRANCH  48  49
ATOM     49  O   UNL     1       1.645   5.634  21.072  0.00  0.00    -0.387 OA
ATOM     50  H   UNL     1       1.280   4.844  20.632  0.00  0.00    +0.210 HD
ENDBRANCH  48  49
BRANCH  47  51
ATOM     51  O   UNL     1       1.430   6.617  23.807  0.00  0.00    -0.386 OA
ATOM     52  H   UNL     1       0.968   6.972  23.019  0.00  0.00    +0.210 HD
ENDBRANCH  47  51
BRANCH  46  53
ATOM     53  O   UNL     1       3.741   5.478  24.835  0.00  0.00    -0.384 OA
ATOM     54  H   UNL     1       3.843   6.039  24.040  0.00  0.00    +0.210 HD
ENDBRANCH  46  53
ENDBRANCH  41  45
ENDBRANCH   1  41
TORSDOF 16
ENDMDL
MODEL 9
REMARK VINA RESULT:      -6.5      2.852      5.506
REMARK  Name = 
REMARK  17 active torsions:
REMARK  status: ('A' for Active; 'I' for Inactive)
REMARK    1  A    between atoms: C_1  and  C_2
REMARK    2  A    between atoms: C_3  and  O_43
REMARK    3  A    between atoms: C_4  and  O_42
REMARK    4  A    between atoms: C_5  and  O_41
REMARK    5  A    between atoms: C_6  and  O_8
REMARK    6  A    between atoms: O_8  and  C_9
REMARK    7  A    between atoms: C_10  and  O_40
REMARK    8  A    between atoms: C_11  and  O_39
REMARK    9  A    between atoms: C_12  and  C_37
REMARK   10  A    between atoms: C_14  and  C_15
REMARK   11  A    between atoms: C_16  and  O_36
REMARK   12  A    between atoms: C_18  and  O_35
REMARK   13  A    between atoms: C_22  and  C_27
REMARK   14  A    between atoms: C_23  and  O_26
REMARK   15  A    between atoms: C_29  and  O_34
REMARK   16  A    between atoms: C_30  and  O_33
REMARK   17  A    between atoms: C_37  and  O_38
REMARK                            x       y       z     vdW  Elec       q    Type
REMARK                         _______ _______ _______ _____ _____    ______ ____
ROOT
ATOM      1  C   UNL     1       7.653  -1.463  24.136  0.00  0.00    +0.186 C 
ATOM      2  C   UNL     1       8.030  -0.569  22.907  0.00  0.00    +0.187 C 
ATOM      3  O   UNL     1       9.469  -0.487  22.802  0.00  0.00    -0.361 OA
ATOM      4  C   UNL     1      10.231  -0.033  23.929  0.00  0.00    +0.175 C 
ATOM      5  C   UNL     1       9.822  -0.693  25.256  0.00  0.00    +0.176 C 
ATOM      6  C   UNL     1       8.307  -0.854  25.393  0.00  0.00    +0.177 C 
ENDROOT
BRANCH   2   7
ATOM      7  C   UNL     1       7.329   0.814  22.781  0.00  0.00    +0.068 A 
ATOM      8  C   UNL     1       6.339   1.237  23.710  0.00  0.00    +0.152 A 
ATOM      9  O   UNL     1       6.081   0.433  24.802  0.00  0.00    -0.450 OA
ATOM     10  C   UNL     1       5.055   0.773  25.669  0.00  0.00    +0.181 A 
ATOM     11  C   UNL     1       4.275   1.868  25.564  0.00  0.00    +0.208 A 
ATOM     12  C   UNL     1       4.526   2.792  24.435  0.00  0.00    +0.238 A 
ATOM     13  O   UNL     1       3.819   3.789  24.295  0.00  0.00    -0.283 OA
ATOM     14  C   UNL     1       5.629   2.445  23.515  0.00  0.00    +0.110 A 
ATOM     15  C   UNL     1       5.962   3.285  22.447  0.00  0.00    +0.135 A 
ATOM     16  C   UNL     1       6.987   2.945  21.588  0.00  0.00    +0.092 A 
ATOM     17  C   UNL     1       7.651   1.733  21.756  0.00  0.00    +0.130 A 
BRANCH  10  18
ATOM     18  C   UNL     1       4.856  -0.155  26.786  0.00  0.00    +0.025 A 
ATOM     19  C   UNL     1       4.398  -1.469  26.545  0.00  0.00    +0.015 A 
ATOM     20  C   UNL     1       4.010  -2.287  27.608  0.00  0.00    +0.050 A 
ATOM     21  C   UNL     1       4.089  -1.799  28.904  0.00  0.00    +0.158 A 
ATOM     22  C   UNL     1       4.557  -0.511  29.154  0.00  0.00    +0.159 A 
ATOM     23  C   UNL     1       4.946   0.315  28.105  0.00  0.00    +0.060 A 
BRANCH  22  24
ATOM     24  O   UNL     1       4.577  -0.086  30.454  0.00  0.00    -0.503 OA
ATOM     25  H   UNL     1       5.484  -0.169  30.793  0.00  0.00    +0.292 HD
ENDBRANCH  22  24
BRANCH  21  26
ATOM     26  O   UNL     1       3.674  -2.585  29.938  0.00  0.00    -0.503 OA
ATOM     27  H   UNL     1       3.093  -2.011  30.477  0.00  0.00    +0.292 HD
ENDBRANCH  21  26
ENDBRANCH  10  18
BRANCH  15  28
ATOM     28  O   UNL     1       5.309   4.466  22.233  0.00  0.00    -0.506 OA
ATOM     29  H   UNL     1       4.403   4.439  22.574  0.00  0.00    +0.292 HD
ENDBRANCH  15  28
BRANCH  17  30
ATOM     30  O   UNL     1       8.662   1.505  20.872  0.00  0.00    -0.506 OA
ATOM     31  H   UNL     1       9.270   2.266  20.858  0.00  0.00    +0.292 HD
ENDBRANCH  17  30
BRANCH  11  32
ATOM     32  O   UNL     1       3.254   2.197  26.443  0.00  0.00    -0.501 OA
ATOM     33  H   UNL     1       2.900   3.069  26.228  0.00  0.00    +0.292 HD
ENDBRANCH  11  32
ENDBRANCH   2   7
BRANCH   6  34
ATOM     34  O   UNL     1       7.995  -1.566  26.603  0.00  0.00    -0.386 OA
ATOM     35  H   UNL     1       7.802  -0.904  27.299  0.00  0.00    +0.210 HD
ENDBRANCH   6  34
BRANCH   5  36
ATOM     36  O   UNL     1      10.334   0.030  26.391  0.00  0.00    -0.386 OA
ATOM     37  H   UNL     1       9.994  -0.383  27.207  0.00  0.00    +0.210 HD
ENDBRANCH   5  36
BRANCH   4  38
ATOM     38  C   UNL     1      10.345   1.504  23.968  0.00  0.00    +0.190 C 
BRANCH  38  39
ATOM     39  O   UNL     1       9.472   2.122  24.906  0.00  0.00    -0.392 OA
ATOM     40  H   UNL     1      10.019   2.449  25.648  0.00  0.00    +0.210 HD
ENDBRANCH  38  39
ENDBRANCH   4  38
BRANCH   1  41
ATOM     41  O   UNL     1       7.930  -2.863  23.909  0.00  0.00    -0.340 OA
BRANCH  41  45
ATOM     42  C   UNL     1       3.882  -3.877  24.146  0.00  0.00    +0.041 C 
ATOM     43  C   UNL     1       4.969  -4.938  24.378  0.00  0.00    +0.149 C 
ATOM     44  O   UNL     1       6.255  -4.336  24.629  0.00  0.00    -0.343 OA
ATOM     45  C   UNL     1       6.781  -3.633  23.493  0.00  0.00    +0.282 C 
ATOM     46  C   UNL     1       7.015  -4.664  22.345  0.00  0.00    +0.201 C 
ATOM     47  C   UNL     1       5.688  -5.347  21.994  0.00  0.00    +0.179 C 
ATOM     48  C   UNL     1       5.044  -5.971  23.238  0.00  0.00    +0.174 C 
BRANCH  48  49
ATOM     49  O   UNL     1       3.736  -6.476  22.951  0.00  0.00    -0.387 OA
ATOM     50  H   UNL     1       3.831  -7.225  22.333  0.00  0.00    +0.210 HD
ENDBRANCH  48  49
BRANCH  47  51
ATOM     51  O   UNL     1       5.892  -6.355  20.994  0.00  0.00    -0.386 OA
ATOM     52  H   UNL     1       5.008  -6.744  20.824  0.00  0.00    +0.210 HD
ENDBRANCH  47  51
BRANCH  46  53
ATOM     53  O   UNL     1       7.966  -5.685  22.710  0.00  0.00    -0.384 OA
ATOM     54  H   UNL     1       8.426  -5.950  21.889  0.00  0.00    +0.210 HD
ENDBRANCH  46  53
ENDBRANCH  41  45
ENDBRANCH   1  41
TORSDOF 16
ENDMDL
