MODEL 1
REMARK VINA RESULT:      -6.9      0.000      0.000
REMARK  Name = 
REMARK  26 active torsions:
REMARK  status: ('A' for Active; 'I' for Inactive)
REMARK    1  A    between atoms: C_3  and  O_44
REMARK    2  A    between atoms: C_4  and  O_43
REMARK    3  A    between atoms: C_6  and  C_7
REMARK    4  A    between atoms: C_8  and  O_20
REMARK    5  A    between atoms: C_12  and  O_19
REMARK    6  A    between atoms: C_14  and  O_18
REMARK    7  A    between atoms: O_20  and  C_21
REMARK    8  A    between atoms: C_21  and  C_22
REMARK    9  A    between atoms: C_22  and  C_23
REMARK   10  A    between atoms: C_22  and  O_42
REMARK   11  A    between atoms: C_23  and  O_41
REMARK   12  A    between atoms: C_24  and  C_25
REMARK   13  A    between atoms: C_24  and  O_40
REMARK   14  A    between atoms: C_25  and  C_26
REMARK   15  A    between atoms: C_25  and  O_39
REMARK   16  A    between atoms: C_26  and  O_27
REMARK   17  A    between atoms: O_27  and  C_28
REMARK   18  A    between atoms: C_28  and  C_29
REMARK   19  A    between atoms: C_29  and  C_30
REMARK   20  A    between atoms: C_29  and  O_38
REMARK   21  A    between atoms: C_30  and  O_37
REMARK   22  A    between atoms: C_31  and  C_32
REMARK   23  A    between atoms: C_31  and  O_36
REMARK   24  A    between atoms: C_32  and  C_33
REMARK   25  A    between atoms: C_32  and  O_35
REMARK   26  A    between atoms: C_33  and  O_34
REMARK                            x       y       z     vdW  Elec       q    Type
REMARK                         _______ _______ _______ _____ _____    ______ ____
ROOT
ATOM      1  C   UNL     1       9.200  -0.869  21.821  0.00  0.00    +0.220 C 
ENDROOT
BRANCH   1   2
ATOM      2  C   UNL     1       9.529   0.094  22.960  0.00  0.00    +0.166 C 
ATOM      3  C   UNL     1       9.955   1.370  22.825  0.00  0.00    +0.165 C 
BRANCH   3   4
ATOM      4  O   UNL     1      10.071   2.004  21.594  0.00  0.00    -0.505 OA
ATOM      5  H   UNL     1       9.215   2.455  21.416  0.00  0.00    +0.292 HD
ENDBRANCH   3   4
BRANCH   2   6
ATOM      6  O   UNL     1       9.470  -0.450  24.239  0.00  0.00    -0.505 OA
ATOM      7  H   UNL     1       9.217   0.243  24.880  0.00  0.00    +0.292 HD
ENDBRANCH   2   6
BRANCH   3   8
ATOM      8  C   UNL     1      10.370   2.245  23.994  0.00  0.00    +0.208 C 
BRANCH   8   9
ATOM      9  O   UNL     1       9.241   2.429  24.865  0.00  0.00    -0.382 OA
ATOM     10  H   UNL     1       8.732   3.165  24.473  0.00  0.00    +0.210 HD
ENDBRANCH   8   9
BRANCH   8  11
ATOM     11  C   UNL     1      10.830   3.627  23.498  0.00  0.00    +0.199 C 
BRANCH  11  12
ATOM     12  O   UNL     1      10.116   4.667  24.192  0.00  0.00    -0.374 OA
BRANCH  12  13
ATOM     13  C   UNL     1      10.153   5.900  23.452  0.00  0.00    +0.199 C 
BRANCH  13  14
ATOM     14  C   UNL     1       8.746   6.522  23.461  0.00  0.00    +0.208 C 
BRANCH  14  15
ATOM     15  C   UNL     1       7.703   5.772  22.646  0.00  0.00    +0.164 C 
ATOM     16  C   UNL     1       7.003   4.696  23.064  0.00  0.00    +0.164 C 
BRANCH  16  17
ATOM     17  O   UNL     1       7.135   4.119  24.320  0.00  0.00    -0.505 OA
ATOM     18  H   UNL     1       6.980   4.786  25.009  0.00  0.00    +0.292 HD
ENDBRANCH  16  17
BRANCH  15  19
ATOM     19  O   UNL     1       7.485   6.231  21.347  0.00  0.00    -0.505 OA
ATOM     20  H   UNL     1       8.142   6.929  21.124  0.00  0.00    +0.292 HD
ENDBRANCH  15  19
BRANCH  16  21
ATOM     21  C   UNL     1       5.976   3.993  22.190  0.00  0.00    +0.208 C 
BRANCH  21  22
ATOM     22  O   UNL     1       4.838   4.864  22.006  0.00  0.00    -0.382 OA
ATOM     23  H   UNL     1       5.109   5.706  22.421  0.00  0.00    +0.210 HD
ENDBRANCH  21  22
BRANCH  21  24
ATOM     24  C   UNL     1       5.446   2.697  22.822  0.00  0.00    +0.195 C 
BRANCH  24  25
ATOM     25  O   UNL     1       6.344   1.613  22.544  0.00  0.00    -0.392 OA
ATOM     26  H   UNL     1       6.991   1.982  21.909  0.00  0.00    +0.210 HD
ENDBRANCH  24  25
ENDBRANCH  21  24
ENDBRANCH  16  21
ENDBRANCH  14  15
BRANCH  14  27
ATOM     27  O   UNL     1       8.278   6.592  24.810  0.00  0.00    -0.382 OA
ATOM     28  H   UNL     1       8.061   7.532  24.964  0.00  0.00    +0.210 HD
ENDBRANCH  14  27
ENDBRANCH  13  14
ENDBRANCH  12  13
ENDBRANCH  11  12
ENDBRANCH   8  11
ENDBRANCH   3   8
ENDBRANCH   1   2
BRANCH   1  29
ATOM     29  O   UNL     1      10.381  -1.641  21.503  0.00  0.00    -0.381 OA
ATOM     30  H   UNL     1      10.262  -1.985  20.588  0.00  0.00    +0.211 HD
ENDBRANCH   1  29
BRANCH   1  31
ATOM     31  C   UNL     1       8.118  -1.870  22.253  0.00  0.00    +0.268 C 
BRANCH  31  32
ATOM     32  O   UNL     1       6.890  -1.382  22.819  0.00  0.00    -0.482 OA
BRANCH  32  43
ATOM     33  C   UNL     1       6.030  -2.241  24.957  0.00  0.00    +0.181 A 
ATOM     34  O   UNL     1       5.426  -3.259  25.718  0.00  0.00    -0.451 OA
ATOM     35  C   UNL     1       5.066  -4.450  25.154  0.00  0.00    +0.147 A 
ATOM     36  C   UNL     1       5.168  -4.682  23.804  0.00  0.00    +0.109 A 
ATOM     37  C   UNL     1       4.780  -5.907  23.243  0.00  0.00    +0.135 A 
ATOM     38  C   UNL     1       4.269  -6.911  24.048  0.00  0.00    +0.091 A 
ATOM     39  C   UNL     1       4.148  -6.666  25.413  0.00  0.00    +0.124 A 
ATOM     40  C   UNL     1       5.629  -3.592  22.971  0.00  0.00    +0.238 A 
ATOM     41  O   UNL     1       5.452  -3.752  21.763  0.00  0.00    -0.283 OA
ATOM     42  C   UNL     1       4.540  -5.448  25.975  0.00  0.00    +0.092 A 
ATOM     43  C   UNL     1       6.228  -2.354  23.613  0.00  0.00    +0.211 A 
BRANCH  33  45
ATOM     44  C   UNL     1       5.580   0.161  25.606  0.00  0.00    +0.015 A 
ATOM     45  C   UNL     1       6.311  -1.041  25.838  0.00  0.00    +0.025 A 
ATOM     46  C   UNL     1       7.288  -0.985  26.841  0.00  0.00    +0.060 A 
ATOM     47  C   UNL     1       7.566   0.222  27.494  0.00  0.00    +0.159 A 
ATOM     48  C   UNL     1       6.897   1.399  27.174  0.00  0.00    +0.158 A 
ATOM     49  C   UNL     1       5.874   1.373  26.252  0.00  0.00    +0.050 A 
BRANCH  48  50
ATOM     50  O   UNL     1       7.294   2.556  27.782  0.00  0.00    -0.503 OA
ATOM     51  H   UNL     1       6.495   3.060  28.019  0.00  0.00    +0.292 HD
ENDBRANCH  48  50
BRANCH  47  52
ATOM     52  O   UNL     1       8.535   0.248  28.460  0.00  0.00    -0.503 OA
ATOM     53  H   UNL     1       8.873   1.167  28.443  0.00  0.00    +0.292 HD
ENDBRANCH  47  52
ENDBRANCH  33  45
BRANCH  39  54
ATOM     54  O   UNL     1       3.634  -7.618  26.241  0.00  0.00    -0.507 OA
ATOM     55  H   UNL     1       3.092  -8.230  25.712  0.00  0.00    +0.292 HD
ENDBRANCH  39  54
BRANCH  37  56
ATOM     56  O   UNL     1       4.844  -6.171  21.896  0.00  0.00    -0.506 OA
ATOM     57  H   UNL     1       4.322  -5.481  21.430  0.00  0.00    +0.292 HD
ENDBRANCH  37  56
ENDBRANCH  32  43
ENDBRANCH  31  32
ENDBRANCH   1  31
TORSDOF 26
ENDMDL
MODEL 2
REMARK VINA RESULT:      -6.7      1.568      4.277
REMARK  Name = 
REMARK  26 active torsions:
REMARK  status: ('A' for Active; 'I' for Inactive)
REMARK    1  A    between atoms: C_3  and  O_44
REMARK    2  A    between atoms: C_4  and  O_43
REMARK    3  A    between atoms: C_6  and  C_7
REMARK    4  A    between atoms: C_8  and  O_20
REMARK    5  A    between atoms: C_12  and  O_19
REMARK    6  A    between atoms: C_14  and  O_18
REMARK    7  A    between atoms: O_20  and  C_21
REMARK    8  A    between atoms: C_21  and  C_22
REMARK    9  A    between atoms: C_22  and  C_23
REMARK   10  A    between atoms: C_22  and  O_42
REMARK   11  A    between atoms: C_23  and  O_41
REMARK   12  A    between atoms: C_24  and  C_25
REMARK   13  A    between atoms: C_24  and  O_40
REMARK   14  A    between atoms: C_25  and  C_26
REMARK   15  A    between atoms: C_25  and  O_39
REMARK   16  A    between atoms: C_26  and  O_27
REMARK   17  A    between atoms: O_27  and  C_28
REMARK   18  A    between atoms: C_28  and  C_29
REMARK   19  A    between atoms: C_29  and  C_30
REMARK   20  A    between atoms: C_29  and  O_38
REMARK   21  A    between atoms: C_30  and  O_37
REMARK   22  A    between atoms: C_31  and  C_32
REMARK   23  A    between atoms: C_31  and  O_36
REMARK   24  A    between atoms: C_32  and  C_33
REMARK   25  A    between atoms: C_32  and  O_35
REMARK   26  A    between atoms: C_33  and  O_34
REMARK                            x       y       z     vdW  Elec       q    Type
REMARK                         _______ _______ _______ _____ _____    ______ ____
ROOT
ATOM      1  C   UNL     1       8.206  -0.557  26.638  0.00  0.00    +0.220 C 
ENDROOT
BRANCH   1   2
ATOM      2  C   UNL     1       6.913   0.164  26.257  0.00  0.00    +0.166 C 
ATOM      3  C   UNL     1       6.790   1.480  25.977  0.00  0.00    +0.165 C 
BRANCH   3   4
ATOM      4  O   UNL     1       7.873   2.349  25.923  0.00  0.00    -0.505 OA
ATOM      5  H   UNL     1       7.553   3.190  25.527  0.00  0.00    +0.292 HD
ENDBRANCH   3   4
BRANCH   2   6
ATOM      6  O   UNL     1       5.760  -0.612  26.305  0.00  0.00    -0.505 OA
ATOM      7  H   UNL     1       5.582  -0.993  25.423  0.00  0.00    +0.292 HD
ENDBRANCH   2   6
BRANCH   3   8
ATOM      8  C   UNL     1       5.460   2.161  25.709  0.00  0.00    +0.208 C 
BRANCH   8   9
ATOM      9  O   UNL     1       4.881   1.605  24.516  0.00  0.00    -0.382 OA
ATOM     10  H   UNL     1       5.617   1.143  24.066  0.00  0.00    +0.210 HD
ENDBRANCH   8   9
BRANCH   8  11
ATOM     11  C   UNL     1       5.659   3.671  25.493  0.00  0.00    +0.199 C 
BRANCH  11  12
ATOM     12  O   UNL     1       6.110   3.927  24.151  0.00  0.00    -0.374 OA
BRANCH  12  13
ATOM     13  C   UNL     1       5.459   5.084  23.599  0.00  0.00    +0.199 C 
BRANCH  13  14
ATOM     14  C   UNL     1       6.529   6.007  22.988  0.00  0.00    +0.208 C 
BRANCH  14  15
ATOM     15  C   UNL     1       7.930   5.832  23.553  0.00  0.00    +0.164 C 
ATOM     16  C   UNL     1       8.792   4.844  23.228  0.00  0.00    +0.164 C 
BRANCH  16  17
ATOM     17  O   UNL     1       8.514   3.837  22.313  0.00  0.00    -0.505 OA
ATOM     18  H   UNL     1       9.309   3.298  22.162  0.00  0.00    +0.292 HD
ENDBRANCH  16  17
BRANCH  15  19
ATOM     19  O   UNL     1       8.334   6.765  24.508  0.00  0.00    -0.505 OA
ATOM     20  H   UNL     1       8.744   6.304  25.274  0.00  0.00    +0.292 HD
ENDBRANCH  15  19
BRANCH  16  21
ATOM     21  C   UNL     1      10.180   4.729  23.837  0.00  0.00    +0.208 C 
BRANCH  21  22
ATOM     22  O   UNL     1      11.020   5.771  23.293  0.00  0.00    -0.382 OA
ATOM     23  H   UNL     1      10.411   6.521  23.146  0.00  0.00    +0.210 HD
ENDBRANCH  21  22
BRANCH  21  24
ATOM     24  C   UNL     1      10.864   3.393  23.513  0.00  0.00    +0.195 C 
BRANCH  24  25
ATOM     25  O   UNL     1      10.134   2.312  24.111  0.00  0.00    -0.392 OA
ATOM     26  H   UNL     1      10.809   1.630  24.301  0.00  0.00    +0.210 HD
ENDBRANCH  24  25
ENDBRANCH  21  24
ENDBRANCH  16  21
ENDBRANCH  14  15
BRANCH  14  27
ATOM     27  O   UNL     1       6.593   5.774  21.579  0.00  0.00    -0.382 OA
ATOM     28  H   UNL     1       6.461   6.648  21.162  0.00  0.00    +0.210 HD
ENDBRANCH  14  27
ENDBRANCH  13  14
ENDBRANCH  12  13
ENDBRANCH  11  12
ENDBRANCH   8  11
ENDBRANCH   3   8
ENDBRANCH   1   2
BRANCH   1  29
ATOM     29  O   UNL     1       8.678  -0.035  27.901  0.00  0.00    -0.381 OA
ATOM     30  H   UNL     1       9.540   0.408  27.724  0.00  0.00    +0.211 HD
ENDBRANCH   1  29
BRANCH   1  31
ATOM     31  C   UNL     1       7.949  -2.057  26.846  0.00  0.00    +0.268 C 
BRANCH  31  32
ATOM     32  O   UNL     1       8.463  -3.001  25.892  0.00  0.00    -0.482 OA
BRANCH  32  43
ATOM     33  C   UNL     1       6.977  -3.132  23.937  0.00  0.00    +0.181 A 
ATOM     34  O   UNL     1       5.916  -3.739  23.239  0.00  0.00    -0.451 OA
ATOM     35  C   UNL     1       5.250  -4.814  23.754  0.00  0.00    +0.147 A 
ATOM     36  C   UNL     1       5.641  -5.431  24.917  0.00  0.00    +0.109 A 
ATOM     37  C   UNL     1       4.950  -6.543  25.421  0.00  0.00    +0.135 A 
ATOM     38  C   UNL     1       3.858  -7.052  24.739  0.00  0.00    +0.091 A 
ATOM     39  C   UNL     1       3.476  -6.438  23.550  0.00  0.00    +0.124 A 
ATOM     40  C   UNL     1       6.832  -4.933  25.570  0.00  0.00    +0.238 A 
ATOM     41  O   UNL     1       7.291  -5.669  26.444  0.00  0.00    -0.283 OA
ATOM     42  C   UNL     1       4.159  -5.325  23.050  0.00  0.00    +0.092 A 
ATOM     43  C   UNL     1       7.442  -3.616  25.123  0.00  0.00    +0.211 A 
BRANCH  33  45
ATOM     44  C   UNL     1       8.766  -2.149  22.446  0.00  0.00    +0.015 A 
ATOM     45  C   UNL     1       7.527  -1.975  23.129  0.00  0.00    +0.025 A 
ATOM     46  C   UNL     1       6.947  -0.703  23.038  0.00  0.00    +0.060 A 
ATOM     47  C   UNL     1       7.616   0.338  22.385  0.00  0.00    +0.159 A 
ATOM     48  C   UNL     1       8.871   0.157  21.812  0.00  0.00    +0.158 A 
ATOM     49  C   UNL     1       9.443  -1.097  21.807  0.00  0.00    +0.050 A 
BRANCH  48  50
ATOM     50  O   UNL     1       9.506   1.244  21.282  0.00  0.00    -0.503 OA
ATOM     51  H   UNL     1      10.337   0.938  20.877  0.00  0.00    +0.292 HD
ENDBRANCH  48  50
BRANCH  47  52
ATOM     52  O   UNL     1       7.030   1.573  22.325  0.00  0.00    -0.503 OA
ATOM     53  H   UNL     1       6.690   1.639  21.408  0.00  0.00    +0.292 HD
ENDBRANCH  47  52
ENDBRANCH  33  45
BRANCH  39  54
ATOM     54  O   UNL     1       2.418  -6.916  22.837  0.00  0.00    -0.507 OA
ATOM     55  H   UNL     1       2.754  -7.513  22.145  0.00  0.00    +0.292 HD
ENDBRANCH  39  54
BRANCH  37  56
ATOM     56  O   UNL     1       5.323  -7.203  26.567  0.00  0.00    -0.506 OA
ATOM     57  H   UNL     1       5.418  -6.534  27.281  0.00  0.00    +0.292 HD
ENDBRANCH  37  56
ENDBRANCH  32  43
ENDBRANCH  31  32
ENDBRANCH   1  31
TORSDOF 26
ENDMDL
MODEL 3
REMARK VINA RESULT:      -6.7      2.049      9.434
REMARK  Name = 
REMARK  26 active torsions:
REMARK  status: ('A' for Active; 'I' for Inactive)
REMARK    1  A    between atoms: C_3  and  O_44
REMARK    2  A    between atoms: C_4  and  O_43
REMARK    3  A    between atoms: C_6  and  C_7
REMARK    4  A    between atoms: C_8  and  O_20
REMARK    5  A    between atoms: C_12  and  O_19
REMARK    6  A    between atoms: C_14  and  O_18
REMARK    7  A    between atoms: O_20  and  C_21
REMARK    8  A    between atoms: C_21  and  C_22
REMARK    9  A    between atoms: C_22  and  C_23
REMARK   10  A    between atoms: C_22  and  O_42
REMARK   11  A    between atoms: C_23  and  O_41
REMARK   12  A    between atoms: C_24  and  C_25
REMARK   13  A    between atoms: C_24  and  O_40
REMARK   14  A    between atoms: C_25  and  C_26
REMARK   15  A    between atoms: C_25  and  O_39
REMARK   16  A    between atoms: C_26  and  O_27
REMARK   17  A    between atoms: O_27  and  C_28
REMARK   18  A    between atoms: C_28  and  C_29
REMARK   19  A    between atoms: C_29  and  C_30
REMARK   20  A    between atoms: C_29  and  O_38
REMARK   21  A    between atoms: C_30  and  O_37
REMARK   22  A    between atoms: C_31  and  C_32
REMARK   23  A    between atoms: C_31  and  O_36
REMARK   24  A    between atoms: C_32  and  C_33
REMARK   25  A    between atoms: C_32  and  O_35
REMARK   26  A    between atoms: C_33  and  O_34
REMARK                            x       y       z     vdW  Elec       q    Type
REMARK                         _______ _______ _______ _____ _____    ______ ____
ROOT
ATOM      1  C   UNL     1       9.399  -2.152  23.752  0.00  0.00    +0.220 C 
ENDROOT
BRANCH   1   2
ATOM      2  C   UNL     1       8.356  -2.695  22.776  0.00  0.00    +0.166 C 
ATOM      3  C   UNL     1       7.521  -3.734  23.000  0.00  0.00    +0.165 C 
BRANCH   3   4
ATOM      4  O   UNL     1       7.455  -4.405  24.215  0.00  0.00    -0.505 OA
ATOM      5  H   UNL     1       7.048  -3.790  24.866  0.00  0.00    +0.292 HD
ENDBRANCH   3   4
BRANCH   2   6
ATOM      6  O   UNL     1       8.356  -2.108  21.515  0.00  0.00    -0.505 OA
ATOM      7  H   UNL     1       7.717  -1.370  21.496  0.00  0.00    +0.292 HD
ENDBRANCH   2   6
BRANCH   3   8
ATOM      8  C   UNL     1       6.580  -4.296  21.951  0.00  0.00    +0.208 C 
BRANCH   8   9
ATOM      9  O   UNL     1       5.665  -3.265  21.541  0.00  0.00    -0.382 OA
ATOM     10  H   UNL     1       5.968  -2.457  22.002  0.00  0.00    +0.210 HD
ENDBRANCH   8   9
BRANCH   8  11
ATOM     11  C   UNL     1       5.765  -5.467  22.526  0.00  0.00    +0.199 C 
BRANCH  11  12
ATOM     12  O   UNL     1       4.366  -5.129  22.564  0.00  0.00    -0.374 OA
BRANCH  12  13
ATOM     13  C   UNL     1       3.772  -5.526  23.811  0.00  0.00    +0.199 C 
BRANCH  13  14
ATOM     14  C   UNL     1       4.573  -6.709  24.384  0.00  0.00    +0.208 C 
BRANCH  14  15
ATOM     15  C   UNL     1       4.970  -6.571  25.846  0.00  0.00    +0.164 C 
ATOM     16  C   UNL     1       4.168  -6.810  26.905  0.00  0.00    +0.164 C 
BRANCH  16  17
ATOM     17  O   UNL     1       2.848  -7.229  26.805  0.00  0.00    -0.505 OA
ATOM     18  H   UNL     1       2.812  -8.120  26.420  0.00  0.00    +0.292 HD
ENDBRANCH  16  17
BRANCH  15  19
ATOM     19  O   UNL     1       6.270  -6.131  26.095  0.00  0.00    -0.505 OA
ATOM     20  H   UNL     1       6.276  -5.155  26.217  0.00  0.00    +0.292 HD
ENDBRANCH  15  19
BRANCH  16  21
ATOM     21  C   UNL     1       4.634  -6.648  28.344  0.00  0.00    +0.208 C 
BRANCH  21  22
ATOM     22  O   UNL     1       5.610  -7.670  28.641  0.00  0.00    -0.382 OA
ATOM     23  H   UNL     1       5.131  -8.303  29.212  0.00  0.00    +0.210 HD
ENDBRANCH  21  22
BRANCH  21  24
ATOM     24  C   UNL     1       3.495  -6.812  29.360  0.00  0.00    +0.195 C 
BRANCH  24  25
ATOM     25  O   UNL     1       3.041  -8.173  29.371  0.00  0.00    -0.392 OA
ATOM     26  H   UNL     1       3.684  -8.655  28.814  0.00  0.00    +0.210 HD
ENDBRANCH  24  25
ENDBRANCH  21  24
ENDBRANCH  16  21
ENDBRANCH  14  15
BRANCH  14  27
ATOM     27  O   UNL     1       3.796  -7.902  24.254  0.00  0.00    -0.382 OA
ATOM     28  H   UNL     1       3.395  -8.051  25.133  0.00  0.00    +0.210 HD
ENDBRANCH  14  27
ENDBRANCH  13  14
ENDBRANCH  12  13
ENDBRANCH  11  12
ENDBRANCH   8  11
ENDBRANCH   3   8
ENDBRANCH   1   2
BRANCH   1  29
ATOM     29  O   UNL     1      10.557  -3.019  23.730  0.00  0.00    -0.381 OA
ATOM     30  H   UNL     1      10.542  -3.539  24.566  0.00  0.00    +0.211 HD
ENDBRANCH   1  29
BRANCH   1  31
ATOM     31  C   UNL     1       9.878  -0.760  23.316  0.00  0.00    +0.268 C 
BRANCH  31  32
ATOM     32  O   UNL     1       8.925   0.186  22.804  0.00  0.00    -0.482 OA
BRANCH  32  43
ATOM     33  C   UNL     1       7.847   1.320  24.701  0.00  0.00    +0.181 A 
ATOM     34  O   UNL     1       7.644   2.465  25.494  0.00  0.00    -0.451 OA
ATOM     35  C   UNL     1       8.283   3.641  25.220  0.00  0.00    +0.147 A 
ATOM     36  C   UNL     1       9.235   3.746  24.236  0.00  0.00    +0.109 A 
ATOM     37  C   UNL     1       9.888   4.961  23.980  0.00  0.00    +0.135 A 
ATOM     38  C   UNL     1       9.591   6.084  24.734  0.00  0.00    +0.091 A 
ATOM     39  C   UNL     1       8.641   5.969  25.743  0.00  0.00    +0.124 A 
ATOM     40  C   UNL     1       9.588   2.542  23.515  0.00  0.00    +0.238 A 
ATOM     41  O   UNL     1      10.615   2.623  22.842  0.00  0.00    -0.283 OA
ATOM     42  C   UNL     1       7.983   4.762  25.995  0.00  0.00    +0.092 A 
ATOM     43  C   UNL     1       8.735   1.296  23.667  0.00  0.00    +0.211 A 
BRANCH  33  45
ATOM     44  C   UNL     1       7.242  -0.259  26.581  0.00  0.00    +0.015 A 
ATOM     45  C   UNL     1       7.020   0.170  25.240  0.00  0.00    +0.025 A 
ATOM     46  C   UNL     1       6.079  -0.563  24.505  0.00  0.00    +0.060 A 
ATOM     47  C   UNL     1       5.478  -1.701  25.056  0.00  0.00    +0.159 A 
ATOM     48  C   UNL     1       5.792  -2.148  26.336  0.00  0.00    +0.158 A 
ATOM     49  C   UNL     1       6.650  -1.412  27.123  0.00  0.00    +0.050 A 
BRANCH  48  50
ATOM     50  O   UNL     1       5.242  -3.322  26.765  0.00  0.00    -0.503 OA
ATOM     51  H   UNL     1       5.562  -4.034  26.183  0.00  0.00    +0.292 HD
ENDBRANCH  48  50
BRANCH  47  52
ATOM     52  O   UNL     1       4.574  -2.404  24.309  0.00  0.00    -0.503 OA
ATOM     53  H   UNL     1       3.707  -2.005  24.533  0.00  0.00    +0.292 HD
ENDBRANCH  47  52
ENDBRANCH  33  45
BRANCH  39  54
ATOM     54  O   UNL     1       8.329   7.044  26.522  0.00  0.00    -0.507 OA
ATOM     55  H   UNL     1       7.525   7.462  26.166  0.00  0.00    +0.292 HD
ENDBRANCH  39  54
BRANCH  37  56
ATOM     56  O   UNL     1      10.863   5.102  23.022  0.00  0.00    -0.506 OA
ATOM     57  H   UNL     1      11.436   5.857  23.286  0.00  0.00    +0.292 HD
ENDBRANCH  37  56
ENDBRANCH  32  43
ENDBRANCH  31  32
ENDBRANCH   1  31
TORSDOF 26
ENDMDL
MODEL 4
REMARK VINA RESULT:      -6.6      2.258      9.708
REMARK  Name = 
REMARK  26 active torsions:
REMARK  status: ('A' for Active; 'I' for Inactive)
REMARK    1  A    between atoms: C_3  and  O_44
REMARK    2  A    between atoms: C_4  and  O_43
REMARK    3  A    between atoms: C_6  and  C_7
REMARK    4  A    between atoms: C_8  and  O_20
REMARK    5  A    between atoms: C_12  and  O_19
REMARK    6  A    between atoms: C_14  and  O_18
REMARK    7  A    between atoms: O_20  and  C_21
REMARK    8  A    between atoms: C_21  and  C_22
REMARK    9  A    between atoms: C_22  and  C_23
REMARK   10  A    between atoms: C_22  and  O_42
REMARK   11  A    between atoms: C_23  and  O_41
REMARK   12  A    between atoms: C_24  and  C_25
REMARK   13  A    between atoms: C_24  and  O_40
REMARK   14  A    between atoms: C_25  and  C_26
REMARK   15  A    between atoms: C_25  and  O_39
REMARK   16  A    between atoms: C_26  and  O_27
REMARK   17  A    between atoms: O_27  and  C_28
REMARK   18  A    between atoms: C_28  and  C_29
REMARK   19  A    between atoms: C_29  and  C_30
REMARK   20  A    between atoms: C_29  and  O_38
REMARK   21  A    between atoms: C_30  and  O_37
REMARK   22  A    between atoms: C_31  and  C_32
REMARK   23  A    between atoms: C_31  and  O_36
REMARK   24  A    between atoms: C_32  and  C_33
REMARK   25  A    between atoms: C_32  and  O_35
REMARK   26  A    between atoms: C_33  and  O_34
REMARK                            x       y       z     vdW  Elec       q    Type
REMARK                         _______ _______ _______ _____ _____    ______ ____
ROOT
ATOM      1  C   UNL     1       5.754   1.346  26.633  0.00  0.00    +0.220 C 
ENDROOT
BRANCH   1   2
ATOM      2  C   UNL     1       5.792  -0.160  26.373  0.00  0.00    +0.166 C 
ATOM      3  C   UNL     1       4.734  -1.000  26.405  0.00  0.00    +0.165 C 
BRANCH   3   4
ATOM      4  O   UNL     1       3.429  -0.568  26.605  0.00  0.00    -0.505 OA
ATOM      5  H   UNL     1       2.832  -1.273  26.266  0.00  0.00    +0.292 HD
ENDBRANCH   3   4
BRANCH   2   6
ATOM      6  O   UNL     1       7.060  -0.702  26.186  0.00  0.00    -0.505 OA
ATOM      7  H   UNL     1       7.646  -0.035  25.778  0.00  0.00    +0.292 HD
ENDBRANCH   2   6
BRANCH   3   8
ATOM      8  C   UNL     1       4.851  -2.505  26.244  0.00  0.00    +0.208 C 
BRANCH   8   9
ATOM      9  O   UNL     1       5.334  -2.798  24.922  0.00  0.00    -0.382 OA
ATOM     10  H   UNL     1       4.821  -3.578  24.629  0.00  0.00    +0.210 HD
ENDBRANCH   8   9
BRANCH   8  11
ATOM     11  C   UNL     1       3.478  -3.176  26.420  0.00  0.00    +0.199 C 
BRANCH  11  12
ATOM     12  O   UNL     1       3.496  -4.501  25.856  0.00  0.00    -0.374 OA
BRANCH  12  13
ATOM     13  C   UNL     1       3.686  -5.494  26.879  0.00  0.00    +0.199 C 
BRANCH  13  14
ATOM     14  C   UNL     1       4.791  -6.464  26.425  0.00  0.00    +0.208 C 
BRANCH  14  15
ATOM     15  C   UNL     1       6.112  -5.808  26.053  0.00  0.00    +0.164 C 
ATOM     16  C   UNL     1       7.142  -5.580  26.895  0.00  0.00    +0.164 C 
BRANCH  16  17
ATOM     17  O   UNL     1       7.140  -5.924  28.241  0.00  0.00    -0.505 OA
ATOM     18  H   UNL     1       8.051  -6.064  28.548  0.00  0.00    +0.292 HD
ENDBRANCH  16  17
BRANCH  15  19
ATOM     19  O   UNL     1       6.242  -5.388  24.730  0.00  0.00    -0.505 OA
ATOM     20  H   UNL     1       6.369  -6.167  24.142  0.00  0.00    +0.292 HD
ENDBRANCH  15  19
BRANCH  16  21
ATOM     21  C   UNL     1       8.435  -4.915  26.452  0.00  0.00    +0.208 C 
BRANCH  21  22
ATOM     22  O   UNL     1       8.138  -3.592  25.954  0.00  0.00    -0.382 OA
ATOM     23  H   UNL     1       7.454  -3.252  26.564  0.00  0.00    +0.210 HD
ENDBRANCH  21  22
BRANCH  21  24
ATOM     24  C   UNL     1       9.133  -5.672  25.312  0.00  0.00    +0.195 C 
BRANCH  24  25
ATOM     25  O   UNL     1      10.519  -5.305  25.257  0.00  0.00    -0.392 OA
ATOM     26  H   UNL     1      10.682  -4.818  26.090  0.00  0.00    +0.210 HD
ENDBRANCH  24  25
ENDBRANCH  21  24
ENDBRANCH  16  21
ENDBRANCH  14  15
BRANCH  14  27
ATOM     27  O   UNL     1       5.048  -7.398  27.476  0.00  0.00    -0.382 OA
ATOM     28  H   UNL     1       4.928  -6.898  28.307  0.00  0.00    +0.210 HD
ENDBRANCH  14  27
ENDBRANCH  13  14
ENDBRANCH  12  13
ENDBRANCH  11  12
ENDBRANCH   8  11
ENDBRANCH   3   8
ENDBRANCH   1   2
BRANCH   1  29
ATOM     29  O   UNL     1       5.743   1.574  28.061  0.00  0.00    -0.381 OA
ATOM     30  H   UNL     1       6.517   1.093  28.435  0.00  0.00    +0.211 HD
ENDBRANCH   1  29
BRANCH   1  31
ATOM     31  C   UNL     1       7.018   2.023  26.084  0.00  0.00    +0.268 C 
BRANCH  31  32
ATOM     32  O   UNL     1       7.012   2.554  24.748  0.00  0.00    -0.482 OA
BRANCH  32  43
ATOM     33  C   UNL     1       9.185   1.970  23.755  0.00  0.00    +0.181 A 
ATOM     34  O   UNL     1      10.489   2.321  23.362  0.00  0.00    -0.451 OA
ATOM     35  C   UNL     1      10.973   3.585  23.552  0.00  0.00    +0.147 A 
ATOM     36  C   UNL     1      10.188   4.606  24.029  0.00  0.00    +0.109 A 
ATOM     37  C   UNL     1      10.701   5.900  24.204  0.00  0.00    +0.135 A 
ATOM     38  C   UNL     1      12.020   6.176  23.881  0.00  0.00    +0.091 A 
ATOM     39  C   UNL     1      12.807   5.144  23.379  0.00  0.00    +0.124 A 
ATOM     40  C   UNL     1       8.794   4.316  24.283  0.00  0.00    +0.238 A 
ATOM     41  O   UNL     1       8.080   5.305  24.449  0.00  0.00    -0.283 OA
ATOM     42  C   UNL     1      12.299   3.852  23.211  0.00  0.00    +0.092 A 
ATOM     43  C   UNL     1       8.311   2.876  24.280  0.00  0.00    +0.211 A 
BRANCH  33  45
ATOM     44  C   UNL     1       7.670   0.170  22.829  0.00  0.00    +0.015 A 
ATOM     45  C   UNL     1       8.921   0.517  23.418  0.00  0.00    +0.025 A 
ATOM     46  C   UNL     1       9.790  -0.547  23.693  0.00  0.00    +0.060 A 
ATOM     47  C   UNL     1       9.384  -1.869  23.475  0.00  0.00    +0.159 A 
ATOM     48  C   UNL     1       8.117  -2.176  22.989  0.00  0.00    +0.158 A 
ATOM     49  C   UNL     1       7.260  -1.159  22.628  0.00  0.00    +0.050 A 
BRANCH  48  50
ATOM     50  O   UNL     1       7.758  -3.491  22.899  0.00  0.00    -0.503 OA
ATOM     51  H   UNL     1       6.785  -3.534  22.862  0.00  0.00    +0.292 HD
ENDBRANCH  48  50
BRANCH  47  52
ATOM     52  O   UNL     1      10.250  -2.888  23.766  0.00  0.00    -0.503 OA
ATOM     53  H   UNL     1      10.921  -2.480  24.352  0.00  0.00    +0.292 HD
ENDBRANCH  47  52
ENDBRANCH  33  45
BRANCH  39  54
ATOM     54  O   UNL     1      14.104   5.373  23.032  0.00  0.00    -0.507 OA
ATOM     55  H   UNL     1      14.609   4.549  23.152  0.00  0.00    +0.292 HD
ENDBRANCH  39  54
BRANCH  37  56
ATOM     56  O   UNL     1       9.945   6.954  24.656  0.00  0.00    -0.506 OA
ATOM     57  H   UNL     1      10.164   7.738  24.105  0.00  0.00    +0.292 HD
ENDBRANCH  37  56
ENDBRANCH  32  43
ENDBRANCH  31  32
ENDBRANCH   1  31
TORSDOF 26
ENDMDL
MODEL 5
REMARK VINA RESULT:      -6.6      2.202      7.596
REMARK  Name = 
REMARK  26 active torsions:
REMARK  status: ('A' for Active; 'I' for Inactive)
REMARK    1  A    between atoms: C_3  and  O_44
REMARK    2  A    between atoms: C_4  and  O_43
REMARK    3  A    between atoms: C_6  and  C_7
REMARK    4  A    between atoms: C_8  and  O_20
REMARK    5  A    between atoms: C_12  and  O_19
REMARK    6  A    between atoms: C_14  and  O_18
REMARK    7  A    between atoms: O_20  and  C_21
REMARK    8  A    between atoms: C_21  and  C_22
REMARK    9  A    between atoms: C_22  and  C_23
REMARK   10  A    between atoms: C_22  and  O_42
REMARK   11  A    between atoms: C_23  and  O_41
REMARK   12  A    between atoms: C_24  and  C_25
REMARK   13  A    between atoms: C_24  and  O_40
REMARK   14  A    between atoms: C_25  and  C_26
REMARK   15  A    between atoms: C_25  and  O_39
REMARK   16  A    between atoms: C_26  and  O_27
REMARK   17  A    between atoms: O_27  and  C_28
REMARK   18  A    between atoms: C_28  and  C_29
REMARK   19  A    between atoms: C_29  and  C_30
REMARK   20  A    between atoms: C_29  and  O_38
REMARK   21  A    between atoms: C_30  and  O_37
REMARK   22  A    between atoms: C_31  and  C_32
REMARK   23  A    between atoms: C_31  and  O_36
REMARK   24  A    between atoms: C_32  and  C_33
REMARK   25  A    between atoms: C_32  and  O_35
REMARK   26  A    between atoms: C_33  and  O_34
REMARK                            x       y       z     vdW  Elec       q    Type
REMARK                         _______ _______ _______ _____ _____    ______ ____
ROOT
ATOM      1  C   UNL     1       7.569   0.059  27.071  0.00  0.00    +0.220 C 
ENDROOT
BRANCH   1   2
ATOM      2  C   UNL     1       6.258  -0.726  27.102  0.00  0.00    +0.166 C 
ATOM      3  C   UNL     1       5.179  -0.442  27.865  0.00  0.00    +0.165 C 
BRANCH   3   4
ATOM      4  O   UNL     1       5.100   0.681  28.680  0.00  0.00    -0.505 OA
ATOM      5  H   UNL     1       4.395   0.511  29.344  0.00  0.00    +0.292 HD
ENDBRANCH   3   4
BRANCH   2   6
ATOM      6  O   UNL     1       6.239  -1.888  26.339  0.00  0.00    -0.505 OA
ATOM      7  H   UNL     1       7.131  -2.060  25.979  0.00  0.00    +0.292 HD
ENDBRANCH   2   6
BRANCH   3   8
ATOM      8  C   UNL     1       3.944  -1.321  27.933  0.00  0.00    +0.208 C 
BRANCH   8   9
ATOM      9  O   UNL     1       2.865  -0.569  28.515  0.00  0.00    -0.382 OA
ATOM     10  H   UNL     1       3.297   0.091  29.093  0.00  0.00    +0.210 HD
ENDBRANCH   8   9
BRANCH   8  11
ATOM     11  C   UNL     1       4.205  -2.555  28.813  0.00  0.00    +0.199 C 
BRANCH  11  12
ATOM     12  O   UNL     1       4.593  -3.675  27.996  0.00  0.00    -0.374 OA
BRANCH  12  13
ATOM     13  C   UNL     1       5.577  -4.485  28.663  0.00  0.00    +0.199 C 
BRANCH  13  14
ATOM     14  C   UNL     1       6.278  -5.370  27.618  0.00  0.00    +0.208 C 
BRANCH  14  15
ATOM     15  C   UNL     1       5.347  -6.092  26.656  0.00  0.00    +0.164 C 
ATOM     16  C   UNL     1       4.817  -5.567  25.531  0.00  0.00    +0.164 C 
BRANCH  16  17
ATOM     17  O   UNL     1       5.057  -4.273  25.085  0.00  0.00    -0.505 OA
ATOM     18  H   UNL     1       5.582  -4.297  24.268  0.00  0.00    +0.292 HD
ENDBRANCH  16  17
BRANCH  15  19
ATOM     19  O   UNL     1       4.999  -7.399  26.995  0.00  0.00    -0.505 OA
ATOM     20  H   UNL     1       5.812  -7.934  27.142  0.00  0.00    +0.292 HD
ENDBRANCH  15  19
BRANCH  16  21
ATOM     21  C   UNL     1       3.888  -6.349  24.615  0.00  0.00    +0.208 C 
BRANCH  21  22
ATOM     22  O   UNL     1       4.599  -7.491  24.087  0.00  0.00    -0.382 OA
ATOM     23  H   UNL     1       4.404  -8.210  24.720  0.00  0.00    +0.210 HD
ENDBRANCH  21  22
BRANCH  21  24
ATOM     24  C   UNL     1       3.410  -5.527  23.409  0.00  0.00    +0.195 C 
BRANCH  24  25
ATOM     25  O   UNL     1       3.286  -6.373  22.257  0.00  0.00    -0.392 OA
ATOM     26  H   UNL     1       4.162  -6.333  21.824  0.00  0.00    +0.210 HD
ENDBRANCH  24  25
ENDBRANCH  21  24
ENDBRANCH  16  21
ENDBRANCH  14  15
BRANCH  14  27
ATOM     27  O   UNL     1       7.164  -4.559  26.843  0.00  0.00    -0.382 OA
ATOM     28  H   UNL     1       8.039  -4.644  27.270  0.00  0.00    +0.210 HD
ENDBRANCH  14  27
ENDBRANCH  13  14
ENDBRANCH  12  13
ENDBRANCH  11  12
ENDBRANCH   8  11
ENDBRANCH   3   8
ENDBRANCH   1   2
BRANCH   1  29
ATOM     29  O   UNL     1       7.782   0.667  28.366  0.00  0.00    -0.381 OA
ATOM     30  H   UNL     1       7.038   0.378  28.944  0.00  0.00    +0.211 HD
ENDBRANCH   1  29
BRANCH   1  31
ATOM     31  C   UNL     1       8.758  -0.880  26.820  0.00  0.00    +0.268 C 
BRANCH  31  32
ATOM     32  O   UNL     1       9.471  -0.799  25.575  0.00  0.00    -0.482 OA
BRANCH  32  43
ATOM     33  C   UNL     1       8.102  -0.860  23.532  0.00  0.00    +0.181 A 
ATOM     34  O   UNL     1       7.407  -1.577  22.540  0.00  0.00    -0.451 OA
ATOM     35  C   UNL     1       7.352  -2.942  22.557  0.00  0.00    +0.147 A 
ATOM     36  C   UNL     1       8.055  -3.693  23.467  0.00  0.00    +0.109 A 
ATOM     37  C   UNL     1       7.994  -5.094  23.459  0.00  0.00    +0.135 A 
ATOM     38  C   UNL     1       7.227  -5.752  22.512  0.00  0.00    +0.091 A 
ATOM     39  C   UNL     1       6.532  -4.989  21.579  0.00  0.00    +0.124 A 
ATOM     40  C   UNL     1       8.913  -2.989  24.395  0.00  0.00    +0.238 A 
ATOM     41  O   UNL     1       9.714  -3.700  25.003  0.00  0.00    -0.283 OA
ATOM     42  C   UNL     1       6.585  -3.592  21.590  0.00  0.00    +0.092 A 
ATOM     43  C   UNL     1       8.811  -1.479  24.520  0.00  0.00    +0.211 A 
BRANCH  33  45
ATOM     44  C   UNL     1       6.762   1.146  22.777  0.00  0.00    +0.015 A 
ATOM     45  C   UNL     1       7.999   0.626  23.258  0.00  0.00    +0.025 A 
ATOM     46  C   UNL     1       9.049   1.545  23.379  0.00  0.00    +0.060 A 
ATOM     47  C   UNL     1       8.885   2.870  22.957  0.00  0.00    +0.159 A 
ATOM     48  C   UNL     1       7.692   3.320  22.402  0.00  0.00    +0.158 A 
ATOM     49  C   UNL     1       6.607   2.471  22.338  0.00  0.00    +0.050 A 
BRANCH  48  50
ATOM     50  O   UNL     1       7.641   4.597  21.919  0.00  0.00    -0.503 OA
ATOM     51  H   UNL     1       7.281   4.562  21.015  0.00  0.00    +0.292 HD
ENDBRANCH  48  50
BRANCH  47  52
ATOM     52  O   UNL     1       9.934   3.741  23.075  0.00  0.00    -0.503 OA
ATOM     53  H   UNL     1       9.532   4.626  22.956  0.00  0.00    +0.292 HD
ENDBRANCH  47  52
ENDBRANCH  33  45
BRANCH  39  54
ATOM     54  O   UNL     1       5.778  -5.595  20.618  0.00  0.00    -0.507 OA
ATOM     55  H   UNL     1       6.047  -5.249  19.748  0.00  0.00    +0.292 HD
ENDBRANCH  39  54
BRANCH  37  56
ATOM     56  O   UNL     1       8.700  -5.883  24.335  0.00  0.00    -0.506 OA
ATOM     57  H   UNL     1       9.644  -5.614  24.287  0.00  0.00    +0.292 HD
ENDBRANCH  37  56
ENDBRANCH  32  43
ENDBRANCH  31  32
ENDBRANCH   1  31
TORSDOF 26
ENDMDL
MODEL 6
REMARK VINA RESULT:      -6.5      2.054      9.252
REMARK  Name = 
REMARK  26 active torsions:
REMARK  status: ('A' for Active; 'I' for Inactive)
REMARK    1  A    between atoms: C_3  and  O_44
REMARK    2  A    between atoms: C_4  and  O_43
REMARK    3  A    between atoms: C_6  and  C_7
REMARK    4  A    between atoms: C_8  and  O_20
REMARK    5  A    between atoms: C_12  and  O_19
REMARK    6  A    between atoms: C_14  and  O_18
REMARK    7  A    between atoms: O_20  and  C_21
REMARK    8  A    between atoms: C_21  and  C_22
REMARK    9  A    between atoms: C_22  and  C_23
REMARK   10  A    between atoms: C_22  and  O_42
REMARK   11  A    between atoms: C_23  and  O_41
REMARK   12  A    between atoms: C_24  and  C_25
REMARK   13  A    between atoms: C_24  and  O_40
REMARK   14  A    between atoms: C_25  and  C_26
REMARK   15  A    between atoms: C_25  and  O_39
REMARK   16  A    between atoms: C_26  and  O_27
REMARK   17  A    between atoms: O_27  and  C_28
REMARK   18  A    between atoms: C_28  and  C_29
REMARK   19  A    between atoms: C_29  and  C_30
REMARK   20  A    between atoms: C_29  and  O_38
REMARK   21  A    between atoms: C_30  and  O_37
REMARK   22  A    between atoms: C_31  and  C_32
REMARK   23  A    between atoms: C_31  and  O_36
REMARK   24  A    between atoms: C_32  and  C_33
REMARK   25  A    between atoms: C_32  and  O_35
REMARK   26  A    between atoms: C_33  and  O_34
REMARK                            x       y       z     vdW  Elec       q    Type
REMARK                         _______ _______ _______ _____ _____    ______ ____
ROOT
ATOM      1  C   UNL     1       5.804   1.939  27.094  0.00  0.00    +0.220 C 
ENDROOT
BRANCH   1   2
ATOM      2  C   UNL     1       5.905   0.475  26.666  0.00  0.00    +0.166 C 
ATOM      3  C   UNL     1       6.940  -0.358  26.917  0.00  0.00    +0.165 C 
BRANCH   3   4
ATOM      4  O   UNL     1       8.037   0.007  27.688  0.00  0.00    -0.505 OA
ATOM      5  H   UNL     1       7.696   0.504  28.465  0.00  0.00    +0.292 HD
ENDBRANCH   3   4
BRANCH   2   6
ATOM      6  O   UNL     1       4.866   0.014  25.865  0.00  0.00    -0.505 OA
ATOM      7  H   UNL     1       4.035   0.462  26.114  0.00  0.00    +0.292 HD
ENDBRANCH   2   6
BRANCH   3   8
ATOM      8  C   UNL     1       7.031  -1.772  26.374  0.00  0.00    +0.208 C 
BRANCH   8   9
ATOM      9  O   UNL     1       6.153  -2.622  27.132  0.00  0.00    -0.382 OA
ATOM     10  H   UNL     1       5.405  -2.049  27.393  0.00  0.00    +0.210 HD
ENDBRANCH   8   9
BRANCH   8  11
ATOM     11  C   UNL     1       8.465  -2.312  26.508  0.00  0.00    +0.199 C 
BRANCH  11  12
ATOM     12  O   UNL     1       8.443  -3.666  26.997  0.00  0.00    -0.374 OA
BRANCH  12  13
ATOM     13  C   UNL     1       9.320  -4.507  26.229  0.00  0.00    +0.199 C 
BRANCH  13  14
ATOM     14  C   UNL     1       8.471  -5.535  25.460  0.00  0.00    +0.208 C 
BRANCH  14  15
ATOM     15  C   UNL     1       6.982  -5.502  25.772  0.00  0.00    +0.164 C 
ATOM     16  C   UNL     1       6.012  -5.082  24.933  0.00  0.00    +0.164 C 
BRANCH  16  17
ATOM     17  O   UNL     1       6.242  -4.618  23.644  0.00  0.00    -0.505 OA
ATOM     18  H   UNL     1       7.182  -4.401  23.533  0.00  0.00    +0.292 HD
ENDBRANCH  16  17
BRANCH  15  19
ATOM     19  O   UNL     1       6.609  -5.921  27.048  0.00  0.00    -0.505 OA
ATOM     20  H   UNL     1       5.795  -5.447  27.332  0.00  0.00    +0.292 HD
ENDBRANCH  15  19
BRANCH  16  21
ATOM     21  C   UNL     1       4.540  -5.075  25.315  0.00  0.00    +0.208 C 
BRANCH  21  22
ATOM     22  O   UNL     1       3.982  -6.383  25.062  0.00  0.00    -0.382 OA
ATOM     23  H   UNL     1       3.148  -6.202  24.584  0.00  0.00    +0.210 HD
ENDBRANCH  21  22
BRANCH  21  24
ATOM     24  C   UNL     1       3.716  -4.074  24.491  0.00  0.00    +0.195 C 
BRANCH  24  25
ATOM     25  O   UNL     1       4.157  -2.736  24.763  0.00  0.00    -0.392 OA
ATOM     26  H   UNL     1       4.375  -2.734  25.717  0.00  0.00    +0.210 HD
ENDBRANCH  24  25
ENDBRANCH  21  24
ENDBRANCH  16  21
ENDBRANCH  14  15
BRANCH  14  27
ATOM     27  O   UNL     1       8.629  -5.310  24.057  0.00  0.00    -0.382 OA
ATOM     28  H   UNL     1       9.506  -5.676  23.830  0.00  0.00    +0.210 HD
ENDBRANCH  14  27
ENDBRANCH  13  14
ENDBRANCH  12  13
ENDBRANCH  11  12
ENDBRANCH   8  11
ENDBRANCH   3   8
ENDBRANCH   1   2
BRANCH   1  29
ATOM     29  O   UNL     1       6.110   2.037  28.504  0.00  0.00    -0.381 OA
ATOM     30  H   UNL     1       6.885   1.452  28.671  0.00  0.00    +0.211 HD
ENDBRANCH   1  29
BRANCH   1  31
ATOM     31  C   UNL     1       6.844   2.793  26.353  0.00  0.00    +0.268 C 
BRANCH  31  32
ATOM     32  O   UNL     1       6.909   2.739  24.918  0.00  0.00    -0.482 OA
BRANCH  32  43
ATOM     33  C   UNL     1       9.039   2.067  23.889  0.00  0.00    +0.181 A 
ATOM     34  O   UNL     1      10.346   2.368  23.463  0.00  0.00    -0.451 OA
ATOM     35  C   UNL     1      10.876   3.617  23.622  0.00  0.00    +0.147 A 
ATOM     36  C   UNL     1      10.136   4.671  24.099  0.00  0.00    +0.109 A 
ATOM     37  C   UNL     1      10.696   5.949  24.243  0.00  0.00    +0.135 A 
ATOM     38  C   UNL     1      12.016   6.176  23.888  0.00  0.00    +0.091 A 
ATOM     39  C   UNL     1      12.756   5.110  23.386  0.00  0.00    +0.124 A 
ATOM     40  C   UNL     1       8.738   4.433  24.387  0.00  0.00    +0.238 A 
ATOM     41  O   UNL     1       8.062   5.448  24.553  0.00  0.00    -0.283 OA
ATOM     42  C   UNL     1      12.202   3.834  23.249  0.00  0.00    +0.092 A 
ATOM     43  C   UNL     1       8.208   3.010  24.417  0.00  0.00    +0.211 A 
BRANCH  33  45
ATOM     44  C   UNL     1       9.798  -0.306  23.464  0.00  0.00    +0.015 A 
ATOM     45  C   UNL     1       8.720   0.619  23.581  0.00  0.00    +0.025 A 
ATOM     46  C   UNL     1       7.439   0.107  23.336  0.00  0.00    +0.060 A 
ATOM     47  C   UNL     1       7.272  -1.217  22.914  0.00  0.00    +0.159 A 
ATOM     48  C   UNL     1       8.357  -2.066  22.717  0.00  0.00    +0.158 A 
ATOM     49  C   UNL     1       9.628  -1.629  23.023  0.00  0.00    +0.050 A 
BRANCH  48  50
ATOM     50  O   UNL     1       8.123  -3.311  22.206  0.00  0.00    -0.503 OA
ATOM     51  H   UNL     1       8.256  -3.958  22.922  0.00  0.00    +0.292 HD
ENDBRANCH  48  50
BRANCH  47  52
ATOM     52  O   UNL     1       6.009  -1.684  22.670  0.00  0.00    -0.503 OA
ATOM     53  H   UNL     1       5.454  -1.262  23.358  0.00  0.00    +0.292 HD
ENDBRANCH  47  52
ENDBRANCH  33  45
BRANCH  39  54
ATOM     54  O   UNL     1      14.053   5.290  23.008  0.00  0.00    -0.507 OA
ATOM     55  H   UNL     1      14.453   4.417  22.844  0.00  0.00    +0.292 HD
ENDBRANCH  39  54
BRANCH  37  56
ATOM     56  O   UNL     1       9.985   7.035  24.693  0.00  0.00    -0.506 OA
ATOM     57  H   UNL     1       9.721   6.857  25.623  0.00  0.00    +0.292 HD
ENDBRANCH  37  56
ENDBRANCH  32  43
ENDBRANCH  31  32
ENDBRANCH   1  31
TORSDOF 26
ENDMDL
MODEL 7
REMARK VINA RESULT:      -6.5      2.371      7.832
REMARK  Name = 
REMARK  26 active torsions:
REMARK  status: ('A' for Active; 'I' for Inactive)
REMARK    1  A    between atoms: C_3  and  O_44
REMARK    2  A    between atoms: C_4  and  O_43
REMARK    3  A    between atoms: C_6  and  C_7
REMARK    4  A    between atoms: C_8  and  O_20
REMARK    5  A    between atoms: C_12  and  O_19
REMARK    6  A    between atoms: C_14  and  O_18
REMARK    7  A    between atoms: O_20  and  C_21
REMARK    8  A    between atoms: C_21  and  C_22
REMARK    9  A    between atoms: C_22  and  C_23
REMARK   10  A    between atoms: C_22  and  O_42
REMARK   11  A    between atoms: C_23  and  O_41
REMARK   12  A    between atoms: C_24  and  C_25
REMARK   13  A    between atoms: C_24  and  O_40
REMARK   14  A    between atoms: C_25  and  C_26
REMARK   15  A    between atoms: C_25  and  O_39
REMARK   16  A    between atoms: C_26  and  O_27
REMARK   17  A    between atoms: O_27  and  C_28
REMARK   18  A    between atoms: C_28  and  C_29
REMARK   19  A    between atoms: C_29  and  C_30
REMARK   20  A    between atoms: C_29  and  O_38
REMARK   21  A    between atoms: C_30  and  O_37
REMARK   22  A    between atoms: C_31  and  C_32
REMARK   23  A    between atoms: C_31  and  O_36
REMARK   24  A    between atoms: C_32  and  C_33
REMARK   25  A    between atoms: C_32  and  O_35
REMARK   26  A    between atoms: C_33  and  O_34
REMARK                            x       y       z     vdW  Elec       q    Type
REMARK                         _______ _______ _______ _____ _____    ______ ____
ROOT
ATOM      1  C   UNL     1       8.264  -2.278  22.560  0.00  0.00    +0.220 C 
ENDROOT
BRANCH   1   2
ATOM      2  C   UNL     1       9.045  -2.971  23.676  0.00  0.00    +0.166 C 
ATOM      3  C   UNL     1       8.777  -4.190  24.195  0.00  0.00    +0.165 C 
BRANCH   3   4
ATOM      4  O   UNL     1       7.776  -5.020  23.705  0.00  0.00    -0.505 OA
ATOM      5  H   UNL     1       7.118  -5.140  24.426  0.00  0.00    +0.292 HD
ENDBRANCH   3   4
BRANCH   2   6
ATOM      6  O   UNL     1      10.056  -2.214  24.257  0.00  0.00    -0.505 OA
ATOM      7  H   UNL     1       9.680  -1.639  24.952  0.00  0.00    +0.292 HD
ENDBRANCH   2   6
BRANCH   3   8
ATOM      8  C   UNL     1       9.523  -4.781  25.378  0.00  0.00    +0.208 C 
BRANCH   8   9
ATOM      9  O   UNL     1       9.778  -6.173  25.121  0.00  0.00    -0.382 OA
ATOM     10  H   UNL     1       9.449  -6.331  24.214  0.00  0.00    +0.210 HD
ENDBRANCH   8   9
BRANCH   8  11
ATOM     11  C   UNL     1       8.679  -4.671  26.660  0.00  0.00    +0.199 C 
BRANCH  11  12
ATOM     12  O   UNL     1       7.654  -5.681  26.669  0.00  0.00    -0.374 OA
BRANCH  12  13
ATOM     13  C   UNL     1       6.706  -5.444  27.724  0.00  0.00    +0.199 C 
BRANCH  13  14
ATOM     14  C   UNL     1       5.344  -6.023  27.303  0.00  0.00    +0.208 C 
BRANCH  14  15
ATOM     15  C   UNL     1       5.015  -5.885  25.824  0.00  0.00    +0.164 C 
ATOM     16  C   UNL     1       4.300  -6.766  25.092  0.00  0.00    +0.164 C 
BRANCH  16  17
ATOM     17  O   UNL     1       3.751  -7.937  25.598  0.00  0.00    -0.505 OA
ATOM     18  H   UNL     1       3.696  -7.885  26.567  0.00  0.00    +0.292 HD
ENDBRANCH  16  17
BRANCH  15  19
ATOM     19  O   UNL     1       5.528  -4.761  25.178  0.00  0.00    -0.505 OA
ATOM     20  H   UNL     1       5.106  -4.659  24.296  0.00  0.00    +0.292 HD
ENDBRANCH  15  19
BRANCH  16  21
ATOM     21  C   UNL     1       4.012  -6.564  23.612  0.00  0.00    +0.208 C 
BRANCH  21  22
ATOM     22  O   UNL     1       5.263  -6.527  22.890  0.00  0.00    -0.382 OA
ATOM     23  H   UNL     1       5.946  -6.530  23.589  0.00  0.00    +0.210 HD
ENDBRANCH  21  22
BRANCH  21  24
ATOM     24  C   UNL     1       3.293  -5.238  23.322  0.00  0.00    +0.195 C 
BRANCH  24  25
ATOM     25  O   UNL     1       4.204  -4.308  22.720  0.00  0.00    -0.392 OA
ATOM     26  H   UNL     1       4.150  -4.492  21.760  0.00  0.00    +0.210 HD
ENDBRANCH  24  25
ENDBRANCH  21  24
ENDBRANCH  16  21
ENDBRANCH  14  15
BRANCH  14  27
ATOM     27  O   UNL     1       5.310  -7.414  27.631  0.00  0.00    -0.382 OA
ATOM     28  H   UNL     1       4.435  -7.565  28.040  0.00  0.00    +0.210 HD
ENDBRANCH  14  27
ENDBRANCH  13  14
ENDBRANCH  12  13
ENDBRANCH  11  12
ENDBRANCH   8  11
ENDBRANCH   3   8
ENDBRANCH   1   2
BRANCH   1  29
ATOM     29  O   UNL     1       6.942  -2.860  22.482  0.00  0.00    -0.381 OA
ATOM     30  H   UNL     1       6.900  -3.362  21.636  0.00  0.00    +0.211 HD
ENDBRANCH   1  29
BRANCH   1  31
ATOM     31  C   UNL     1       8.076  -0.786  22.875  0.00  0.00    +0.268 C 
BRANCH  31  32
ATOM     32  O   UNL     1       8.265  -0.319  24.221  0.00  0.00    -0.482 OA
BRANCH  32  43
ATOM     33  C   UNL     1       6.723   1.479  24.881  0.00  0.00    +0.181 A 
ATOM     34  O   UNL     1       5.554   1.918  25.530  0.00  0.00    -0.451 OA
ATOM     35  C   UNL     1       4.733   1.044  26.184  0.00  0.00    +0.147 A 
ATOM     36  C   UNL     1       4.935  -0.314  26.153  0.00  0.00    +0.109 A 
ATOM     37  C   UNL     1       4.072  -1.196  26.821  0.00  0.00    +0.135 A 
ATOM     38  C   UNL     1       2.980  -0.706  27.518  0.00  0.00    +0.091 A 
ATOM     39  C   UNL     1       2.766   0.669  27.531  0.00  0.00    +0.124 A 
ATOM     40  C   UNL     1       6.034  -0.809  25.352  0.00  0.00    +0.238 A 
ATOM     41  O   UNL     1       6.016  -2.022  25.140  0.00  0.00    -0.283 OA
ATOM     42  C   UNL     1       3.630   1.549  26.872  0.00  0.00    +0.092 A 
ATOM     43  C   UNL     1       7.067   0.162  24.808  0.00  0.00    +0.211 A 
BRANCH  33  45
ATOM     44  C   UNL     1       8.605   3.167  24.862  0.00  0.00    +0.015 A 
ATOM     45  C   UNL     1       7.428   2.658  24.241  0.00  0.00    +0.025 A 
ATOM     46  C   UNL     1       6.984   3.345  23.104  0.00  0.00    +0.060 A 
ATOM     47  C   UNL     1       7.631   4.513  22.683  0.00  0.00    +0.159 A 
ATOM     48  C   UNL     1       8.720   5.036  23.371  0.00  0.00    +0.158 A 
ATOM     49  C   UNL     1       9.240   4.349  24.447  0.00  0.00    +0.050 A 
BRANCH  48  50
ATOM     50  O   UNL     1       9.234   6.233  22.961  0.00  0.00    -0.503 OA
ATOM     51  H   UNL     1       9.866   6.537  23.637  0.00  0.00    +0.292 HD
ENDBRANCH  48  50
BRANCH  47  52
ATOM     52  O   UNL     1       7.165   5.170  21.577  0.00  0.00    -0.503 OA
ATOM     53  H   UNL     1       7.160   4.489  20.872  0.00  0.00    +0.292 HD
ENDBRANCH  47  52
ENDBRANCH  33  45
BRANCH  39  54
ATOM     54  O   UNL     1       1.695   1.193  28.189  0.00  0.00    -0.507 OA
ATOM     55  H   UNL     1       2.020   1.803  28.876  0.00  0.00    +0.292 HD
ENDBRANCH  39  54
BRANCH  37  56
ATOM     56  O   UNL     1       4.225  -2.560  26.796  0.00  0.00    -0.506 OA
ATOM     57  H   UNL     1       4.746  -2.819  27.588  0.00  0.00    +0.292 HD
ENDBRANCH  37  56
ENDBRANCH  32  43
ENDBRANCH  31  32
ENDBRANCH   1  31
TORSDOF 26
ENDMDL
MODEL 8
REMARK VINA RESULT:      -6.5      2.533      9.534
REMARK  Name = 
REMARK  26 active torsions:
REMARK  status: ('A' for Active; 'I' for Inactive)
REMARK    1  A    between atoms: C_3  and  O_44
REMARK    2  A    between atoms: C_4  and  O_43
REMARK    3  A    between atoms: C_6  and  C_7
REMARK    4  A    between atoms: C_8  and  O_20
REMARK    5  A    between atoms: C_12  and  O_19
REMARK    6  A    between atoms: C_14  and  O_18
REMARK    7  A    between atoms: O_20  and  C_21
REMARK    8  A    between atoms: C_21  and  C_22
REMARK    9  A    between atoms: C_22  and  C_23
REMARK   10  A    between atoms: C_22  and  O_42
REMARK   11  A    between atoms: C_23  and  O_41
REMARK   12  A    between atoms: C_24  and  C_25
REMARK   13  A    between atoms: C_24  and  O_40
REMARK   14  A    between atoms: C_25  and  C_26
REMARK   15  A    between atoms: C_25  and  O_39
REMARK   16  A    between atoms: C_26  and  O_27
REMARK   17  A    between atoms: O_27  and  C_28
REMARK   18  A    between atoms: C_28  and  C_29
REMARK   19  A    between atoms: C_29  and  C_30
REMARK   20  A    between atoms: C_29  and  O_38
REMARK   21  A    between atoms: C_30  and  O_37
REMARK   22  A    between atoms: C_31  and  C_32
REMARK   23  A    between atoms: C_31  and  O_36
REMARK   24  A    between atoms: C_32  and  C_33
REMARK   25  A    between atoms: C_32  and  O_35
REMARK   26  A    between atoms: C_33  and  O_34
REMARK                            x       y       z     vdW  Elec       q    Type
REMARK                         _______ _______ _______ _____ _____    ______ ____
ROOT
ATOM      1  C   UNL     1       8.137  -3.326  25.830  0.00  0.00    +0.220 C 
ENDROOT
BRANCH   1   2
ATOM      2  C   UNL     1       7.620  -4.515  26.640  0.00  0.00    +0.166 C 
ATOM      3  C   UNL     1       6.523  -4.522  27.430  0.00  0.00    +0.165 C 
BRANCH   3   4
ATOM      4  O   UNL     1       5.662  -3.436  27.542  0.00  0.00    -0.505 OA
ATOM      5  H   UNL     1       5.692  -2.951  26.687  0.00  0.00    +0.292 HD
ENDBRANCH   3   4
BRANCH   2   6
ATOM      6  O   UNL     1       8.424  -5.649  26.618  0.00  0.00    -0.505 OA
ATOM      7  H   UNL     1       8.268  -6.147  25.792  0.00  0.00    +0.292 HD
ENDBRANCH   2   6
BRANCH   3   8
ATOM      8  C   UNL     1       6.118  -5.702  28.295  0.00  0.00    +0.208 C 
BRANCH   8   9
ATOM      9  O   UNL     1       5.682  -6.777  27.445  0.00  0.00    -0.382 OA
ATOM     10  H   UNL     1       6.351  -6.828  26.734  0.00  0.00    +0.210 HD
ENDBRANCH   8   9
BRANCH   8  11
ATOM     11  C   UNL     1       4.956  -5.317  29.226  0.00  0.00    +0.199 C 
BRANCH  11  12
ATOM     12  O   UNL     1       3.785  -6.089  28.905  0.00  0.00    -0.374 OA
BRANCH  12  13
ATOM     13  C   UNL     1       2.690  -5.236  28.529  0.00  0.00    +0.199 C 
BRANCH  13  14
ATOM     14  C   UNL     1       2.612  -5.181  26.993  0.00  0.00    +0.208 C 
BRANCH  14  15
ATOM     15  C   UNL     1       2.316  -6.511  26.316  0.00  0.00    +0.164 C 
ATOM     16  C   UNL     1       1.757  -6.666  25.097  0.00  0.00    +0.164 C 
BRANCH  16  17
ATOM     17  O   UNL     1       1.374  -5.614  24.275  0.00  0.00    -0.505 OA
ATOM     18  H   UNL     1       1.140  -4.840  24.815  0.00  0.00    +0.292 HD
ENDBRANCH  16  17
BRANCH  15  19
ATOM     19  O   UNL     1       2.630  -7.659  27.043  0.00  0.00    -0.505 OA
ATOM     20  H   UNL     1       1.827  -8.216  27.154  0.00  0.00    +0.292 HD
ENDBRANCH  15  19
BRANCH  16  21
ATOM     21  C   UNL     1       1.488  -8.030  24.482  0.00  0.00    +0.208 C 
BRANCH  21  22
ATOM     22  O   UNL     1       2.747  -8.694  24.238  0.00  0.00    -0.382 OA
ATOM     23  H   UNL     1       2.541  -9.645  24.330  0.00  0.00    +0.210 HD
ENDBRANCH  21  22
BRANCH  21  24
ATOM     24  C   UNL     1       0.763  -7.941  23.131  0.00  0.00    +0.195 C 
BRANCH  24  25
ATOM     25  O   UNL     1       1.717  -7.761  22.074  0.00  0.00    -0.392 OA
ATOM     26  H   UNL     1       1.914  -8.667  21.760  0.00  0.00    +0.210 HD
ENDBRANCH  24  25
ENDBRANCH  21  24
ENDBRANCH  16  21
ENDBRANCH  14  15
BRANCH  14  27
ATOM     27  O   UNL     1       1.587  -4.260  26.614  0.00  0.00    -0.382 OA
ATOM     28  H   UNL     1       2.052  -3.507  26.200  0.00  0.00    +0.210 HD
ENDBRANCH  14  27
ENDBRANCH  13  14
ENDBRANCH  12  13
ENDBRANCH  11  12
ENDBRANCH   8  11
ENDBRANCH   3   8
ENDBRANCH   1   2
BRANCH   1  29
ATOM     29  O   UNL     1       8.479  -2.254  26.739  0.00  0.00    -0.381 OA
ATOM     30  H   UNL     1       7.634  -1.922  27.121  0.00  0.00    +0.211 HD
ENDBRANCH   1  29
BRANCH   1  31
ATOM     31  C   UNL     1       9.424  -3.700  25.080  0.00  0.00    +0.268 C 
BRANCH  31  32
ATOM     32  O   UNL     1       9.610  -3.249  23.728  0.00  0.00    -0.482 OA
BRANCH  32  43
ATOM     33  C   UNL     1       7.611  -2.051  22.945  0.00  0.00    +0.181 A 
ATOM     34  O   UNL     1       6.947  -0.856  22.610  0.00  0.00    -0.451 OA
ATOM     35  C   UNL     1       7.573   0.354  22.702  0.00  0.00    +0.147 A 
ATOM     36  C   UNL     1       8.836   0.488  23.226  0.00  0.00    +0.109 A 
ATOM     37  C   UNL     1       9.456   1.743  23.323  0.00  0.00    +0.135 A 
ATOM     38  C   UNL     1       8.792   2.882  22.901  0.00  0.00    +0.091 A 
ATOM     39  C   UNL     1       7.505   2.746  22.390  0.00  0.00    +0.124 A 
ATOM     40  C   UNL     1       9.479  -0.704  23.735  0.00  0.00    +0.238 A 
ATOM     41  O   UNL     1      10.478  -0.500  24.425  0.00  0.00    -0.283 OA
ATOM     42  C   UNL     1       6.888   1.495  22.285  0.00  0.00    +0.092 A 
ATOM     43  C   UNL     1       8.881  -2.068  23.439  0.00  0.00    +0.211 A 
BRANCH  33  45
ATOM     44  C   UNL     1       5.345  -3.128  23.255  0.00  0.00    +0.015 A 
ATOM     45  C   UNL     1       6.675  -3.228  22.754  0.00  0.00    +0.025 A 
ATOM     46  C   UNL     1       7.025  -4.453  22.171  0.00  0.00    +0.060 A 
ATOM     47  C   UNL     1       6.125  -5.525  22.179  0.00  0.00    +0.159 A 
ATOM     48  C   UNL     1       4.868  -5.422  22.764  0.00  0.00    +0.158 A 
ATOM     49  C   UNL     1       4.452  -4.212  23.277  0.00  0.00    +0.050 A 
BRANCH  48  50
ATOM     50  O   UNL     1       4.086  -6.541  22.824  0.00  0.00    -0.503 OA
ATOM     51  H   UNL     1       4.320  -7.028  23.635  0.00  0.00    +0.292 HD
ENDBRANCH  48  50
BRANCH  47  52
ATOM     52  O   UNL     1       6.501  -6.713  21.614  0.00  0.00    -0.503 OA
ATOM     53  H   UNL     1       7.163  -6.464  20.936  0.00  0.00    +0.292 HD
ENDBRANCH  47  52
ENDBRANCH  33  45
BRANCH  39  54
ATOM     54  O   UNL     1       6.807   3.842  21.979  0.00  0.00    -0.507 OA
ATOM     55  H   UNL     1       6.615   4.397  22.755  0.00  0.00    +0.292 HD
ENDBRANCH  39  54
BRANCH  37  56
ATOM     56  O   UNL     1      10.707   1.923  23.862  0.00  0.00    -0.506 OA
ATOM     57  H   UNL     1      11.291   2.274  23.153  0.00  0.00    +0.292 HD
ENDBRANCH  37  56
ENDBRANCH  32  43
ENDBRANCH  31  32
ENDBRANCH   1  31
TORSDOF 26
ENDMDL
MODEL 9
REMARK VINA RESULT:      -6.4      1.963      9.915
REMARK  Name = 
REMARK  26 active torsions:
REMARK  status: ('A' for Active; 'I' for Inactive)
REMARK    1  A    between atoms: C_3  and  O_44
REMARK    2  A    between atoms: C_4  and  O_43
REMARK    3  A    between atoms: C_6  and  C_7
REMARK    4  A    between atoms: C_8  and  O_20
REMARK    5  A    between atoms: C_12  and  O_19
REMARK    6  A    between atoms: C_14  and  O_18
REMARK    7  A    between atoms: O_20  and  C_21
REMARK    8  A    between atoms: C_21  and  C_22
REMARK    9  A    between atoms: C_22  and  C_23
REMARK   10  A    between atoms: C_22  and  O_42
REMARK   11  A    between atoms: C_23  and  O_41
REMARK   12  A    between atoms: C_24  and  C_25
REMARK   13  A    between atoms: C_24  and  O_40
REMARK   14  A    between atoms: C_25  and  C_26
REMARK   15  A    between atoms: C_25  and  O_39
REMARK   16  A    between atoms: C_26  and  O_27
REMARK   17  A    between atoms: O_27  and  C_28
REMARK   18  A    between atoms: C_28  and  C_29
REMARK   19  A    between atoms: C_29  and  C_30
REMARK   20  A    between atoms: C_29  and  O_38
REMARK   21  A    between atoms: C_30  and  O_37
REMARK   22  A    between atoms: C_31  and  C_32
REMARK   23  A    between atoms: C_31  and  O_36
REMARK   24  A    between atoms: C_32  and  C_33
REMARK   25  A    between atoms: C_32  and  O_35
REMARK   26  A    between atoms: C_33  and  O_34
REMARK                            x       y       z     vdW  Elec       q    Type
REMARK                         _______ _______ _______ _____ _____    ______ ____
ROOT
ATOM      1  C   UNL     1       5.385   1.457  26.397  0.00  0.00    +0.220 C 
ENDROOT
BRANCH   1   2
ATOM      2  C   UNL     1       5.235  -0.063  26.455  0.00  0.00    +0.166 C 
ATOM      3  C   UNL     1       5.291  -0.909  25.403  0.00  0.00    +0.165 C 
BRANCH   3   4
ATOM      4  O   UNL     1       5.579  -0.491  24.109  0.00  0.00    -0.505 OA
ATOM      5  H   UNL     1       4.721  -0.372  23.643  0.00  0.00    +0.292 HD
ENDBRANCH   3   4
BRANCH   2   6
ATOM      6  O   UNL     1       4.917  -0.584  27.705  0.00  0.00    -0.505 OA
ATOM      7  H   UNL     1       4.230  -0.032  28.127  0.00  0.00    +0.292 HD
ENDBRANCH   2   6
BRANCH   3   8
ATOM      8  C   UNL     1       5.027  -2.400  25.508  0.00  0.00    +0.208 C 
BRANCH   8   9
ATOM      9  O   UNL     1       6.134  -3.024  26.182  0.00  0.00    -0.382 OA
ATOM     10  H   UNL     1       5.777  -3.314  27.045  0.00  0.00    +0.210 HD
ENDBRANCH   8   9
BRANCH   8  11
ATOM     11  C   UNL     1       4.893  -3.026  24.110  0.00  0.00    +0.199 C 
BRANCH  11  12
ATOM     12  O   UNL     1       5.542  -4.311  24.076  0.00  0.00    -0.374 OA
BRANCH  12  13
ATOM     13  C   UNL     1       4.623  -5.344  23.683  0.00  0.00    +0.199 C 
BRANCH  13  14
ATOM     14  C   UNL     1       5.010  -6.648  24.401  0.00  0.00    +0.208 C 
BRANCH  14  15
ATOM     15  C   UNL     1       5.272  -6.510  25.893  0.00  0.00    +0.164 C 
ATOM     16  C   UNL     1       4.387  -6.780  26.876  0.00  0.00    +0.164 C 
BRANCH  16  17
ATOM     17  O   UNL     1       3.094  -7.235  26.658  0.00  0.00    -0.505 OA
ATOM     18  H   UNL     1       3.003  -8.145  26.988  0.00  0.00    +0.292 HD
ENDBRANCH  16  17
BRANCH  15  19
ATOM     19  O   UNL     1       6.532  -6.035  26.258  0.00  0.00    -0.505 OA
ATOM     20  H   UNL     1       7.178  -6.777  26.275  0.00  0.00    +0.292 HD
ENDBRANCH  15  19
BRANCH  16  21
ATOM     21  C   UNL     1       4.720  -6.614  28.351  0.00  0.00    +0.208 C 
BRANCH  21  22
ATOM     22  O   UNL     1       5.640  -7.656  28.746  0.00  0.00    -0.382 OA
ATOM     23  H   UNL     1       5.632  -8.282  27.996  0.00  0.00    +0.210 HD
ENDBRANCH  21  22
BRANCH  21  24
ATOM     24  C   UNL     1       3.486  -6.744  29.257  0.00  0.00    +0.195 C 
BRANCH  24  25
ATOM     25  O   UNL     1       3.052  -8.111  29.300  0.00  0.00    -0.392 OA
ATOM     26  H   UNL     1       3.563  -8.512  30.032  0.00  0.00    +0.210 HD
ENDBRANCH  24  25
ENDBRANCH  21  24
ENDBRANCH  16  21
ENDBRANCH  14  15
BRANCH  14  27
ATOM     27  O   UNL     1       3.959  -7.602  24.229  0.00  0.00    -0.382 OA
ATOM     28  H   UNL     1       4.390  -8.478  24.270  0.00  0.00    +0.210 HD
ENDBRANCH  14  27
ENDBRANCH  13  14
ENDBRANCH  12  13
ENDBRANCH  11  12
ENDBRANCH   8  11
ENDBRANCH   3   8
ENDBRANCH   1   2
BRANCH   1  29
ATOM     29  O   UNL     1       5.315   1.987  27.741  0.00  0.00    -0.381 OA
ATOM     30  H   UNL     1       4.599   1.496  28.205  0.00  0.00    +0.211 HD
ENDBRANCH   1  29
BRANCH   1  31
ATOM     31  C   UNL     1       6.762   1.845  25.837  0.00  0.00    +0.268 C 
BRANCH  31  32
ATOM     32  O   UNL     1       6.893   2.162  24.441  0.00  0.00    -0.482 OA
BRANCH  32  43
ATOM     33  C   UNL     1       9.204   1.621  23.798  0.00  0.00    +0.181 A 
ATOM     34  O   UNL     1      10.524   2.017  23.509  0.00  0.00    -0.451 OA
ATOM     35  C   UNL     1      10.900   3.329  23.567  0.00  0.00    +0.147 A 
ATOM     36  C   UNL     1      10.001   4.341  23.797  0.00  0.00    +0.109 A 
ATOM     37  C   UNL     1      10.407   5.683  23.840  0.00  0.00    +0.135 A 
ATOM     38  C   UNL     1      11.735   6.015  23.632  0.00  0.00    +0.091 A 
ATOM     39  C   UNL     1      12.641   4.990  23.379  0.00  0.00    +0.124 A 
ATOM     40  C   UNL     1       8.606   3.979  23.930  0.00  0.00    +0.238 A 
ATOM     41  O   UNL     1       7.817   4.922  23.869  0.00  0.00    -0.283 OA
ATOM     42  C   UNL     1      12.240   3.651  23.344  0.00  0.00    +0.092 A 
ATOM     43  C   UNL     1       8.218   2.519  24.082  0.00  0.00    +0.211 A 
BRANCH  33  45
ATOM     44  C   UNL     1       8.836  -0.418  22.349  0.00  0.00    +0.015 A 
ATOM     45  C   UNL     1       9.076   0.119  23.648  0.00  0.00    +0.025 A 
ATOM     46  C   UNL     1       9.111  -0.804  24.701  0.00  0.00    +0.060 A 
ATOM     47  C   UNL     1       8.833  -2.156  24.469  0.00  0.00    +0.159 A 
ATOM     48  C   UNL     1       8.508  -2.631  23.202  0.00  0.00    +0.158 A 
ATOM     49  C   UNL     1       8.540  -1.772  22.124  0.00  0.00    +0.050 A 
BRANCH  48  50
ATOM     50  O   UNL     1       8.149  -3.942  23.072  0.00  0.00    -0.503 OA
ATOM     51  H   UNL     1       7.283  -3.974  22.627  0.00  0.00    +0.292 HD
ENDBRANCH  48  50
BRANCH  47  52
ATOM     52  O   UNL     1       8.862  -3.032  25.520  0.00  0.00    -0.503 OA
ATOM     53  H   UNL     1       9.068  -3.898  25.112  0.00  0.00    +0.292 HD
ENDBRANCH  47  52
ENDBRANCH  33  45
BRANCH  39  54
ATOM     54  O   UNL     1      13.955   5.271  23.152  0.00  0.00    -0.507 OA
ATOM     55  H   UNL     1      14.122   6.197  23.402  0.00  0.00    +0.292 HD
ENDBRANCH  39  54
BRANCH  37  56
ATOM     56  O   UNL     1       9.536   6.726  24.044  0.00  0.00    -0.506 OA
ATOM     57  H   UNL     1      10.007   7.413  24.566  0.00  0.00    +0.292 HD
ENDBRANCH  37  56
ENDBRANCH  32  43
ENDBRANCH  31  32
ENDBRANCH   1  31
TORSDOF 26
ENDMDL
