MODEL 1
REMARK VINA RESULT:      -7.2      0.000      0.000
REMARK  Name = 
REMARK  18 active torsions:
REMARK  status: ('A' for Active; 'I' for Inactive)
REMARK    1  A    between atoms: C_2  and  C_42
REMARK    2  A    between atoms: C_4  and  O_9
REMARK    3  A    between atoms: C_5  and  O_8
REMARK    4  A    between atoms: C_6  and  O_7
REMARK    5  A    between atoms: O_9  and  C_10
REMARK    6  A    between atoms: C_12  and  O_41
REMARK    7  A    between atoms: C_14  and  O_40
REMARK    8  A    between atoms: C_16  and  O_39
REMARK    9  A    between atoms: C_18  and  C_21
REMARK   10  A    between atoms: C_21  and  O_22
REMARK   11  A    between atoms: O_22  and  C_23
REMARK   12  A    between atoms: C_25  and  O_38
REMARK   13  A    between atoms: C_27  and  O_37
REMARK   14  A    between atoms: C_29  and  O_36
REMARK   15  A    between atoms: C_31  and  C_34
REMARK   16  A    between atoms: C_34  and  O_35
REMARK   17  A    between atoms: C_47  and  O_54
REMARK   18  A    between atoms: C_49  and  O_53
REMARK                            x       y       z     vdW  Elec       q    Type
REMARK                         _______ _______ _______ _____ _____    ______ ____
ROOT
ATOM      1  C   UNL     1       5.171  -5.718  26.074  0.00  0.00    +0.339 C 
ATOM      2  O   UNL     1       4.466  -4.509  26.280  0.00  0.00    -0.331 OA
ATOM      3  C   UNL     1       4.385  -3.937  27.567  0.00  0.00    +0.179 C 
ATOM      4  C   UNL     1       4.220  -4.947  28.724  0.00  0.00    +0.177 C 
ATOM      5  C   UNL     1       5.124  -6.165  28.600  0.00  0.00    +0.180 C 
ATOM      6  C   UNL     1       5.008  -6.767  27.196  0.00  0.00    +0.214 C 
ENDROOT
BRANCH   6   7
ATOM      7  O   UNL     1       3.720  -7.395  27.002  0.00  0.00    -0.383 OA
ATOM      8  H   UNL     1       3.365  -7.017  26.164  0.00  0.00    +0.210 HD
ENDBRANCH   6   7
BRANCH   5   9
ATOM      9  O   UNL     1       6.443  -5.789  28.977  0.00  0.00    -0.386 OA
ATOM     10  H   UNL     1       6.917  -6.560  29.337  0.00  0.00    +0.210 HD
ENDBRANCH   5   9
BRANCH   4  11
ATOM     11  O   UNL     1       2.856  -5.437  28.670  0.00  0.00    -0.386 OA
ATOM     12  H   UNL     1       2.704  -5.985  29.466  0.00  0.00    +0.210 HD
ENDBRANCH   4  11
BRANCH   3  13
ATOM     13  C   UNL     1       5.498  -2.899  27.543  0.00  0.00    +0.197 C 
BRANCH  13  14
ATOM     14  O   UNL     1       4.945  -1.532  27.650  0.00  0.00    -0.346 OA
BRANCH  14  15
ATOM     15  C   UNL     1       4.928  -0.756  26.427  0.00  0.00    +0.282 C 
ATOM     16  O   UNL     1       6.202  -0.744  25.756  0.00  0.00    -0.341 OA
ATOM     17  C   UNL     1       7.257   0.124  26.203  0.00  0.00    +0.178 C 
ATOM     18  C   UNL     1       6.838   1.423  26.932  0.00  0.00    +0.177 C 
ATOM     19  C   UNL     1       5.518   1.270  27.685  0.00  0.00    +0.179 C 
ATOM     20  C   UNL     1       4.467   0.670  26.735  0.00  0.00    +0.201 C 
BRANCH  20  21
ATOM     21  O   UNL     1       4.264   1.449  25.551  0.00  0.00    -0.384 OA
ATOM     22  H   UNL     1       3.853   0.870  24.875  0.00  0.00    +0.210 HD
ENDBRANCH  20  21
BRANCH  19  23
ATOM     23  O   UNL     1       5.741   0.519  28.887  0.00  0.00    -0.386 OA
ATOM     24  H   UNL     1       6.629   0.080  28.828  0.00  0.00    +0.210 HD
ENDBRANCH  19  23
BRANCH  18  25
ATOM     25  O   UNL     1       6.668   2.464  25.948  0.00  0.00    -0.386 OA
ATOM     26  H   UNL     1       7.198   3.230  26.247  0.00  0.00    +0.210 HD
ENDBRANCH  18  25
BRANCH  17  27
ATOM     27  C   UNL     1       8.309  -0.672  26.992  0.00  0.00    +0.190 C 
BRANCH  27  28
ATOM     28  O   UNL     1       8.693  -0.017  28.202  0.00  0.00    -0.392 OA
ATOM     29  H   UNL     1       7.900   0.105  28.752  0.00  0.00    +0.210 HD
ENDBRANCH  27  28
ENDBRANCH  17  27
ENDBRANCH  14  15
ENDBRANCH  13  14
ENDBRANCH   3  13
BRANCH   1  30
ATOM     30  O   UNL     1       6.477  -5.788  25.465  0.00  0.00    -0.457 OA
BRANCH  30  34
ATOM     31  C   UNL     1       7.091  -3.685  21.881  0.00  0.00    +0.061 A 
ATOM     32  C   UNL     1       6.386  -4.857  21.836  0.00  0.00    +0.163 A 
ATOM     33  C   UNL     1       6.028  -5.486  23.011  0.00  0.00    +0.201 A 
ATOM     34  C   UNL     1       6.492  -5.050  24.272  0.00  0.00    +0.170 A 
ATOM     35  C   UNL     1       7.163  -3.789  24.310  0.00  0.00    +0.061 A 
ATOM     36  C   UNL     1       7.405  -3.082  23.109  0.00  0.00    +0.025 A 
BRANCH  36  37
ATOM     37  C   UNL     1       8.008  -1.729  23.055  0.00  0.00    +0.139 A 
ATOM     38  O   UNL     1       7.189  -0.704  22.613  0.00  0.00    -0.454 OA
ATOM     39  C   UNL     1       7.685   0.579  22.662  0.00  0.00    +0.146 A 
ATOM     40  C   UNL     1       8.963   0.883  23.126  0.00  0.00    +0.105 A 
ATOM     41  C   UNL     1       9.398   2.214  23.196  0.00  0.00    +0.135 A 
ATOM     42  C   UNL     1       8.558   3.241  22.779  0.00  0.00    +0.091 A 
ATOM     43  C   UNL     1       7.293   2.926  22.294  0.00  0.00    +0.124 A 
ATOM     44  C   UNL     1       9.841  -0.211  23.534  0.00  0.00    +0.197 A 
ATOM     45  O   UNL     1      10.976  -0.007  23.947  0.00  0.00    -0.287 OA
ATOM     46  C   UNL     1       6.846   1.604  22.235  0.00  0.00    +0.092 A 
ATOM     47  C   UNL     1       9.279  -1.557  23.457  0.00  0.00    +0.098 A 
BRANCH  43  48
ATOM     48  O   UNL     1       6.443   3.901  21.860  0.00  0.00    -0.507 OA
ATOM     49  H   UNL     1       6.107   4.388  22.633  0.00  0.00    +0.292 HD
ENDBRANCH  43  48
BRANCH  41  50
ATOM     50  O   UNL     1      10.631   2.575  23.670  0.00  0.00    -0.506 OA
ATOM     51  H   UNL     1      10.681   3.559  23.682  0.00  0.00    +0.292 HD
ENDBRANCH  41  50
ENDBRANCH  36  37
BRANCH  33  52
ATOM     52  O   UNL     1       5.245  -6.596  22.761  0.00  0.00    -0.501 OA
ATOM     53  H   UNL     1       4.314  -6.314  22.895  0.00  0.00    +0.292 HD
ENDBRANCH  33  52
BRANCH  32  54
ATOM     54  O   UNL     1       6.068  -5.429  20.632  0.00  0.00    -0.503 OA
ATOM     55  H   UNL     1       6.264  -6.382  20.761  0.00  0.00    +0.292 HD
ENDBRANCH  32  54
ENDBRANCH  30  34
ENDBRANCH   1  30
TORSDOF 18
ENDMDL
MODEL 2
REMARK VINA RESULT:      -7.0      2.456      5.924
REMARK  Name = 
REMARK  18 active torsions:
REMARK  status: ('A' for Active; 'I' for Inactive)
REMARK    1  A    between atoms: C_2  and  C_42
REMARK    2  A    between atoms: C_4  and  O_9
REMARK    3  A    between atoms: C_5  and  O_8
REMARK    4  A    between atoms: C_6  and  O_7
REMARK    5  A    between atoms: O_9  and  C_10
REMARK    6  A    between atoms: C_12  and  O_41
REMARK    7  A    between atoms: C_14  and  O_40
REMARK    8  A    between atoms: C_16  and  O_39
REMARK    9  A    between atoms: C_18  and  C_21
REMARK   10  A    between atoms: C_21  and  O_22
REMARK   11  A    between atoms: O_22  and  C_23
REMARK   12  A    between atoms: C_25  and  O_38
REMARK   13  A    between atoms: C_27  and  O_37
REMARK   14  A    between atoms: C_29  and  O_36
REMARK   15  A    between atoms: C_31  and  C_34
REMARK   16  A    between atoms: C_34  and  O_35
REMARK   17  A    between atoms: C_47  and  O_54
REMARK   18  A    between atoms: C_49  and  O_53
REMARK                            x       y       z     vdW  Elec       q    Type
REMARK                         _______ _______ _______ _____ _____    ______ ____
ROOT
ATOM      1  C   UNL     1       5.799  -1.928  25.863  0.00  0.00    +0.339 C 
ATOM      2  O   UNL     1       6.242  -2.997  26.676  0.00  0.00    -0.331 OA
ATOM      3  C   UNL     1       5.315  -3.892  27.250  0.00  0.00    +0.179 C 
ATOM      4  C   UNL     1       4.004  -3.247  27.748  0.00  0.00    +0.177 C 
ATOM      5  C   UNL     1       3.422  -2.228  26.778  0.00  0.00    +0.180 C 
ATOM      6  C   UNL     1       4.505  -1.236  26.343  0.00  0.00    +0.214 C 
ENDROOT
BRANCH   6   7
ATOM      7  O   UNL     1       4.876  -0.358  27.431  0.00  0.00    -0.383 OA
ATOM      8  H   UNL     1       5.837  -0.178  27.310  0.00  0.00    +0.210 HD
ENDBRANCH   6   7
BRANCH   5   9
ATOM      9  O   UNL     1       2.794  -2.928  25.711  0.00  0.00    -0.386 OA
ATOM     10  H   UNL     1       2.162  -2.343  25.258  0.00  0.00    +0.210 HD
ENDBRANCH   5   9
BRANCH   4  11
ATOM     11  O   UNL     1       4.319  -2.524  28.966  0.00  0.00    -0.386 OA
ATOM     12  H   UNL     1       4.133  -1.578  28.809  0.00  0.00    +0.210 HD
ENDBRANCH   4  11
BRANCH   3  13
ATOM     13  C   UNL     1       5.330  -5.061  26.276  0.00  0.00    +0.197 C 
BRANCH  13  14
ATOM     14  O   UNL     1       4.021  -5.750  26.261  0.00  0.00    -0.346 OA
BRANCH  14  15
ATOM     15  C   UNL     1       4.014  -7.088  25.705  0.00  0.00    +0.282 C 
ATOM     16  O   UNL     1       4.624  -7.154  24.403  0.00  0.00    -0.341 OA
ATOM     17  C   UNL     1       3.899  -6.745  23.232  0.00  0.00    +0.178 C 
ATOM     18  C   UNL     1       2.355  -6.852  23.288  0.00  0.00    +0.177 C 
ATOM     19  C   UNL     1       1.808  -6.677  24.703  0.00  0.00    +0.179 C 
ATOM     20  C   UNL     1       2.576  -7.610  25.654  0.00  0.00    +0.201 C 
BRANCH  20  21
ATOM     21  O   UNL     1       2.507  -8.989  25.274  0.00  0.00    -0.384 OA
ATOM     22  H   UNL     1       1.890  -9.442  25.887  0.00  0.00    +0.210 HD
ENDBRANCH  20  21
BRANCH  19  23
ATOM     23  O   UNL     1       1.850  -5.287  25.059  0.00  0.00    -0.386 OA
ATOM     24  H   UNL     1       0.927  -4.925  25.036  0.00  0.00    +0.210 HD
ENDBRANCH  19  23
BRANCH  18  25
ATOM     25  O   UNL     1       1.972  -8.164  22.824  0.00  0.00    -0.386 OA
ATOM     26  H   UNL     1       1.575  -8.049  21.938  0.00  0.00    +0.210 HD
ENDBRANCH  18  25
BRANCH  17  27
ATOM     27  C   UNL     1       4.369  -5.358  22.766  0.00  0.00    +0.190 C 
BRANCH  27  28
ATOM     28  O   UNL     1       3.926  -4.313  23.634  0.00  0.00    -0.392 OA
ATOM     29  H   UNL     1       4.334  -4.442  24.507  0.00  0.00    +0.210 HD
ENDBRANCH  27  28
ENDBRANCH  17  27
ENDBRANCH  14  15
ENDBRANCH  13  14
ENDBRANCH   3  13
BRANCH   1  30
ATOM     30  O   UNL     1       5.904  -1.922  24.424  0.00  0.00    -0.457 OA
BRANCH  30  34
ATOM     31  C   UNL     1       9.844  -0.596  23.822  0.00  0.00    +0.061 A 
ATOM     32  C   UNL     1       9.563  -1.919  23.613  0.00  0.00    +0.163 A 
ATOM     33  C   UNL     1       8.253  -2.353  23.643  0.00  0.00    +0.201 A 
ATOM     34  C   UNL     1       7.189  -1.512  24.036  0.00  0.00    +0.170 A 
ATOM     35  C   UNL     1       7.485  -0.122  24.179  0.00  0.00    +0.061 A 
ATOM     36  C   UNL     1       8.813   0.337  24.010  0.00  0.00    +0.025 A 
BRANCH  36  37
ATOM     37  C   UNL     1       9.203   1.766  24.047  0.00  0.00    +0.139 A 
ATOM     38  O   UNL     1      10.535   2.051  23.798  0.00  0.00    -0.454 OA
ATOM     39  C   UNL     1      10.903   3.374  23.711  0.00  0.00    +0.146 A 
ATOM     40  C   UNL     1      10.002   4.426  23.870  0.00  0.00    +0.105 A 
ATOM     41  C   UNL     1      10.425   5.755  23.725  0.00  0.00    +0.135 A 
ATOM     42  C   UNL     1      11.758   6.031  23.443  0.00  0.00    +0.091 A 
ATOM     43  C   UNL     1      12.655   4.976  23.312  0.00  0.00    +0.124 A 
ATOM     44  C   UNL     1       8.611   4.116  24.192  0.00  0.00    +0.197 A 
ATOM     45  O   UNL     1       7.773   4.997  24.347  0.00  0.00    -0.287 OA
ATOM     46  C   UNL     1      12.240   3.649  23.439  0.00  0.00    +0.092 A 
ATOM     47  C   UNL     1       8.266   2.701  24.284  0.00  0.00    +0.098 A 
BRANCH  43  48
ATOM     48  O   UNL     1      13.975   5.203  23.051  0.00  0.00    -0.507 OA
ATOM     49  H   UNL     1      14.401   4.354  22.837  0.00  0.00    +0.292 HD
ENDBRANCH  43  48
BRANCH  41  50
ATOM     50  O   UNL     1       9.580   6.826  23.840  0.00  0.00    -0.506 OA
ATOM     51  H   UNL     1      10.093   7.587  24.201  0.00  0.00    +0.292 HD
ENDBRANCH  41  50
ENDBRANCH  36  37
BRANCH  33  52
ATOM     52  O   UNL     1       8.167  -3.692  23.317  0.00  0.00    -0.501 OA
ATOM     53  H   UNL     1       8.795  -3.838  22.577  0.00  0.00    +0.292 HD
ENDBRANCH  33  52
BRANCH  32  54
ATOM     54  O   UNL     1      10.575  -2.820  23.412  0.00  0.00    -0.503 OA
ATOM     55  H   UNL     1      10.349  -3.570  24.003  0.00  0.00    +0.292 HD
ENDBRANCH  32  54
ENDBRANCH  30  34
ENDBRANCH   1  30
TORSDOF 18
ENDMDL
MODEL 3
REMARK VINA RESULT:      -7.0      1.935      7.476
REMARK  Name = 
REMARK  18 active torsions:
REMARK  status: ('A' for Active; 'I' for Inactive)
REMARK    1  A    between atoms: C_2  and  C_42
REMARK    2  A    between atoms: C_4  and  O_9
REMARK    3  A    between atoms: C_5  and  O_8
REMARK    4  A    between atoms: C_6  and  O_7
REMARK    5  A    between atoms: O_9  and  C_10
REMARK    6  A    between atoms: C_12  and  O_41
REMARK    7  A    between atoms: C_14  and  O_40
REMARK    8  A    between atoms: C_16  and  O_39
REMARK    9  A    between atoms: C_18  and  C_21
REMARK   10  A    between atoms: C_21  and  O_22
REMARK   11  A    between atoms: O_22  and  C_23
REMARK   12  A    between atoms: C_25  and  O_38
REMARK   13  A    between atoms: C_27  and  O_37
REMARK   14  A    between atoms: C_29  and  O_36
REMARK   15  A    between atoms: C_31  and  C_34
REMARK   16  A    between atoms: C_34  and  O_35
REMARK   17  A    between atoms: C_47  and  O_54
REMARK   18  A    between atoms: C_49  and  O_53
REMARK                            x       y       z     vdW  Elec       q    Type
REMARK                         _______ _______ _______ _____ _____    ______ ____
ROOT
ATOM      1  C   UNL     1       7.574   2.661  22.634  0.00  0.00    +0.339 C 
ATOM      2  O   UNL     1       8.555   2.652  23.653  0.00  0.00    -0.331 OA
ATOM      3  C   UNL     1       8.265   3.176  24.931  0.00  0.00    +0.179 C 
ATOM      4  C   UNL     1       7.389   4.448  24.934  0.00  0.00    +0.177 C 
ATOM      5  C   UNL     1       6.215   4.379  23.968  0.00  0.00    +0.180 C 
ATOM      6  C   UNL     1       6.695   3.930  22.584  0.00  0.00    +0.214 C 
ENDROOT
BRANCH   6   7
ATOM      7  O   UNL     1       7.481   4.962  21.944  0.00  0.00    -0.383 OA
ATOM      8  H   UNL     1       7.956   5.423  22.674  0.00  0.00    +0.210 HD
ENDBRANCH   6   7
BRANCH   5   9
ATOM      9  O   UNL     1       5.206   3.558  24.542  0.00  0.00    -0.386 OA
ATOM     10  H   UNL     1       4.471   4.111  24.862  0.00  0.00    +0.210 HD
ENDBRANCH   5   9
BRANCH   4  11
ATOM     11  O   UNL     1       8.228   5.545  24.486  0.00  0.00    -0.386 OA
ATOM     12  H   UNL     1       8.173   5.585  23.511  0.00  0.00    +0.210 HD
ENDBRANCH   4  11
BRANCH   3  13
ATOM     13  C   UNL     1       7.899   1.933  25.728  0.00  0.00    +0.197 C 
BRANCH  13  14
ATOM     14  O   UNL     1       6.891   2.249  26.763  0.00  0.00    -0.346 OA
BRANCH  14  15
ATOM     15  C   UNL     1       6.970   1.474  27.985  0.00  0.00    +0.282 C 
ATOM     16  O   UNL     1       6.544   0.110  27.807  0.00  0.00    -0.341 OA
ATOM     17  C   UNL     1       5.147  -0.224  27.775  0.00  0.00    +0.178 C 
ATOM     18  C   UNL     1       4.181   0.717  28.535  0.00  0.00    +0.177 C 
ATOM     19  C   UNL     1       4.687   2.157  28.584  0.00  0.00    +0.179 C 
ATOM     20  C   UNL     1       6.144   2.159  29.076  0.00  0.00    +0.201 C 
BRANCH  20  21
ATOM     21  O   UNL     1       6.310   1.541  30.357  0.00  0.00    -0.384 OA
ATOM     22  H   UNL     1       6.016   2.180  31.041  0.00  0.00    +0.210 HD
ENDBRANCH  20  21
BRANCH  19  23
ATOM     23  O   UNL     1       4.482   2.776  27.305  0.00  0.00    -0.386 OA
ATOM     24  H   UNL     1       5.253   2.559  26.720  0.00  0.00    +0.210 HD
ENDBRANCH  19  23
BRANCH  18  25
ATOM     25  O   UNL     1       4.059   0.245  29.893  0.00  0.00    -0.386 OA
ATOM     26  H   UNL     1       4.794   0.640  30.401  0.00  0.00    +0.210 HD
ENDBRANCH  18  25
BRANCH  17  27
ATOM     27  C   UNL     1       4.690  -0.482  26.330  0.00  0.00    +0.190 C 
BRANCH  27  28
ATOM     28  O   UNL     1       4.632   0.716  25.554  0.00  0.00    -0.392 OA
ATOM     29  H   UNL     1       3.699   0.972  25.449  0.00  0.00    +0.210 HD
ENDBRANCH  27  28
ENDBRANCH  17  27
ENDBRANCH  14  15
ENDBRANCH  13  14
ENDBRANCH   3  13
BRANCH   1  30
ATOM     30  O   UNL     1       6.840   1.489  22.221  0.00  0.00    -0.457 OA
BRANCH  30  34
ATOM     31  C   UNL     1       8.659  -2.253  22.797  0.00  0.00    +0.061 A 
ATOM     32  C   UNL     1       9.366  -1.279  22.147  0.00  0.00    +0.163 A 
ATOM     33  C   UNL     1       8.864   0.006  22.084  0.00  0.00    +0.201 A 
ATOM     34  C   UNL     1       7.565   0.330  22.536  0.00  0.00    +0.170 A 
ATOM     35  C   UNL     1       6.871  -0.675  23.276  0.00  0.00    +0.061 A 
ATOM     36  C   UNL     1       7.456  -1.951  23.454  0.00  0.00    +0.025 A 
BRANCH  36  37
ATOM     37  C   UNL     1       6.857  -3.026  24.280  0.00  0.00    +0.139 A 
ATOM     38  O   UNL     1       5.964  -3.872  23.644  0.00  0.00    -0.454 OA
ATOM     39  C   UNL     1       5.482  -4.947  24.355  0.00  0.00    +0.146 A 
ATOM     40  C   UNL     1       5.846  -5.212  25.674  0.00  0.00    +0.105 A 
ATOM     41  C   UNL     1       5.358  -6.349  26.333  0.00  0.00    +0.135 A 
ATOM     42  C   UNL     1       4.487  -7.210  25.676  0.00  0.00    +0.091 A 
ATOM     43  C   UNL     1       4.109  -6.924  24.368  0.00  0.00    +0.124 A 
ATOM     44  C   UNL     1       6.741  -4.280  26.355  0.00  0.00    +0.197 A 
ATOM     45  O   UNL     1       7.094  -4.457  27.516  0.00  0.00    -0.287 OA
ATOM     46  C   UNL     1       4.602  -5.802  23.699  0.00  0.00    +0.092 A 
ATOM     47  C   UNL     1       7.221  -3.148  25.568  0.00  0.00    +0.098 A 
BRANCH  43  48
ATOM     48  O   UNL     1       3.244  -7.734  23.693  0.00  0.00    -0.507 OA
ATOM     49  H   UNL     1       3.384  -8.652  23.985  0.00  0.00    +0.292 HD
ENDBRANCH  43  48
BRANCH  41  50
ATOM     50  O   UNL     1       5.704  -6.676  27.617  0.00  0.00    -0.506 OA
ATOM     51  H   UNL     1       5.598  -7.649  27.727  0.00  0.00    +0.292 HD
ENDBRANCH  41  50
ENDBRANCH  36  37
BRANCH  33  52
ATOM     52  O   UNL     1       9.760   0.860  21.474  0.00  0.00    -0.501 OA
ATOM     53  H   UNL     1      10.382   0.294  20.967  0.00  0.00    +0.292 HD
ENDBRANCH  33  52
BRANCH  32  54
ATOM     54  O   UNL     1      10.549  -1.579  21.524  0.00  0.00    -0.503 OA
ATOM     55  H   UNL     1      10.527  -2.555  21.426  0.00  0.00    +0.292 HD
ENDBRANCH  32  54
ENDBRANCH  30  34
ENDBRANCH   1  30
TORSDOF 18
ENDMDL
MODEL 4
REMARK VINA RESULT:      -7.0      1.719      5.463
REMARK  Name = 
REMARK  18 active torsions:
REMARK  status: ('A' for Active; 'I' for Inactive)
REMARK    1  A    between atoms: C_2  and  C_42
REMARK    2  A    between atoms: C_4  and  O_9
REMARK    3  A    between atoms: C_5  and  O_8
REMARK    4  A    between atoms: C_6  and  O_7
REMARK    5  A    between atoms: O_9  and  C_10
REMARK    6  A    between atoms: C_12  and  O_41
REMARK    7  A    between atoms: C_14  and  O_40
REMARK    8  A    between atoms: C_16  and  O_39
REMARK    9  A    between atoms: C_18  and  C_21
REMARK   10  A    between atoms: C_21  and  O_22
REMARK   11  A    between atoms: O_22  and  C_23
REMARK   12  A    between atoms: C_25  and  O_38
REMARK   13  A    between atoms: C_27  and  O_37
REMARK   14  A    between atoms: C_29  and  O_36
REMARK   15  A    between atoms: C_31  and  C_34
REMARK   16  A    between atoms: C_34  and  O_35
REMARK   17  A    between atoms: C_47  and  O_54
REMARK   18  A    between atoms: C_49  and  O_53
REMARK                            x       y       z     vdW  Elec       q    Type
REMARK                         _______ _______ _______ _____ _____    ______ ____
ROOT
ATOM      1  C   UNL     1       4.928  -3.877  28.148  0.00  0.00    +0.339 C 
ATOM      2  O   UNL     1       5.541  -4.623  27.115  0.00  0.00    -0.331 OA
ATOM      3  C   UNL     1       5.064  -5.909  26.781  0.00  0.00    +0.179 C 
ATOM      4  C   UNL     1       4.618  -6.774  27.980  0.00  0.00    +0.177 C 
ATOM      5  C   UNL     1       3.791  -6.011  29.005  0.00  0.00    +0.180 C 
ATOM      6  C   UNL     1       4.492  -4.701  29.379  0.00  0.00    +0.214 C 
ENDROOT
BRANCH   6   7
ATOM      7  O   UNL     1       5.683  -4.952  30.161  0.00  0.00    -0.383 OA
ATOM      8  H   UNL     1       6.286  -5.458  29.568  0.00  0.00    +0.210 HD
ENDBRANCH   6   7
BRANCH   5   9
ATOM      9  O   UNL     1       2.473  -5.853  28.494  0.00  0.00    -0.386 OA
ATOM     10  H   UNL     1       1.921  -6.608  28.765  0.00  0.00    +0.210 HD
ENDBRANCH   5   9
BRANCH   4  11
ATOM     11  O   UNL     1       5.822  -7.210  28.663  0.00  0.00    -0.386 OA
ATOM     12  H   UNL     1       5.619  -7.270  29.618  0.00  0.00    +0.210 HD
ENDBRANCH   4  11
BRANCH   3  13
ATOM     13  C   UNL     1       4.156  -5.633  25.593  0.00  0.00    +0.197 C 
BRANCH  13  14
ATOM     14  O   UNL     1       4.947  -5.460  24.355  0.00  0.00    -0.346 OA
BRANCH  14  15
ATOM     15  C   UNL     1       4.799  -4.187  23.679  0.00  0.00    +0.282 C 
ATOM     16  O   UNL     1       4.837  -4.310  22.245  0.00  0.00    -0.341 OA
ATOM     17  C   UNL     1       6.090  -4.446  21.554  0.00  0.00    +0.178 C 
ATOM     18  C   UNL     1       7.340  -3.841  22.238  0.00  0.00    +0.177 C 
ATOM     19  C   UNL     1       7.231  -3.843  23.761  0.00  0.00    +0.179 C 
ATOM     20  C   UNL     1       5.883  -3.223  24.167  0.00  0.00    +0.201 C 
BRANCH  20  21
ATOM     21  O   UNL     1       5.698  -1.893  23.668  0.00  0.00    -0.384 OA
ATOM     22  H   UNL     1       4.740  -1.761  23.507  0.00  0.00    +0.210 HD
ENDBRANCH  20  21
BRANCH  19  23
ATOM     23  O   UNL     1       7.453  -5.174  24.250  0.00  0.00    -0.386 OA
ATOM     24  H   UNL     1       8.383  -5.238  24.589  0.00  0.00    +0.210 HD
ENDBRANCH  19  23
BRANCH  18  25
ATOM     25  O   UNL     1       7.478  -2.471  21.806  0.00  0.00    -0.386 OA
ATOM     26  H   UNL     1       8.436  -2.290  21.731  0.00  0.00    +0.210 HD
ENDBRANCH  18  25
BRANCH  17  27
ATOM     27  C   UNL     1       6.311  -5.906  21.125  0.00  0.00    +0.190 C 
BRANCH  27  28
ATOM     28  O   UNL     1       6.030  -6.831  22.176  0.00  0.00    -0.392 OA
ATOM     29  H   UNL     1       6.543  -6.572  22.962  0.00  0.00    +0.210 HD
ENDBRANCH  27  28
ENDBRANCH  17  27
ENDBRANCH  14  15
ENDBRANCH  13  14
ENDBRANCH   3  13
BRANCH   1  30
ATOM     30  O   UNL     1       4.040  -2.764  27.912  0.00  0.00    -0.457 OA
BRANCH  30  34
ATOM     31  C   UNL     1       5.672   1.086  28.311  0.00  0.00    +0.061 A 
ATOM     32  C   UNL     1       4.929   0.584  29.344  0.00  0.00    +0.163 A 
ATOM     33  C   UNL     1       4.517  -0.734  29.313  0.00  0.00    +0.201 A 
ATOM     34  C   UNL     1       4.700  -1.555  28.179  0.00  0.00    +0.170 A 
ATOM     35  C   UNL     1       5.538  -1.043  27.142  0.00  0.00    +0.061 A 
ATOM     36  C   UNL     1       6.071   0.263  27.246  0.00  0.00    +0.025 A 
BRANCH  36  37
ATOM     37  C   UNL     1       7.022   0.847  26.270  0.00  0.00    +0.139 A 
ATOM     38  O   UNL     1       7.544  -0.017  25.321  0.00  0.00    -0.454 OA
ATOM     39  C   UNL     1       8.337   0.519  24.333  0.00  0.00    +0.146 A 
ATOM     40  C   UNL     1       8.638   1.878  24.253  0.00  0.00    +0.105 A 
ATOM     41  C   UNL     1       9.415   2.375  23.197  0.00  0.00    +0.135 A 
ATOM     42  C   UNL     1       9.909   1.505  22.231  0.00  0.00    +0.091 A 
ATOM     43  C   UNL     1       9.624   0.147  22.333  0.00  0.00    +0.124 A 
ATOM     44  C   UNL     1       8.133   2.771  25.292  0.00  0.00    +0.197 A 
ATOM     45  O   UNL     1       8.367   3.974  25.279  0.00  0.00    -0.287 OA
ATOM     46  C   UNL     1       8.839  -0.354  23.373  0.00  0.00    +0.092 A 
ATOM     47  C   UNL     1       7.304   2.160  26.327  0.00  0.00    +0.098 A 
BRANCH  43  48
ATOM     48  O   UNL     1      10.102  -0.742  21.416  0.00  0.00    -0.507 OA
ATOM     49  H   UNL     1       9.789  -1.633  21.653  0.00  0.00    +0.292 HD
ENDBRANCH  43  48
BRANCH  41  50
ATOM     50  O   UNL     1       9.719   3.702  23.051  0.00  0.00    -0.506 OA
ATOM     51  H   UNL     1      10.053   3.843  22.135  0.00  0.00    +0.292 HD
ENDBRANCH  41  50
ENDBRANCH  36  37
BRANCH  33  52
ATOM     52  O   UNL     1       3.865  -1.077  30.482  0.00  0.00    -0.501 OA
ATOM     53  H   UNL     1       4.315  -0.588  31.204  0.00  0.00    +0.292 HD
ENDBRANCH  33  52
BRANCH  32  54
ATOM     54  O   UNL     1       4.559   1.389  30.388  0.00  0.00    -0.503 OA
ATOM     55  H   UNL     1       3.735   0.978  30.728  0.00  0.00    +0.292 HD
ENDBRANCH  32  54
ENDBRANCH  30  34
ENDBRANCH   1  30
TORSDOF 18
ENDMDL
MODEL 5
REMARK VINA RESULT:      -7.0      1.929      7.479
REMARK  Name = 
REMARK  18 active torsions:
REMARK  status: ('A' for Active; 'I' for Inactive)
REMARK    1  A    between atoms: C_2  and  C_42
REMARK    2  A    between atoms: C_4  and  O_9
REMARK    3  A    between atoms: C_5  and  O_8
REMARK    4  A    between atoms: C_6  and  O_7
REMARK    5  A    between atoms: O_9  and  C_10
REMARK    6  A    between atoms: C_12  and  O_41
REMARK    7  A    between atoms: C_14  and  O_40
REMARK    8  A    between atoms: C_16  and  O_39
REMARK    9  A    between atoms: C_18  and  C_21
REMARK   10  A    between atoms: C_21  and  O_22
REMARK   11  A    between atoms: O_22  and  C_23
REMARK   12  A    between atoms: C_25  and  O_38
REMARK   13  A    between atoms: C_27  and  O_37
REMARK   14  A    between atoms: C_29  and  O_36
REMARK   15  A    between atoms: C_31  and  C_34
REMARK   16  A    between atoms: C_34  and  O_35
REMARK   17  A    between atoms: C_47  and  O_54
REMARK   18  A    between atoms: C_49  and  O_53
REMARK                            x       y       z     vdW  Elec       q    Type
REMARK                         _______ _______ _______ _____ _____    ______ ____
ROOT
ATOM      1  C   UNL     1       7.185   2.581  23.231  0.00  0.00    +0.339 C 
ATOM      2  O   UNL     1       6.686   2.675  24.552  0.00  0.00    -0.331 OA
ATOM      3  C   UNL     1       5.694   3.625  24.876  0.00  0.00    +0.179 C 
ATOM      4  C   UNL     1       5.847   4.995  24.180  0.00  0.00    +0.177 C 
ATOM      5  C   UNL     1       6.199   4.889  22.704  0.00  0.00    +0.180 C 
ATOM      6  C   UNL     1       7.380   3.933  22.510  0.00  0.00    +0.214 C 
ENDROOT
BRANCH   6   7
ATOM      7  O   UNL     1       8.606   4.508  23.016  0.00  0.00    -0.383 OA
ATOM      8  H   UNL     1       8.724   4.128  23.918  0.00  0.00    +0.210 HD
ENDBRANCH   6   7
BRANCH   5   9
ATOM      9  O   UNL     1       5.025   4.537  21.983  0.00  0.00    -0.386 OA
ATOM     10  H   UNL     1       4.238   4.687  22.537  0.00  0.00    +0.210 HD
ENDBRANCH   5   9
BRANCH   4  11
ATOM     11  O   UNL     1       6.954   5.678  24.822  0.00  0.00    -0.386 OA
ATOM     12  H   UNL     1       7.751   5.123  24.713  0.00  0.00    +0.210 HD
ENDBRANCH   4  11
BRANCH   3  13
ATOM     13  C   UNL     1       4.412   2.810  24.801  0.00  0.00    +0.197 C 
BRANCH  13  14
ATOM     14  O   UNL     1       4.532   1.565  25.590  0.00  0.00    -0.346 OA
BRANCH  14  15
ATOM     15  C   UNL     1       4.119   1.648  26.976  0.00  0.00    +0.282 C 
ATOM     16  O   UNL     1       5.224   1.550  27.894  0.00  0.00    -0.341 OA
ATOM     17  C   UNL     1       5.794   0.272  28.220  0.00  0.00    +0.178 C 
ATOM     18  C   UNL     1       4.866  -0.962  28.107  0.00  0.00    +0.177 C 
ATOM     19  C   UNL     1       3.787  -0.785  27.041  0.00  0.00    +0.179 C 
ATOM     20  C   UNL     1       3.080   0.563  27.264  0.00  0.00    +0.201 C 
BRANCH  20  21
ATOM     21  O   UNL     1       2.501   0.690  28.568  0.00  0.00    -0.384 OA
ATOM     22  H   UNL     1       2.570  -0.180  29.015  0.00  0.00    +0.210 HD
ENDBRANCH  20  21
BRANCH  19  23
ATOM     23  O   UNL     1       4.372  -0.950  25.741  0.00  0.00    -0.386 OA
ATOM     24  H   UNL     1       4.481  -1.919  25.561  0.00  0.00    +0.210 HD
ENDBRANCH  19  23
BRANCH  18  25
ATOM     25  O   UNL     1       4.207  -1.155  29.376  0.00  0.00    -0.386 OA
ATOM     26  H   UNL     1       3.910  -0.275  29.681  0.00  0.00    +0.210 HD
ENDBRANCH  18  25
BRANCH  17  27
ATOM     27  C   UNL     1       7.123   0.070  27.474  0.00  0.00    +0.190 C 
BRANCH  27  28
ATOM     28  O   UNL     1       7.532   1.240  26.764  0.00  0.00    -0.392 OA
ATOM     29  H   UNL     1       7.356   1.105  25.817  0.00  0.00    +0.210 HD
ENDBRANCH  27  28
ENDBRANCH  17  27
ENDBRANCH  14  15
ENDBRANCH  13  14
ENDBRANCH   3  13
BRANCH   1  30
ATOM     30  O   UNL     1       6.818   1.534  22.310  0.00  0.00    -0.457 OA
BRANCH  30  34
ATOM     31  C   UNL     1       8.617  -2.230  22.799  0.00  0.00    +0.061 A 
ATOM     32  C   UNL     1       9.320  -1.252  22.150  0.00  0.00    +0.163 A 
ATOM     33  C   UNL     1       8.826   0.037  22.115  0.00  0.00    +0.201 A 
ATOM     34  C   UNL     1       7.539   0.365  22.596  0.00  0.00    +0.170 A 
ATOM     35  C   UNL     1       6.850  -0.646  23.334  0.00  0.00    +0.061 A 
ATOM     36  C   UNL     1       7.428  -1.928  23.482  0.00  0.00    +0.025 A 
BRANCH  36  37
ATOM     37  C   UNL     1       6.836  -3.010  24.304  0.00  0.00    +0.139 A 
ATOM     38  O   UNL     1       5.954  -3.864  23.663  0.00  0.00    -0.454 OA
ATOM     39  C   UNL     1       5.479  -4.945  24.369  0.00  0.00    +0.146 A 
ATOM     40  C   UNL     1       5.840  -5.208  25.690  0.00  0.00    +0.105 A 
ATOM     41  C   UNL     1       5.360  -6.351  26.345  0.00  0.00    +0.135 A 
ATOM     42  C   UNL     1       4.500  -7.220  25.683  0.00  0.00    +0.091 A 
ATOM     43  C   UNL     1       4.126  -6.935  24.373  0.00  0.00    +0.124 A 
ATOM     44  C   UNL     1       6.723  -4.270  26.377  0.00  0.00    +0.197 A 
ATOM     45  O   UNL     1       7.073  -4.445  27.538  0.00  0.00    -0.287 OA
ATOM     46  C   UNL     1       4.610  -5.807  23.708  0.00  0.00    +0.092 A 
ATOM     47  C   UNL     1       7.196  -3.131  25.594  0.00  0.00    +0.098 A 
BRANCH  43  48
ATOM     48  O   UNL     1       3.271  -7.752  23.693  0.00  0.00    -0.507 OA
ATOM     49  H   UNL     1       3.015  -7.313  22.863  0.00  0.00    +0.292 HD
ENDBRANCH  43  48
BRANCH  41  50
ATOM     50  O   UNL     1       5.703  -6.677  27.630  0.00  0.00    -0.506 OA
ATOM     51  H   UNL     1       5.540  -7.640  27.758  0.00  0.00    +0.292 HD
ENDBRANCH  41  50
ENDBRANCH  36  37
BRANCH  33  52
ATOM     52  O   UNL     1       9.719   0.893  21.501  0.00  0.00    -0.501 OA
ATOM     53  H   UNL     1      10.148   0.378  20.784  0.00  0.00    +0.292 HD
ENDBRANCH  33  52
BRANCH  32  54
ATOM     54  O   UNL     1      10.489  -1.552  21.502  0.00  0.00    -0.503 OA
ATOM     55  H   UNL     1      10.197  -1.917  20.639  0.00  0.00    +0.292 HD
ENDBRANCH  32  54
ENDBRANCH  30  34
ENDBRANCH   1  30
TORSDOF 18
ENDMDL
MODEL 6
REMARK VINA RESULT:      -6.9      2.648      5.834
REMARK  Name = 
REMARK  18 active torsions:
REMARK  status: ('A' for Active; 'I' for Inactive)
REMARK    1  A    between atoms: C_2  and  C_42
REMARK    2  A    between atoms: C_4  and  O_9
REMARK    3  A    between atoms: C_5  and  O_8
REMARK    4  A    between atoms: C_6  and  O_7
REMARK    5  A    between atoms: O_9  and  C_10
REMARK    6  A    between atoms: C_12  and  O_41
REMARK    7  A    between atoms: C_14  and  O_40
REMARK    8  A    between atoms: C_16  and  O_39
REMARK    9  A    between atoms: C_18  and  C_21
REMARK   10  A    between atoms: C_21  and  O_22
REMARK   11  A    between atoms: O_22  and  C_23
REMARK   12  A    between atoms: C_25  and  O_38
REMARK   13  A    between atoms: C_27  and  O_37
REMARK   14  A    between atoms: C_29  and  O_36
REMARK   15  A    between atoms: C_31  and  C_34
REMARK   16  A    between atoms: C_34  and  O_35
REMARK   17  A    between atoms: C_47  and  O_54
REMARK   18  A    between atoms: C_49  and  O_53
REMARK                            x       y       z     vdW  Elec       q    Type
REMARK                         _______ _______ _______ _____ _____    ______ ____
ROOT
ATOM      1  C   UNL     1       6.038  -5.711  25.955  0.00  0.00    +0.339 C 
ATOM      2  O   UNL     1       5.304  -6.836  26.399  0.00  0.00    -0.331 OA
ATOM      3  C   UNL     1       4.684  -6.831  27.667  0.00  0.00    +0.179 C 
ATOM      4  C   UNL     1       5.494  -6.145  28.789  0.00  0.00    +0.177 C 
ATOM      5  C   UNL     1       6.129  -4.830  28.361  0.00  0.00    +0.180 C 
ATOM      6  C   UNL     1       6.884  -5.013  27.041  0.00  0.00    +0.214 C 
ENDROOT
BRANCH   6   7
ATOM      7  O   UNL     1       8.074  -5.814  27.227  0.00  0.00    -0.383 OA
ATOM      8  H   UNL     1       7.909  -6.651  26.734  0.00  0.00    +0.210 HD
ENDBRANCH   6   7
BRANCH   5   9
ATOM      9  O   UNL     1       5.120  -3.828  28.334  0.00  0.00    -0.386 OA
ATOM     10  H   UNL     1       5.504  -2.979  28.051  0.00  0.00    +0.210 HD
ENDBRANCH   5   9
BRANCH   4  11
ATOM     11  O   UNL     1       6.584  -7.037  29.135  0.00  0.00    -0.386 OA
ATOM     12  H   UNL     1       6.443  -7.338  30.055  0.00  0.00    +0.210 HD
ENDBRANCH   4  11
BRANCH   3  13
ATOM     13  C   UNL     1       3.251  -6.438  27.339  0.00  0.00    +0.197 C 
BRANCH  13  14
ATOM     14  O   UNL     1       2.823  -7.038  26.056  0.00  0.00    -0.346 OA
BRANCH  14  15
ATOM     15  C   UNL     1       1.714  -6.385  25.389  0.00  0.00    +0.282 C 
ATOM     16  O   UNL     1       0.627  -7.285  25.105  0.00  0.00    -0.341 OA
ATOM     17  C   UNL     1       0.686  -8.172  23.975  0.00  0.00    +0.178 C 
ATOM     18  C   UNL     1       1.558  -7.726  22.776  0.00  0.00    +0.177 C 
ATOM     19  C   UNL     1       2.734  -6.850  23.203  0.00  0.00    +0.179 C 
ATOM     20  C   UNL     1       2.213  -5.719  24.106  0.00  0.00    +0.201 C 
BRANCH  20  21
ATOM     21  O   UNL     1       1.208  -4.913  23.480  0.00  0.00    -0.384 OA
ATOM     22  H   UNL     1       0.337  -5.330  23.650  0.00  0.00    +0.210 HD
ENDBRANCH  20  21
BRANCH  19  23
ATOM     23  O   UNL     1       3.749  -7.674  23.796  0.00  0.00    -0.386 OA
ATOM     24  H   UNL     1       4.080  -8.312  23.113  0.00  0.00    +0.210 HD
ENDBRANCH  19  23
BRANCH  18  25
ATOM     25  O   UNL     1       0.736  -6.955  21.876  0.00  0.00    -0.386 OA
ATOM     26  H   UNL     1      -0.136  -6.847  22.305  0.00  0.00    +0.210 HD
ENDBRANCH  18  25
BRANCH  17  27
ATOM     27  C   UNL     1       1.013  -9.603  24.432  0.00  0.00    +0.190 C 
BRANCH  27  28
ATOM     28  O   UNL     1       2.192  -9.661  25.237  0.00  0.00    -0.392 OA
ATOM     29  H   UNL     1       2.682 -10.470  25.010  0.00  0.00    +0.210 HD
ENDBRANCH  27  28
ENDBRANCH  17  27
ENDBRANCH  14  15
ENDBRANCH  13  14
ENDBRANCH   3  13
BRANCH   1  30
ATOM     30  O   UNL     1       5.546  -4.771  24.977  0.00  0.00    -0.457 OA
BRANCH  30  34
ATOM     31  C   UNL     1       8.616  -1.960  24.416  0.00  0.00    +0.061 A 
ATOM     32  C   UNL     1       8.918  -3.288  24.288  0.00  0.00    +0.163 A 
ATOM     33  C   UNL     1       7.904  -4.225  24.305  0.00  0.00    +0.201 A 
ATOM     34  C   UNL     1       6.567  -3.884  24.604  0.00  0.00    +0.170 A 
ATOM     35  C   UNL     1       6.255  -2.491  24.662  0.00  0.00    +0.061 A 
ATOM     36  C   UNL     1       7.282  -1.531  24.505  0.00  0.00    +0.025 A 
BRANCH  36  37
ATOM     37  C   UNL     1       7.045  -0.069  24.457  0.00  0.00    +0.139 A 
ATOM     38  O   UNL     1       8.155   0.732  24.251  0.00  0.00    -0.454 OA
ATOM     39  C   UNL     1       7.951   2.083  24.086  0.00  0.00    +0.146 A 
ATOM     40  C   UNL     1       6.687   2.671  24.125  0.00  0.00    +0.105 A 
ATOM     41  C   UNL     1       6.535   4.047  23.904  0.00  0.00    +0.135 A 
ATOM     42  C   UNL     1       7.653   4.839  23.667  0.00  0.00    +0.091 A 
ATOM     43  C   UNL     1       8.912   4.248  23.655  0.00  0.00    +0.124 A 
ATOM     44  C   UNL     1       5.528   1.826  24.402  0.00  0.00    +0.197 A 
ATOM     45  O   UNL     1       4.393   2.285  24.452  0.00  0.00    -0.287 OA
ATOM     46  C   UNL     1       9.071   2.875  23.859  0.00  0.00    +0.092 A 
ATOM     47  C   UNL     1       5.791   0.401  24.581  0.00  0.00    +0.098 A 
BRANCH  43  48
ATOM     48  O   UNL     1      10.036   4.990  23.442  0.00  0.00    -0.507 OA
ATOM     49  H   UNL     1      10.253   4.962  22.494  0.00  0.00    +0.292 HD
ENDBRANCH  43  48
BRANCH  41  50
ATOM     50  O   UNL     1       5.318   4.674  23.901  0.00  0.00    -0.506 OA
ATOM     51  H   UNL     1       5.472   5.647  23.885  0.00  0.00    +0.292 HD
ENDBRANCH  41  50
ENDBRANCH  36  37
BRANCH  33  52
ATOM     52  O   UNL     1       8.398  -5.493  24.069  0.00  0.00    -0.501 OA
ATOM     53  H   UNL     1       8.516  -5.913  24.948  0.00  0.00    +0.292 HD
ENDBRANCH  33  52
BRANCH  32  54
ATOM     54  O   UNL     1      10.222  -3.695  24.183  0.00  0.00    -0.503 OA
ATOM     55  H   UNL     1      10.703  -3.126  24.822  0.00  0.00    +0.292 HD
ENDBRANCH  32  54
ENDBRANCH  30  34
ENDBRANCH   1  30
TORSDOF 18
ENDMDL
MODEL 7
REMARK VINA RESULT:      -6.8      1.961      5.391
REMARK  Name = 
REMARK  18 active torsions:
REMARK  status: ('A' for Active; 'I' for Inactive)
REMARK    1  A    between atoms: C_2  and  C_42
REMARK    2  A    between atoms: C_4  and  O_9
REMARK    3  A    between atoms: C_5  and  O_8
REMARK    4  A    between atoms: C_6  and  O_7
REMARK    5  A    between atoms: O_9  and  C_10
REMARK    6  A    between atoms: C_12  and  O_41
REMARK    7  A    between atoms: C_14  and  O_40
REMARK    8  A    between atoms: C_16  and  O_39
REMARK    9  A    between atoms: C_18  and  C_21
REMARK   10  A    between atoms: C_21  and  O_22
REMARK   11  A    between atoms: O_22  and  C_23
REMARK   12  A    between atoms: C_25  and  O_38
REMARK   13  A    between atoms: C_27  and  O_37
REMARK   14  A    between atoms: C_29  and  O_36
REMARK   15  A    between atoms: C_31  and  C_34
REMARK   16  A    between atoms: C_34  and  O_35
REMARK   17  A    between atoms: C_47  and  O_54
REMARK   18  A    between atoms: C_49  and  O_53
REMARK                            x       y       z     vdW  Elec       q    Type
REMARK                         _______ _______ _______ _____ _____    ______ ____
ROOT
ATOM      1  C   UNL     1       5.918  -3.254  26.942  0.00  0.00    +0.339 C 
ATOM      2  O   UNL     1       7.157  -2.934  26.340  0.00  0.00    -0.331 OA
ATOM      3  C   UNL     1       7.692  -3.752  25.322  0.00  0.00    +0.179 C 
ATOM      4  C   UNL     1       7.481  -5.268  25.522  0.00  0.00    +0.177 C 
ATOM      5  C   UNL     1       6.079  -5.630  25.989  0.00  0.00    +0.180 C 
ATOM      6  C   UNL     1       5.680  -4.760  27.186  0.00  0.00    +0.214 C 
ENDROOT
BRANCH   6   7
ATOM      7  O   UNL     1       6.434  -5.120  28.366  0.00  0.00    -0.383 OA
ATOM      8  H   UNL     1       6.715  -6.054  28.226  0.00  0.00    +0.210 HD
ENDBRANCH   6   7
BRANCH   5   9
ATOM      9  O   UNL     1       5.197  -5.549  24.877  0.00  0.00    -0.386 OA
ATOM     10  H   UNL     1       5.462  -6.193  24.196  0.00  0.00    +0.210 HD
ENDBRANCH   5   9
BRANCH   4  11
ATOM     11  O   UNL     1       8.388  -5.690  26.573  0.00  0.00    -0.386 OA
ATOM     12  H   UNL     1       8.809  -4.889  26.944  0.00  0.00    +0.210 HD
ENDBRANCH   4  11
BRANCH   3  13
ATOM     13  C   UNL     1       7.264  -3.030  24.053  0.00  0.00    +0.197 C 
BRANCH  13  14
ATOM     14  O   UNL     1       8.237  -1.974  23.695  0.00  0.00    -0.346 OA
BRANCH  14  15
ATOM     15  C   UNL     1       7.980  -0.660  24.249  0.00  0.00    +0.282 C 
ATOM     16  O   UNL     1       7.822   0.351  23.236  0.00  0.00    -0.341 OA
ATOM     17  C   UNL     1       8.970   0.929  22.593  0.00  0.00    +0.178 C 
ATOM     18  C   UNL     1      10.293   0.943  23.396  0.00  0.00    +0.177 C 
ATOM     19  C   UNL     1      10.395  -0.224  24.376  0.00  0.00    +0.179 C 
ATOM     20  C   UNL     1       9.106  -0.285  25.214  0.00  0.00    +0.201 C 
BRANCH  20  21
ATOM     21  O   UNL     1       8.836   0.927  25.928  0.00  0.00    -0.384 OA
ATOM     22  H   UNL     1       9.255   0.857  26.812  0.00  0.00    +0.210 HD
ENDBRANCH  20  21
BRANCH  19  23
ATOM     23  O   UNL     1      10.700  -1.425  23.653  0.00  0.00    -0.386 OA
ATOM     24  H   UNL     1      10.208  -2.180  24.067  0.00  0.00    +0.210 HD
ENDBRANCH  19  23
BRANCH  18  25
ATOM     25  O   UNL     1      10.351   2.167  24.157  0.00  0.00    -0.386 OA
ATOM     26  H   UNL     1       9.758   2.807  23.717  0.00  0.00    +0.210 HD
ENDBRANCH  18  25
BRANCH  17  27
ATOM     27  C   UNL     1       9.151   0.340  21.184  0.00  0.00    +0.190 C 
BRANCH  27  28
ATOM     28  O   UNL     1       9.539  -1.035  21.215  0.00  0.00    -0.392 OA
ATOM     29  H   UNL     1       8.845  -1.563  20.784  0.00  0.00    +0.210 HD
ENDBRANCH  27  28
ENDBRANCH  17  27
ENDBRANCH  14  15
ENDBRANCH  13  14
ENDBRANCH   3  13
BRANCH   1  30
ATOM     30  O   UNL     1       4.686  -2.561  26.651  0.00  0.00    -0.457 OA
BRANCH  30  34
ATOM     31  C   UNL     1       4.504   1.536  27.558  0.00  0.00    +0.061 A 
ATOM     32  C   UNL     1       4.136   0.639  28.523  0.00  0.00    +0.163 A 
ATOM     33  C   UNL     1       4.338  -0.711  28.315  0.00  0.00    +0.201 A 
ATOM     34  C   UNL     1       4.773  -1.226  27.074  0.00  0.00    +0.170 A 
ATOM     35  C   UNL     1       5.221  -0.277  26.105  0.00  0.00    +0.061 A 
ATOM     36  C   UNL     1       5.138   1.107  26.382  0.00  0.00    +0.025 A 
BRANCH  36  37
ATOM     37  C   UNL     1       5.662   2.162  25.481  0.00  0.00    +0.139 A 
ATOM     38  O   UNL     1       6.675   2.960  25.985  0.00  0.00    -0.454 OA
ATOM     39  C   UNL     1       7.259   3.870  25.134  0.00  0.00    +0.146 A 
ATOM     40  C   UNL     1       6.872   4.023  23.804  0.00  0.00    +0.105 A 
ATOM     41  C   UNL     1       7.534   4.935  22.970  0.00  0.00    +0.135 A 
ATOM     42  C   UNL     1       8.572   5.710  23.476  0.00  0.00    +0.091 A 
ATOM     43  C   UNL     1       8.935   5.568  24.811  0.00  0.00    +0.124 A 
ATOM     44  C   UNL     1       5.762   3.220  23.298  0.00  0.00    +0.197 A 
ATOM     45  O   UNL     1       5.373   3.312  22.140  0.00  0.00    -0.287 OA
ATOM     46  C   UNL     1       8.290   4.652  25.645  0.00  0.00    +0.092 A 
ATOM     47  C   UNL     1       5.164   2.275  24.238  0.00  0.00    +0.098 A 
BRANCH  43  48
ATOM     48  O   UNL     1       9.936   6.320  25.352  0.00  0.00    -0.507 OA
ATOM     49  H   UNL     1       9.552   6.918  26.016  0.00  0.00    +0.292 HD
ENDBRANCH  43  48
BRANCH  41  50
ATOM     50  O   UNL     1       7.217   5.108  21.649  0.00  0.00    -0.506 OA
ATOM     51  H   UNL     1       8.056   5.164  21.135  0.00  0.00    +0.292 HD
ENDBRANCH  41  50
ENDBRANCH  36  37
BRANCH  33  52
ATOM     52  O   UNL     1       3.992  -1.442  29.435  0.00  0.00    -0.501 OA
ATOM     53  H   UNL     1       4.783  -1.449  30.016  0.00  0.00    +0.292 HD
ENDBRANCH  33  52
BRANCH  32  54
ATOM     54  O   UNL     1       3.534   1.069  29.677  0.00  0.00    -0.503 OA
ATOM     55  H   UNL     1       4.281   1.365  30.241  0.00  0.00    +0.292 HD
ENDBRANCH  32  54
ENDBRANCH  30  34
ENDBRANCH   1  30
TORSDOF 18
ENDMDL
MODEL 8
REMARK VINA RESULT:      -6.8      1.786      7.574
REMARK  Name = 
REMARK  18 active torsions:
REMARK  status: ('A' for Active; 'I' for Inactive)
REMARK    1  A    between atoms: C_2  and  C_42
REMARK    2  A    between atoms: C_4  and  O_9
REMARK    3  A    between atoms: C_5  and  O_8
REMARK    4  A    between atoms: C_6  and  O_7
REMARK    5  A    between atoms: O_9  and  C_10
REMARK    6  A    between atoms: C_12  and  O_41
REMARK    7  A    between atoms: C_14  and  O_40
REMARK    8  A    between atoms: C_16  and  O_39
REMARK    9  A    between atoms: C_18  and  C_21
REMARK   10  A    between atoms: C_21  and  O_22
REMARK   11  A    between atoms: O_22  and  C_23
REMARK   12  A    between atoms: C_25  and  O_38
REMARK   13  A    between atoms: C_27  and  O_37
REMARK   14  A    between atoms: C_29  and  O_36
REMARK   15  A    between atoms: C_31  and  C_34
REMARK   16  A    between atoms: C_34  and  O_35
REMARK   17  A    between atoms: C_47  and  O_54
REMARK   18  A    between atoms: C_49  and  O_53
REMARK                            x       y       z     vdW  Elec       q    Type
REMARK                         _______ _______ _______ _____ _____    ______ ____
ROOT
ATOM      1  C   UNL     1       8.355   2.158  23.907  0.00  0.00    +0.339 C 
ATOM      2  O   UNL     1       8.456   3.517  24.287  0.00  0.00    -0.331 OA
ATOM      3  C   UNL     1       7.375   4.400  24.080  0.00  0.00    +0.179 C 
ATOM      4  C   UNL     1       6.599   4.188  22.762  0.00  0.00    +0.177 C 
ATOM      5  C   UNL     1       6.322   2.725  22.449  0.00  0.00    +0.180 C 
ATOM      6  C   UNL     1       7.610   1.905  22.578  0.00  0.00    +0.214 C 
ENDROOT
BRANCH   6   7
ATOM      7  O   UNL     1       8.535   2.215  21.511  0.00  0.00    -0.383 OA
ATOM      8  H   UNL     1       8.280   3.112  21.193  0.00  0.00    +0.210 HD
ENDBRANCH   6   7
BRANCH   5   9
ATOM      9  O   UNL     1       5.251   2.281  23.273  0.00  0.00    -0.386 OA
ATOM     10  H   UNL     1       5.308   2.705  24.148  0.00  0.00    +0.210 HD
ENDBRANCH   5   9
BRANCH   4  11
ATOM     11  O   UNL     1       7.437   4.689  21.688  0.00  0.00    -0.386 OA
ATOM     12  H   UNL     1       8.311   4.260  21.767  0.00  0.00    +0.210 HD
ENDBRANCH   4  11
BRANCH   3  13
ATOM     13  C   UNL     1       6.688   4.414  25.438  0.00  0.00    +0.197 C 
BRANCH  13  14
ATOM     14  O   UNL     1       5.654   3.359  25.515  0.00  0.00    -0.346 OA
BRANCH  14  15
ATOM     15  C   UNL     1       4.584   3.587  26.465  0.00  0.00    +0.282 C 
ATOM     16  O   UNL     1       5.050   3.648  27.825  0.00  0.00    -0.341 OA
ATOM     17  C   UNL     1       5.341   2.445  28.556  0.00  0.00    +0.178 C 
ATOM     18  C   UNL     1       4.579   1.165  28.135  0.00  0.00    +0.177 C 
ATOM     19  C   UNL     1       4.213   1.165  26.652  0.00  0.00    +0.179 C 
ATOM     20  C   UNL     1       3.523   2.496  26.307  0.00  0.00    +0.201 C 
BRANCH  20  21
ATOM     21  O   UNL     1       2.355   2.749  27.096  0.00  0.00    -0.384 OA
ATOM     22  H   UNL     1       1.568   2.539  26.549  0.00  0.00    +0.210 HD
ENDBRANCH  20  21
BRANCH  19  23
ATOM     23  O   UNL     1       5.384   0.875  25.874  0.00  0.00    -0.386 OA
ATOM     24  H   UNL     1       6.170   0.857  26.478  0.00  0.00    +0.210 HD
ENDBRANCH  19  23
BRANCH  18  25
ATOM     25  O   UNL     1       3.354   1.093  28.893  0.00  0.00    -0.386 OA
ATOM     26  H   UNL     1       3.146   2.002  29.188  0.00  0.00    +0.210 HD
ENDBRANCH  18  25
BRANCH  17  27
ATOM     27  C   UNL     1       6.859   2.219  28.635  0.00  0.00    +0.190 C 
BRANCH  27  28
ATOM     28  O   UNL     1       7.415   1.809  27.385  0.00  0.00    -0.392 OA
ATOM     29  H   UNL     1       8.336   2.118  27.339  0.00  0.00    +0.210 HD
ENDBRANCH  27  28
ENDBRANCH  17  27
ENDBRANCH  14  15
ENDBRANCH  13  14
ENDBRANCH   3  13
BRANCH   1  30
ATOM     30  O   UNL     1       8.153   1.079  24.844  0.00  0.00    -0.457 OA
BRANCH  30  34
ATOM     31  C   UNL     1       8.867  -2.484  22.737  0.00  0.00    +0.061 A 
ATOM     32  C   UNL     1       9.788  -1.477  22.643  0.00  0.00    +0.163 A 
ATOM     33  C   UNL     1       9.666  -0.361  23.447  0.00  0.00    +0.201 A 
ATOM     34  C   UNL     1       8.536  -0.141  24.265  0.00  0.00    +0.170 A 
ATOM     35  C   UNL     1       7.623  -1.230  24.409  0.00  0.00    +0.061 A 
ATOM     36  C   UNL     1       7.832  -2.426  23.683  0.00  0.00    +0.025 A 
BRANCH  36  37
ATOM     37  C   UNL     1       6.995  -3.640  23.835  0.00  0.00    +0.139 A 
ATOM     38  O   UNL     1       6.871  -4.150  25.116  0.00  0.00    -0.454 OA
ATOM     39  C   UNL     1       6.009  -5.206  25.305  0.00  0.00    +0.146 A 
ATOM     40  C   UNL     1       5.271  -5.780  24.271  0.00  0.00    +0.105 A 
ATOM     41  C   UNL     1       4.373  -6.825  24.532  0.00  0.00    +0.135 A 
ATOM     42  C   UNL     1       4.231  -7.310  25.827  0.00  0.00    +0.091 A 
ATOM     43  C   UNL     1       4.990  -6.748  26.848  0.00  0.00    +0.124 A 
ATOM     44  C   UNL     1       5.454  -5.274  22.913  0.00  0.00    +0.197 A 
ATOM     45  O   UNL     1       4.837  -5.740  21.963  0.00  0.00    -0.287 OA
ATOM     46  C   UNL     1       5.876  -5.697  26.600  0.00  0.00    +0.092 A 
ATOM     47  C   UNL     1       6.385  -4.160  22.756  0.00  0.00    +0.098 A 
BRANCH  43  48
ATOM     48  O   UNL     1       4.894  -7.205  28.130  0.00  0.00    -0.507 OA
ATOM     49  H   UNL     1       5.789  -7.396  28.461  0.00  0.00    +0.292 HD
ENDBRANCH  43  48
BRANCH  41  50
ATOM     50  O   UNL     1       3.601  -7.407  23.562  0.00  0.00    -0.506 OA
ATOM     51  H   UNL     1       3.825  -8.366  23.524  0.00  0.00    +0.292 HD
ENDBRANCH  41  50
ENDBRANCH  36  37
BRANCH  33  52
ATOM     52  O   UNL     1      10.737   0.494  23.274  0.00  0.00    -0.501 OA
ATOM     53  H   UNL     1      10.595   1.245  23.890  0.00  0.00    +0.292 HD
ENDBRANCH  33  52
BRANCH  32  54
ATOM     54  O   UNL     1      10.806  -1.551  21.729  0.00  0.00    -0.503 OA
ATOM     55  H   UNL     1      11.087  -2.491  21.759  0.00  0.00    +0.292 HD
ENDBRANCH  32  54
ENDBRANCH  30  34
ENDBRANCH   1  30
TORSDOF 18
ENDMDL
MODEL 9
REMARK VINA RESULT:      -6.7      2.327      5.450
REMARK  Name = 
REMARK  18 active torsions:
REMARK  status: ('A' for Active; 'I' for Inactive)
REMARK    1  A    between atoms: C_2  and  C_42
REMARK    2  A    between atoms: C_4  and  O_9
REMARK    3  A    between atoms: C_5  and  O_8
REMARK    4  A    between atoms: C_6  and  O_7
REMARK    5  A    between atoms: O_9  and  C_10
REMARK    6  A    between atoms: C_12  and  O_41
REMARK    7  A    between atoms: C_14  and  O_40
REMARK    8  A    between atoms: C_16  and  O_39
REMARK    9  A    between atoms: C_18  and  C_21
REMARK   10  A    between atoms: C_21  and  O_22
REMARK   11  A    between atoms: O_22  and  C_23
REMARK   12  A    between atoms: C_25  and  O_38
REMARK   13  A    between atoms: C_27  and  O_37
REMARK   14  A    between atoms: C_29  and  O_36
REMARK   15  A    between atoms: C_31  and  C_34
REMARK   16  A    between atoms: C_34  and  O_35
REMARK   17  A    between atoms: C_47  and  O_54
REMARK   18  A    between atoms: C_49  and  O_53
REMARK                            x       y       z     vdW  Elec       q    Type
REMARK                         _______ _______ _______ _____ _____    ______ ____
ROOT
ATOM      1  C   UNL     1       6.644  -3.824  26.889  0.00  0.00    +0.339 C 
ATOM      2  O   UNL     1       7.745  -2.939  26.824  0.00  0.00    -0.331 OA
ATOM      3  C   UNL     1       8.706  -3.065  25.799  0.00  0.00    +0.179 C 
ATOM      4  C   UNL     1       9.064  -4.516  25.411  0.00  0.00    +0.177 C 
ATOM      5  C   UNL     1       7.852  -5.429  25.294  0.00  0.00    +0.180 C 
ATOM      6  C   UNL     1       6.966  -5.293  26.537  0.00  0.00    +0.214 C 
ENDROOT
BRANCH   6   7
ATOM      7  O   UNL     1       7.603  -5.875  27.698  0.00  0.00    -0.383 OA
ATOM      8  H   UNL     1       7.054  -5.596  28.467  0.00  0.00    +0.210 HD
ENDBRANCH   6   7
BRANCH   5   9
ATOM      9  O   UNL     1       7.195  -5.152  24.064  0.00  0.00    -0.386 OA
ATOM     10  H   UNL     1       6.275  -4.882  24.233  0.00  0.00    +0.210 HD
ENDBRANCH   5   9
BRANCH   4  11
ATOM     11  O   UNL     1       9.884  -5.054  26.481  0.00  0.00    -0.386 OA
ATOM     12  H   UNL     1      10.300  -5.876  26.154  0.00  0.00    +0.210 HD
ENDBRANCH   4  11
BRANCH   3  13
ATOM     13  C   UNL     1       8.242  -2.039  24.776  0.00  0.00    +0.197 C 
BRANCH  13  14
ATOM     14  O   UNL     1       8.882  -0.727  25.019  0.00  0.00    -0.346 OA
BRANCH  14  15
ATOM     15  C   UNL     1       8.252   0.414  24.386  0.00  0.00    +0.282 C 
ATOM     16  O   UNL     1       7.860   0.150  23.026  0.00  0.00    -0.341 OA
ATOM     17  C   UNL     1       8.826   0.188  21.963  0.00  0.00    +0.178 C 
ATOM     18  C   UNL     1      10.064   1.094  22.170  0.00  0.00    +0.177 C 
ATOM     19  C   UNL     1      10.447   1.232  23.643  0.00  0.00    +0.179 C 
ATOM     20  C   UNL     1       9.196   1.617  24.451  0.00  0.00    +0.201 C 
BRANCH  20  21
ATOM     21  O   UNL     1       8.576   2.825  23.995  0.00  0.00    -0.384 OA
ATOM     22  H   UNL     1       8.926   3.025  23.101  0.00  0.00    +0.210 HD
ENDBRANCH  20  21
BRANCH  19  23
ATOM     23  O   UNL     1      11.098   0.029  24.077  0.00  0.00    -0.386 OA
ATOM     24  H   UNL     1      10.616  -0.326  24.867  0.00  0.00    +0.210 HD
ENDBRANCH  19  23
BRANCH  18  25
ATOM     25  O   UNL     1       9.755   2.411  21.669  0.00  0.00    -0.386 OA
ATOM     26  H   UNL     1       8.783   2.459  21.569  0.00  0.00    +0.210 HD
ENDBRANCH  18  25
BRANCH  17  27
ATOM     27  C   UNL     1       9.213  -1.237  21.537  0.00  0.00    +0.190 C 
BRANCH  27  28
ATOM     28  O   UNL     1      10.557  -1.566  21.895  0.00  0.00    -0.392 OA
ATOM     29  H   UNL     1      10.617  -2.528  22.023  0.00  0.00    +0.210 HD
ENDBRANCH  27  28
ENDBRANCH  17  27
ENDBRANCH  14  15
ENDBRANCH  13  14
ENDBRANCH   3  13
BRANCH   1  30
ATOM     30  O   UNL     1       5.304  -3.464  26.495  0.00  0.00    -0.457 OA
BRANCH  30  34
ATOM     31  C   UNL     1       3.839   0.258  27.778  0.00  0.00    +0.061 A 
ATOM     32  C   UNL     1       3.644  -0.830  28.583  0.00  0.00    +0.163 A 
ATOM     33  C   UNL     1       4.251  -2.031  28.270  0.00  0.00    +0.201 A 
ATOM     34  C   UNL     1       4.951  -2.228  27.059  0.00  0.00    +0.170 A 
ATOM     35  C   UNL     1       5.208  -1.068  26.267  0.00  0.00    +0.061 A 
ATOM     36  C   UNL     1       4.696   0.188  26.668  0.00  0.00    +0.025 A 
BRANCH  36  37
ATOM     37  C   UNL     1       4.986   1.460  25.965  0.00  0.00    +0.139 A 
ATOM     38  O   UNL     1       4.237   1.725  24.831  0.00  0.00    -0.454 OA
ATOM     39  C   UNL     1       4.402   2.949  24.225  0.00  0.00    +0.146 A 
ATOM     40  C   UNL     1       5.287   3.918  24.696  0.00  0.00    +0.105 A 
ATOM     41  C   UNL     1       5.380   5.166  24.063  0.00  0.00    +0.135 A 
ATOM     42  C   UNL     1       4.601   5.435  22.944  0.00  0.00    +0.091 A 
ATOM     43  C   UNL     1       3.739   4.453  22.466  0.00  0.00    +0.124 A 
ATOM     44  C   UNL     1       6.116   3.606  25.857  0.00  0.00    +0.197 A 
ATOM     45  O   UNL     1       6.915   4.414  26.315  0.00  0.00    -0.287 OA
ATOM     46  C   UNL     1       3.629   3.213  23.098  0.00  0.00    +0.092 A 
ATOM     47  C   UNL     1       5.916   2.293  26.463  0.00  0.00    +0.098 A 
BRANCH  43  48
ATOM     48  O   UNL     1       2.969   4.671  21.361  0.00  0.00    -0.507 OA
ATOM     49  H   UNL     1       2.234   4.033  21.364  0.00  0.00    +0.292 HD
ENDBRANCH  43  48
BRANCH  41  50
ATOM     50  O   UNL     1       6.209   6.166  24.498  0.00  0.00    -0.506 OA
ATOM     51  H   UNL     1       7.007   5.752  24.900  0.00  0.00    +0.292 HD
ENDBRANCH  41  50
ENDBRANCH  36  37
BRANCH  33  52
ATOM     52  O   UNL     1       4.012  -2.977  29.248  0.00  0.00    -0.501 OA
ATOM     53  H   UNL     1       3.109  -3.323  29.083  0.00  0.00    +0.292 HD
ENDBRANCH  33  52
BRANCH  32  54
ATOM     54  O   UNL     1       2.820  -0.748  29.674  0.00  0.00    -0.503 OA
ATOM     55  H   UNL     1       2.320  -1.593  29.661  0.00  0.00    +0.292 HD
ENDBRANCH  32  54
ENDBRANCH  30  34
ENDBRANCH   1  30
TORSDOF 18
ENDMDL
