MODEL 1
REMARK VINA RESULT:      -7.4      0.000      0.000
REMARK  Name = 
REMARK  26 active torsions:
REMARK  status: ('A' for Active; 'I' for Inactive)
REMARK    1  A    between atoms: C_1  and  C_2
REMARK    2  A    between atoms: C_2  and  C_3
REMARK    3  A    between atoms: C_2  and  C_7
REMARK    4  A    between atoms: C_2  and  O_58
REMARK    5  A    between atoms: C_3  and  C_4
REMARK    6  A    between atoms: C_4  and  O_6
REMARK    7  A    between atoms: C_7  and  C_8
REMARK    8  A    between atoms: C_8  and  O_10
REMARK    9  A    between atoms: O_10  and  C_11
REMARK   10  A    between atoms: C_11  and  C_12
REMARK   11  A    between atoms: C_13  and  O_57
REMARK   12  A    between atoms: C_15  and  O_56
REMARK   13  A    between atoms: C_17  and  O_44
REMARK   14  A    between atoms: C_18  and  O_21
REMARK   15  A    between atoms: O_21  and  C_22
REMARK   16  A    between atoms: C_23  and  C_36
REMARK   17  A    between atoms: C_27  and  O_34
REMARK   18  A    between atoms: C_29  and  O_33
REMARK   19  A    between atoms: O_34  and  C_35
REMARK   20  A    between atoms: C_38  and  O_43
REMARK   21  A    between atoms: C_39  and  O_42
REMARK   22  A    between atoms: O_44  and  C_45
REMARK   23  A    between atoms: C_47  and  O_55
REMARK   24  A    between atoms: C_49  and  C_52
REMARK   25  A    between atoms: C_49  and  O_54
REMARK   26  A    between atoms: C_52  and  O_53
REMARK                            x       y       z     vdW  Elec       q    Type
REMARK                         _______ _______ _______ _____ _____    ______ ____
ROOT
ATOM      1  C   UNL     1       9.556  -1.459  24.594  0.00  0.00    +0.191 C 
ATOM      2  O   UNL     1       8.141  -1.169  24.615  0.00  0.00    -0.330 OA
ATOM      3  C   UNL     1       7.598  -0.748  23.342  0.00  0.00    +0.340 C 
ATOM      4  C   UNL     1       8.299   0.563  22.846  0.00  0.00    +0.221 C 
ATOM      5  C   UNL     1       9.815   0.292  22.802  0.00  0.00    +0.180 C 
ATOM      6  C   UNL     1      10.337  -0.210  24.161  0.00  0.00    +0.178 C 
ENDROOT
BRANCH   6   7
ATOM      7  O   UNL     1      10.195   0.822  25.143  0.00  0.00    -0.386 OA
ATOM      8  H   UNL     1      10.767   0.590  25.906  0.00  0.00    +0.210 HD
ENDBRANCH   6   7
BRANCH   5   9
ATOM      9  O   UNL     1      10.544   1.429  22.328  0.00  0.00    -0.386 OA
ATOM     10  H   UNL     1      10.376   1.512  21.369  0.00  0.00    +0.210 HD
ENDBRANCH   5   9
BRANCH   4  11
ATOM     11  O   UNL     1       7.896   1.616  23.744  0.00  0.00    -0.337 OA
BRANCH  11  12
ATOM     12  C   UNL     1       7.570   2.894  23.214  0.00  0.00    +0.282 C 
ATOM     13  O   UNL     1       7.608   3.853  24.297  0.00  0.00    -0.346 OA
ATOM     14  C   UNL     1       6.396   4.624  24.251  0.00  0.00    +0.202 C 
ATOM     15  C   UNL     1       5.879   4.505  22.818  0.00  0.00    +0.142 C 
ATOM     16  C   UNL     1       6.187   3.031  22.534  0.00  0.00    +0.206 C 
BRANCH  16  17
ATOM     17  O   UNL     1       5.172   2.195  23.111  0.00  0.00    -0.384 OA
ATOM     18  H   UNL     1       5.161   2.387  24.064  0.00  0.00    +0.210 HD
ENDBRANCH  16  17
BRANCH  15  19
ATOM     19  O   UNL     1       6.649   5.333  21.925  0.00  0.00    -0.381 OA
ATOM     20  H   UNL     1       6.466   5.050  21.010  0.00  0.00    +0.210 HD
ENDBRANCH  15  19
BRANCH  15  21
ATOM     21  C   UNL     1       4.405   4.911  22.700  0.00  0.00    +0.195 C 
BRANCH  21  22
ATOM     22  O   UNL     1       3.691   4.180  21.710  0.00  0.00    -0.392 OA
ATOM     23  H   UNL     1       4.351   3.927  21.029  0.00  0.00    +0.210 HD
ENDBRANCH  21  22
ENDBRANCH  15  21
ENDBRANCH  11  12
ENDBRANCH   4  11
BRANCH   3  24
ATOM     24  O   UNL     1       6.171  -0.555  23.467  0.00  0.00    -0.453 OA
BRANCH  24  25
ATOM     25  C   UNL     1       5.522  -0.978  24.625  0.00  0.00    +0.214 A 
ATOM     26  C   UNL     1       5.402  -0.100  25.844  0.00  0.00    +0.238 A 
ATOM     27  O   UNL     1       5.640   1.102  25.828  0.00  0.00    -0.283 OA
ATOM     28  C   UNL     1       4.949  -0.722  27.094  0.00  0.00    +0.109 A 
ATOM     29  C   UNL     1       4.260  -1.913  26.989  0.00  0.00    +0.147 A 
ATOM     30  C   UNL     1       3.610  -2.467  28.096  0.00  0.00    +0.092 A 
ATOM     31  C   UNL     1       3.693  -1.829  29.333  0.00  0.00    +0.127 A 
ATOM     32  C   UNL     1       4.476  -0.680  29.462  0.00  0.00    +0.092 A 
ATOM     33  O   UNL     1       4.174  -2.597  25.816  0.00  0.00    -0.451 OA
ATOM     34  C   UNL     1       5.109  -0.131  28.349  0.00  0.00    +0.135 A 
ATOM     35  C   UNL     1       4.949  -2.202  24.724  0.00  0.00    +0.181 A 
BRANCH  35  36
ATOM     36  C   UNL     1       4.945  -3.306  23.723  0.00  0.00    +0.025 A 
ATOM     37  C   UNL     1       5.788  -3.156  22.592  0.00  0.00    +0.015 A 
ATOM     38  C   UNL     1       6.118  -4.234  21.771  0.00  0.00    +0.050 A 
ATOM     39  C   UNL     1       5.597  -5.475  22.070  0.00  0.00    +0.158 A 
ATOM     40  C   UNL     1       4.708  -5.636  23.132  0.00  0.00    +0.159 A 
ATOM     41  C   UNL     1       4.350  -4.555  23.947  0.00  0.00    +0.060 A 
BRANCH  39  42
ATOM     42  O   UNL     1       6.025  -6.561  21.358  0.00  0.00    -0.503 OA
ATOM     43  H   UNL     1       5.215  -7.079  21.187  0.00  0.00    +0.292 HD
ENDBRANCH  39  42
BRANCH  40  44
ATOM     44  O   UNL     1       4.268  -6.909  23.383  0.00  0.00    -0.503 OA
ATOM     45  H   UNL     1       4.280  -7.403  22.545  0.00  0.00    +0.292 HD
ENDBRANCH  40  44
ENDBRANCH  35  36
BRANCH  34  46
ATOM     46  O   UNL     1       5.905   0.967  28.504  0.00  0.00    -0.506 OA
ATOM     47  H   UNL     1       5.445   1.640  29.029  0.00  0.00    +0.292 HD
ENDBRANCH  34  46
BRANCH  31  48
ATOM     48  O   UNL     1       3.075  -2.228  30.485  0.00  0.00    -0.495 OA
ATOM     49  C   UNL     1       2.096  -3.253  30.371  0.00  0.00    +0.277 C 
ENDBRANCH  31  48
ENDBRANCH  24  25
ENDBRANCH   3  24
BRANCH   1  50
ATOM     50  C   UNL     1       9.946  -2.688  23.730  0.00  0.00    +0.266 C 
BRANCH  50  51
ATOM     51  O   UNL     1       8.939  -3.714  23.781  0.00  0.00    -0.462 OA
BRANCH  51  52
ATOM     52  C   UNL     1       9.121  -4.649  24.753  0.00  0.00    +0.310 C 
ATOM     53  O   UNL     1      10.210  -4.925  25.253  0.00  0.00    -0.251 OA
BRANCH  52  54
ATOM     54  C   UNL     1       7.803  -5.269  25.136  0.00  0.00    +0.155 C 
BRANCH  54  56
ATOM     55  C   UNL     1       7.433  -3.541  26.866  0.00  0.00    +0.042 C 
ATOM     56  C   UNL     1       7.388  -5.055  26.607  0.00  0.00    +0.083 C 
BRANCH  56  57
ATOM     57  O   UNL     1       8.373  -5.672  27.438  0.00  0.00    -0.388 OA
ATOM     58  H   UNL     1       7.915  -6.308  28.027  0.00  0.00    +0.210 HD
ENDBRANCH  56  57
BRANCH  56  59
ATOM     59  C   UNL     1       6.007  -5.677  26.902  0.00  0.00    +0.155 C 
BRANCH  59  60
ATOM     60  C   UNL     1       5.869  -6.268  28.288  0.00  0.00    +0.307 C 
ATOM     61  O   UNL     1       6.156  -5.700  29.329  0.00  0.00    -0.251 OA
BRANCH  60  62
ATOM     62  O   UNL     1       5.408  -7.540  28.264  0.00  0.00    -0.481 OA
ATOM     63  H   UNL     1       5.804  -8.124  28.939  0.00  0.00    +0.295 HD
ENDBRANCH  60  62
ENDBRANCH  59  60
ENDBRANCH  56  59
ENDBRANCH  54  56
ENDBRANCH  52  54
ENDBRANCH  51  52
ENDBRANCH  50  51
ENDBRANCH   1  50
TORSDOF 24
ENDMDL
MODEL 2
REMARK VINA RESULT:      -7.2      1.522      4.184
REMARK  Name = 
REMARK  26 active torsions:
REMARK  status: ('A' for Active; 'I' for Inactive)
REMARK    1  A    between atoms: C_1  and  C_2
REMARK    2  A    between atoms: C_2  and  C_3
REMARK    3  A    between atoms: C_2  and  C_7
REMARK    4  A    between atoms: C_2  and  O_58
REMARK    5  A    between atoms: C_3  and  C_4
REMARK    6  A    between atoms: C_4  and  O_6
REMARK    7  A    between atoms: C_7  and  C_8
REMARK    8  A    between atoms: C_8  and  O_10
REMARK    9  A    between atoms: O_10  and  C_11
REMARK   10  A    between atoms: C_11  and  C_12
REMARK   11  A    between atoms: C_13  and  O_57
REMARK   12  A    between atoms: C_15  and  O_56
REMARK   13  A    between atoms: C_17  and  O_44
REMARK   14  A    between atoms: C_18  and  O_21
REMARK   15  A    between atoms: O_21  and  C_22
REMARK   16  A    between atoms: C_23  and  C_36
REMARK   17  A    between atoms: C_27  and  O_34
REMARK   18  A    between atoms: C_29  and  O_33
REMARK   19  A    between atoms: O_34  and  C_35
REMARK   20  A    between atoms: C_38  and  O_43
REMARK   21  A    between atoms: C_39  and  O_42
REMARK   22  A    between atoms: O_44  and  C_45
REMARK   23  A    between atoms: C_47  and  O_55
REMARK   24  A    between atoms: C_49  and  C_52
REMARK   25  A    between atoms: C_49  and  O_54
REMARK   26  A    between atoms: C_52  and  O_53
REMARK                            x       y       z     vdW  Elec       q    Type
REMARK                         _______ _______ _______ _____ _____    ______ ____
ROOT
ATOM      1  C   UNL     1       9.654  -1.285  24.585  0.00  0.00    +0.191 C 
ATOM      2  O   UNL     1       8.260  -0.928  24.719  0.00  0.00    -0.330 OA
ATOM      3  C   UNL     1       7.624  -0.529  23.482  0.00  0.00    +0.340 C 
ATOM      4  C   UNL     1       8.334   0.728  22.872  0.00  0.00    +0.221 C 
ATOM      5  C   UNL     1       9.826   0.384  22.705  0.00  0.00    +0.180 C 
ATOM      6  C   UNL     1      10.447  -0.091  24.033  0.00  0.00    +0.178 C 
ENDROOT
BRANCH   6   7
ATOM      7  O   UNL     1      10.438   0.983  24.980  0.00  0.00    -0.386 OA
ATOM      8  H   UNL     1      11.225   1.543  24.803  0.00  0.00    +0.210 HD
ENDBRANCH   6   7
BRANCH   5   9
ATOM      9  O   UNL     1      10.558   1.467  22.123  0.00  0.00    -0.386 OA
ATOM     10  H   UNL     1      10.086   2.296  22.339  0.00  0.00    +0.210 HD
ENDBRANCH   5   9
BRANCH   4  11
ATOM     11  O   UNL     1       8.059   1.832  23.758  0.00  0.00    -0.337 OA
BRANCH  11  12
ATOM     12  C   UNL     1       7.646   3.075  23.210  0.00  0.00    +0.282 C 
ATOM     13  O   UNL     1       7.661   4.061  24.270  0.00  0.00    -0.346 OA
ATOM     14  C   UNL     1       6.407   4.762  24.243  0.00  0.00    +0.202 C 
ATOM     15  C   UNL     1       5.856   4.580  22.830  0.00  0.00    +0.142 C 
ATOM     16  C   UNL     1       6.238   3.119  22.570  0.00  0.00    +0.206 C 
BRANCH  16  17
ATOM     17  O   UNL     1       5.290   2.241  23.197  0.00  0.00    -0.384 OA
ATOM     18  H   UNL     1       5.087   2.625  24.067  0.00  0.00    +0.210 HD
ENDBRANCH  16  17
BRANCH  15  19
ATOM     19  O   UNL     1       6.552   5.427  21.896  0.00  0.00    -0.381 OA
ATOM     20  H   UNL     1       7.458   5.569  22.227  0.00  0.00    +0.210 HD
ENDBRANCH  15  19
BRANCH  15  21
ATOM     21  C   UNL     1       4.358   4.900  22.749  0.00  0.00    +0.195 C 
BRANCH  21  22
ATOM     22  O   UNL     1       3.683   4.200  21.710  0.00  0.00    -0.392 OA
ATOM     23  H   UNL     1       3.804   4.735  20.897  0.00  0.00    +0.210 HD
ENDBRANCH  21  22
ENDBRANCH  15  21
ENDBRANCH  11  12
ENDBRANCH   4  11
BRANCH   3  24
ATOM     24  O   UNL     1       6.223  -0.265  23.725  0.00  0.00    -0.453 OA
BRANCH  24  25
ATOM     25  C   UNL     1       5.494  -1.129  24.538  0.00  0.00    +0.214 A 
ATOM     26  C   UNL     1       5.104  -2.514  24.090  0.00  0.00    +0.238 A 
ATOM     27  O   UNL     1       5.592  -3.061  23.108  0.00  0.00    -0.283 OA
ATOM     28  C   UNL     1       4.115  -3.241  24.896  0.00  0.00    +0.109 A 
ATOM     29  C   UNL     1       3.940  -2.826  26.199  0.00  0.00    +0.147 A 
ATOM     30  C   UNL     1       3.184  -3.584  27.099  0.00  0.00    +0.092 A 
ATOM     31  C   UNL     1       2.564  -4.753  26.662  0.00  0.00    +0.127 A 
ATOM     32  C   UNL     1       2.655  -5.119  25.317  0.00  0.00    +0.092 A 
ATOM     33  O   UNL     1       4.492  -1.676  26.672  0.00  0.00    -0.451 OA
ATOM     34  C   UNL     1       3.422  -4.362  24.433  0.00  0.00    +0.135 A 
ATOM     35  C   UNL     1       5.098  -0.783  25.787  0.00  0.00    +0.181 A 
BRANCH  35  36
ATOM     36  C   UNL     1       5.280   0.520  26.488  0.00  0.00    +0.025 A 
ATOM     37  C   UNL     1       4.111   1.277  26.756  0.00  0.00    +0.015 A 
ATOM     38  C   UNL     1       4.108   2.327  27.674  0.00  0.00    +0.050 A 
ATOM     39  C   UNL     1       5.282   2.636  28.328  0.00  0.00    +0.158 A 
ATOM     40  C   UNL     1       6.462   1.955  28.030  0.00  0.00    +0.159 A 
ATOM     41  C   UNL     1       6.482   0.916  27.091  0.00  0.00    +0.060 A 
BRANCH  39  42
ATOM     42  O   UNL     1       5.257   3.566  29.329  0.00  0.00    -0.503 OA
ATOM     43  H   UNL     1       6.153   3.956  29.328  0.00  0.00    +0.292 HD
ENDBRANCH  39  42
BRANCH  40  44
ATOM     44  O   UNL     1       7.574   2.299  28.753  0.00  0.00    -0.503 OA
ATOM     45  H   UNL     1       7.389   3.137  29.211  0.00  0.00    +0.292 HD
ENDBRANCH  40  44
ENDBRANCH  35  36
BRANCH  34  46
ATOM     46  O   UNL     1       3.464  -4.710  23.114  0.00  0.00    -0.506 OA
ATOM     47  H   UNL     1       4.382  -4.840  22.833  0.00  0.00    +0.292 HD
ENDBRANCH  34  46
BRANCH  31  48
ATOM     48  O   UNL     1       1.835  -5.613  27.436  0.00  0.00    -0.495 OA
ATOM     49  C   UNL     1       2.439  -6.860  27.758  0.00  0.00    +0.277 C 
ENDBRANCH  31  48
ENDBRANCH  24  25
ENDBRANCH   3  24
BRANCH   1  50
ATOM     50  C   UNL     1       9.910  -2.562  23.740  0.00  0.00    +0.266 C 
BRANCH  50  51
ATOM     51  O   UNL     1       8.800  -3.475  23.808  0.00  0.00    -0.462 OA
BRANCH  51  52
ATOM     52  C   UNL     1       8.996  -4.558  24.608  0.00  0.00    +0.310 C 
ATOM     53  O   UNL     1      10.101  -4.981  24.942  0.00  0.00    -0.251 OA
BRANCH  52  54
ATOM     54  C   UNL     1       7.673  -5.138  25.036  0.00  0.00    +0.155 C 
BRANCH  54  56
ATOM     55  C   UNL     1       7.334  -3.549  26.900  0.00  0.00    +0.042 C 
ATOM     56  C   UNL     1       7.382  -5.044  26.549  0.00  0.00    +0.083 C 
BRANCH  56  57
ATOM     57  O   UNL     1       8.484  -5.624  27.247  0.00  0.00    -0.388 OA
ATOM     58  H   UNL     1       8.336  -6.592  27.294  0.00  0.00    +0.210 HD
ENDBRANCH  56  57
BRANCH  56  59
ATOM     59  C   UNL     1       6.086  -5.793  26.924  0.00  0.00    +0.155 C 
BRANCH  59  60
ATOM     60  C   UNL     1       6.043  -6.295  28.350  0.00  0.00    +0.307 C 
ATOM     61  O   UNL     1       6.347  -5.644  29.337  0.00  0.00    -0.251 OA
BRANCH  60  62
ATOM     62  O   UNL     1       5.650  -7.587  28.432  0.00  0.00    -0.481 OA
ATOM     63  H   UNL     1       6.350  -8.235  28.222  0.00  0.00    +0.295 HD
ENDBRANCH  60  62
ENDBRANCH  59  60
ENDBRANCH  56  59
ENDBRANCH  54  56
ENDBRANCH  52  54
ENDBRANCH  51  52
ENDBRANCH  50  51
ENDBRANCH   1  50
TORSDOF 24
ENDMDL
MODEL 3
REMARK VINA RESULT:      -7.1      1.990      5.006
REMARK  Name = 
REMARK  26 active torsions:
REMARK  status: ('A' for Active; 'I' for Inactive)
REMARK    1  A    between atoms: C_1  and  C_2
REMARK    2  A    between atoms: C_2  and  C_3
REMARK    3  A    between atoms: C_2  and  C_7
REMARK    4  A    between atoms: C_2  and  O_58
REMARK    5  A    between atoms: C_3  and  C_4
REMARK    6  A    between atoms: C_4  and  O_6
REMARK    7  A    between atoms: C_7  and  C_8
REMARK    8  A    between atoms: C_8  and  O_10
REMARK    9  A    between atoms: O_10  and  C_11
REMARK   10  A    between atoms: C_11  and  C_12
REMARK   11  A    between atoms: C_13  and  O_57
REMARK   12  A    between atoms: C_15  and  O_56
REMARK   13  A    between atoms: C_17  and  O_44
REMARK   14  A    between atoms: C_18  and  O_21
REMARK   15  A    between atoms: O_21  and  C_22
REMARK   16  A    between atoms: C_23  and  C_36
REMARK   17  A    between atoms: C_27  and  O_34
REMARK   18  A    between atoms: C_29  and  O_33
REMARK   19  A    between atoms: O_34  and  C_35
REMARK   20  A    between atoms: C_38  and  O_43
REMARK   21  A    between atoms: C_39  and  O_42
REMARK   22  A    between atoms: O_44  and  C_45
REMARK   23  A    between atoms: C_47  and  O_55
REMARK   24  A    between atoms: C_49  and  C_52
REMARK   25  A    between atoms: C_49  and  O_54
REMARK   26  A    between atoms: C_52  and  O_53
REMARK                            x       y       z     vdW  Elec       q    Type
REMARK                         _______ _______ _______ _____ _____    ______ ____
ROOT
ATOM      1  C   UNL     1       9.897  -0.633  22.657  0.00  0.00    +0.191 C 
ATOM      2  O   UNL     1       9.648  -0.563  24.078  0.00  0.00    -0.330 OA
ATOM      3  C   UNL     1       8.297  -0.186  24.431  0.00  0.00    +0.340 C 
ATOM      4  C   UNL     1       7.948   1.231  23.861  0.00  0.00    +0.221 C 
ATOM      5  C   UNL     1       8.193   1.195  22.341  0.00  0.00    +0.180 C 
ATOM      6  C   UNL     1       9.626   0.734  22.012  0.00  0.00    +0.178 C 
ENDROOT
BRANCH   6   7
ATOM      7  O   UNL     1      10.566   1.699  22.496  0.00  0.00    -0.386 OA
ATOM      8  H   UNL     1      10.448   1.770  23.468  0.00  0.00    +0.210 HD
ENDBRANCH   6   7
BRANCH   5   9
ATOM      9  O   UNL     1       7.872   2.445  21.722  0.00  0.00    -0.386 OA
ATOM     10  H   UNL     1       8.400   3.140  22.164  0.00  0.00    +0.210 HD
ENDBRANCH   5   9
BRANCH   4  11
ATOM     11  O   UNL     1       8.757   2.180  24.586  0.00  0.00    -0.337 OA
BRANCH  11  12
ATOM     12  C   UNL     1       8.215   3.456  24.900  0.00  0.00    +0.282 C 
ATOM     13  O   UNL     1       6.862   3.508  24.389  0.00  0.00    -0.346 OA
ATOM     14  C   UNL     1       6.713   4.728  23.646  0.00  0.00    +0.202 C 
ATOM     15  C   UNL     1       7.799   5.670  24.166  0.00  0.00    +0.142 C 
ATOM     16  C   UNL     1       8.962   4.686  24.331  0.00  0.00    +0.206 C 
BRANCH  16  17
ATOM     17  O   UNL     1       9.591   4.447  23.062  0.00  0.00    -0.384 OA
ATOM     18  H   UNL     1       8.999   3.857  22.565  0.00  0.00    +0.210 HD
ENDBRANCH  16  17
BRANCH  15  19
ATOM     19  O   UNL     1       7.439   6.203  25.455  0.00  0.00    -0.381 OA
ATOM     20  H   UNL     1       8.219   6.655  25.828  0.00  0.00    +0.210 HD
ENDBRANCH  15  19
BRANCH  15  21
ATOM     21  C   UNL     1       8.050   6.844  23.212  0.00  0.00    +0.195 C 
BRANCH  21  22
ATOM     22  O   UNL     1       7.925   6.496  21.838  0.00  0.00    -0.392 OA
ATOM     23  H   UNL     1       8.067   7.325  21.333  0.00  0.00    +0.210 HD
ENDBRANCH  21  22
ENDBRANCH  15  21
ENDBRANCH  11  12
ENDBRANCH   4  11
BRANCH   3  24
ATOM     24  O   UNL     1       8.148  -0.217  25.869  0.00  0.00    -0.453 OA
BRANCH  24  25
ATOM     25  C   UNL     1       7.249  -1.112  26.445  0.00  0.00    +0.214 A 
ATOM     26  C   UNL     1       7.514  -2.595  26.494  0.00  0.00    +0.238 A 
ATOM     27  O   UNL     1       8.614  -3.085  26.263  0.00  0.00    -0.283 OA
ATOM     28  C   UNL     1       6.402  -3.477  26.869  0.00  0.00    +0.109 A 
ATOM     29  C   UNL     1       5.353  -2.906  27.558  0.00  0.00    +0.147 A 
ATOM     30  C   UNL     1       4.358  -3.700  28.138  0.00  0.00    +0.092 A 
ATOM     31  C   UNL     1       4.404  -5.084  27.983  0.00  0.00    +0.127 A 
ATOM     32  C   UNL     1       5.409  -5.654  27.198  0.00  0.00    +0.092 A 
ATOM     33  O   UNL     1       5.237  -1.559  27.712  0.00  0.00    -0.451 OA
ATOM     34  C   UNL     1       6.402  -4.854  26.635  0.00  0.00    +0.135 A 
ATOM     35  C   UNL     1       6.085  -0.705  27.005  0.00  0.00    +0.181 A 
BRANCH  35  36
ATOM     36  C   UNL     1       5.518   0.673  27.066  0.00  0.00    +0.025 A 
ATOM     37  C   UNL     1       6.089   1.564  28.011  0.00  0.00    +0.015 A 
ATOM     38  C   UNL     1       5.880   2.941  27.943  0.00  0.00    +0.050 A 
ATOM     39  C   UNL     1       5.088   3.440  26.930  0.00  0.00    +0.158 A 
ATOM     40  C   UNL     1       4.457   2.580  26.032  0.00  0.00    +0.159 A 
ATOM     41  C   UNL     1       4.639   1.193  26.107  0.00  0.00    +0.060 A 
BRANCH  39  42
ATOM     42  O   UNL     1       4.993   4.794  26.771  0.00  0.00    -0.503 OA
ATOM     43  H   UNL     1       4.351   5.078  27.450  0.00  0.00    +0.292 HD
ENDBRANCH  39  42
BRANCH  40  44
ATOM     44  O   UNL     1       3.719   3.160  25.034  0.00  0.00    -0.503 OA
ATOM     45  H   UNL     1       3.605   4.101  25.252  0.00  0.00    +0.292 HD
ENDBRANCH  40  44
ENDBRANCH  35  36
BRANCH  34  46
ATOM     46  O   UNL     1       7.350  -5.424  25.836  0.00  0.00    -0.506 OA
ATOM     47  H   UNL     1       7.099  -5.333  24.904  0.00  0.00    +0.292 HD
ENDBRANCH  34  46
BRANCH  31  48
ATOM     48  O   UNL     1       3.531  -5.983  28.529  0.00  0.00    -0.495 OA
ATOM     49  C   UNL     1       2.728  -6.731  27.625  0.00  0.00    +0.277 C 
ENDBRANCH  31  48
ENDBRANCH  24  25
ENDBRANCH   3  24
BRANCH   1  50
ATOM     50  C   UNL     1       9.118  -1.760  21.925  0.00  0.00    +0.266 C 
BRANCH  50  51
ATOM     51  O   UNL     1       8.848  -2.871  22.797  0.00  0.00    -0.462 OA
BRANCH  51  52
ATOM     52  C   UNL     1       7.544  -3.260  22.844  0.00  0.00    +0.310 C 
ATOM     53  O   UNL     1       6.617  -2.532  23.196  0.00  0.00    -0.251 OA
BRANCH  52  54
ATOM     54  C   UNL     1       7.407  -4.688  22.385  0.00  0.00    +0.155 C 
BRANCH  54  56
ATOM     55  C   UNL     1       6.171  -6.092  20.769  0.00  0.00    +0.042 C 
ATOM     56  C   UNL     1       5.991  -5.085  21.916  0.00  0.00    +0.083 C 
BRANCH  56  57
ATOM     57  O   UNL     1       5.359  -3.921  21.384  0.00  0.00    -0.388 OA
ATOM     58  H   UNL     1       4.392  -4.082  21.372  0.00  0.00    +0.210 HD
ENDBRANCH  56  57
BRANCH  56  59
ATOM     59  C   UNL     1       5.145  -5.642  23.080  0.00  0.00    +0.155 C 
BRANCH  59  60
ATOM     60  C   UNL     1       3.885  -4.857  23.369  0.00  0.00    +0.307 C 
ATOM     61  O   UNL     1       2.778  -5.109  22.921  0.00  0.00    -0.251 OA
BRANCH  60  62
ATOM     62  O   UNL     1       4.111  -3.795  24.176  0.00  0.00    -0.481 OA
ATOM     63  H   UNL     1       4.128  -2.934  23.714  0.00  0.00    +0.295 HD
ENDBRANCH  60  62
ENDBRANCH  59  60
ENDBRANCH  56  59
ENDBRANCH  54  56
ENDBRANCH  52  54
ENDBRANCH  51  52
ENDBRANCH  50  51
ENDBRANCH   1  50
TORSDOF 24
ENDMDL
MODEL 4
REMARK VINA RESULT:      -6.9      2.133      7.685
REMARK  Name = 
REMARK  26 active torsions:
REMARK  status: ('A' for Active; 'I' for Inactive)
REMARK    1  A    between atoms: C_1  and  C_2
REMARK    2  A    between atoms: C_2  and  C_3
REMARK    3  A    between atoms: C_2  and  C_7
REMARK    4  A    between atoms: C_2  and  O_58
REMARK    5  A    between atoms: C_3  and  C_4
REMARK    6  A    between atoms: C_4  and  O_6
REMARK    7  A    between atoms: C_7  and  C_8
REMARK    8  A    between atoms: C_8  and  O_10
REMARK    9  A    between atoms: O_10  and  C_11
REMARK   10  A    between atoms: C_11  and  C_12
REMARK   11  A    between atoms: C_13  and  O_57
REMARK   12  A    between atoms: C_15  and  O_56
REMARK   13  A    between atoms: C_17  and  O_44
REMARK   14  A    between atoms: C_18  and  O_21
REMARK   15  A    between atoms: O_21  and  C_22
REMARK   16  A    between atoms: C_23  and  C_36
REMARK   17  A    between atoms: C_27  and  O_34
REMARK   18  A    between atoms: C_29  and  O_33
REMARK   19  A    between atoms: O_34  and  C_35
REMARK   20  A    between atoms: C_38  and  O_43
REMARK   21  A    between atoms: C_39  and  O_42
REMARK   22  A    between atoms: O_44  and  C_45
REMARK   23  A    between atoms: C_47  and  O_55
REMARK   24  A    between atoms: C_49  and  C_52
REMARK   25  A    between atoms: C_49  and  O_54
REMARK   26  A    between atoms: C_52  and  O_53
REMARK                            x       y       z     vdW  Elec       q    Type
REMARK                         _______ _______ _______ _____ _____    ______ ____
ROOT
ATOM      1  C   UNL     1       8.619  -2.915  23.767  0.00  0.00    +0.191 C 
ATOM      2  O   UNL     1       7.753  -2.230  24.699  0.00  0.00    -0.330 OA
ATOM      3  C   UNL     1       8.159  -2.340  26.083  0.00  0.00    +0.340 C 
ATOM      4  C   UNL     1       8.183  -3.839  26.538  0.00  0.00    +0.221 C 
ATOM      5  C   UNL     1       9.106  -4.604  25.571  0.00  0.00    +0.180 C 
ATOM      6  C   UNL     1       8.670  -4.411  24.106  0.00  0.00    +0.178 C 
ENDROOT
BRANCH   6   7
ATOM      7  O   UNL     1       7.383  -5.004  23.904  0.00  0.00    -0.386 OA
ATOM      8  H   UNL     1       7.090  -5.382  24.761  0.00  0.00    +0.210 HD
ENDBRANCH   6   7
BRANCH   5   9
ATOM      9  O   UNL     1       9.216  -5.986  25.925  0.00  0.00    -0.386 OA
ATOM     10  H   UNL     1      10.166  -6.217  25.934  0.00  0.00    +0.210 HD
ENDBRANCH   5   9
BRANCH   4  11
ATOM     11  O   UNL     1       6.813  -4.290  26.557  0.00  0.00    -0.337 OA
BRANCH  11  12
ATOM     12  C   UNL     1       6.504  -5.545  27.146  0.00  0.00    +0.282 C 
ATOM     13  O   UNL     1       5.774  -6.330  26.174  0.00  0.00    -0.346 OA
ATOM     14  C   UNL     1       4.603  -6.858  26.817  0.00  0.00    +0.202 C 
ATOM     15  C   UNL     1       4.908  -6.849  28.315  0.00  0.00    +0.142 C 
ATOM     16  C   UNL     1       5.652  -5.516  28.437  0.00  0.00    +0.206 C 
BRANCH  16  17
ATOM     17  O   UNL     1       4.713  -4.429  28.487  0.00  0.00    -0.384 OA
ATOM     18  H   UNL     1       4.477  -4.223  27.567  0.00  0.00    +0.210 HD
ENDBRANCH  16  17
BRANCH  15  19
ATOM     19  O   UNL     1       5.801  -7.926  28.661  0.00  0.00    -0.381 OA
ATOM     20  H   UNL     1       6.629  -7.810  28.159  0.00  0.00    +0.210 HD
ENDBRANCH  15  19
BRANCH  15  21
ATOM     21  C   UNL     1       3.639  -6.984  29.164  0.00  0.00    +0.195 C 
BRANCH  21  22
ATOM     22  O   UNL     1       2.598  -7.711  28.520  0.00  0.00    -0.392 OA
ATOM     23  H   UNL     1       2.687  -8.639  28.823  0.00  0.00    +0.210 HD
ENDBRANCH  21  22
ENDBRANCH  15  21
ENDBRANCH  11  12
ENDBRANCH   4  11
BRANCH   3  24
ATOM     24  O   UNL     1       7.264  -1.562  26.910  0.00  0.00    -0.453 OA
BRANCH  24  25
ATOM     25  C   UNL     1       6.585  -0.480  26.355  0.00  0.00    +0.214 A 
ATOM     26  C   UNL     1       7.244   0.859  26.146  0.00  0.00    +0.238 A 
ATOM     27  O   UNL     1       8.456   1.025  26.216  0.00  0.00    -0.283 OA
ATOM     28  C   UNL     1       6.383   2.001  25.814  0.00  0.00    +0.109 A 
ATOM     29  C   UNL     1       5.137   1.718  25.294  0.00  0.00    +0.147 A 
ATOM     30  C   UNL     1       4.338   2.731  24.754  0.00  0.00    +0.092 A 
ATOM     31  C   UNL     1       4.787   4.050  24.779  0.00  0.00    +0.127 A 
ATOM     32  C   UNL     1       6.003   4.350  25.400  0.00  0.00    +0.092 A 
ATOM     33  O   UNL     1       4.633   0.456  25.274  0.00  0.00    -0.451 OA
ATOM     34  C   UNL     1       6.796   3.331  25.923  0.00  0.00    +0.135 A 
ATOM     35  C   UNL     1       5.292  -0.566  25.960  0.00  0.00    +0.181 A 
BRANCH  35  36
ATOM     36  C   UNL     1       4.361  -1.724  26.082  0.00  0.00    +0.025 A 
ATOM     37  C   UNL     1       3.276  -1.587  26.986  0.00  0.00    +0.015 A 
ATOM     38  C   UNL     1       2.175  -2.443  26.950  0.00  0.00    +0.050 A 
ATOM     39  C   UNL     1       2.154  -3.453  26.012  0.00  0.00    +0.158 A 
ATOM     40  C   UNL     1       3.240  -3.655  25.161  0.00  0.00    +0.159 A 
ATOM     41  C   UNL     1       4.361  -2.817  25.205  0.00  0.00    +0.060 A 
BRANCH  39  42
ATOM     42  O   UNL     1       1.022  -4.206  25.876  0.00  0.00    -0.503 OA
ATOM     43  H   UNL     1       1.049  -4.530  24.955  0.00  0.00    +0.292 HD
ENDBRANCH  39  42
BRANCH  40  44
ATOM     44  O   UNL     1       3.121  -4.657  24.234  0.00  0.00    -0.503 OA
ATOM     45  H   UNL     1       2.231  -4.605  23.846  0.00  0.00    +0.292 HD
ENDBRANCH  40  44
ENDBRANCH  35  36
BRANCH  34  46
ATOM     46  O   UNL     1       7.959   3.648  26.564  0.00  0.00    -0.506 OA
ATOM     47  H   UNL     1       8.045   4.611  26.639  0.00  0.00    +0.292 HD
ENDBRANCH  34  46
BRANCH  31  48
ATOM     48  O   UNL     1       4.137   5.130  24.252  0.00  0.00    -0.495 OA
ATOM     49  C   UNL     1       4.524   6.412  24.731  0.00  0.00    +0.277 C 
ENDBRANCH  31  48
ENDBRANCH  24  25
ENDBRANCH   3  24
BRANCH   1  50
ATOM     50  C   UNL     1      10.049  -2.317  23.663  0.00  0.00    +0.266 C 
BRANCH  50  51
ATOM     51  O   UNL     1      10.020  -0.881  23.589  0.00  0.00    -0.462 OA
BRANCH  51  52
ATOM     52  C   UNL     1       9.512  -0.377  22.431  0.00  0.00    +0.310 C 
ATOM     53  O   UNL     1       9.833  -0.761  21.308  0.00  0.00    -0.251 OA
BRANCH  52  54
ATOM     54  C   UNL     1       8.494   0.693  22.730  0.00  0.00    +0.155 C 
BRANCH  54  56
ATOM     55  C   UNL     1       7.764   3.007  22.250  0.00  0.00    +0.042 C 
ATOM     56  C   UNL     1       9.000   2.139  22.541  0.00  0.00    +0.083 C 
BRANCH  56  57
ATOM     57  O   UNL     1       9.838   2.167  21.385  0.00  0.00    -0.388 OA
ATOM     58  H   UNL     1       9.757   1.301  20.933  0.00  0.00    +0.210 HD
ENDBRANCH  56  57
BRANCH  56  59
ATOM     59  C   UNL     1       9.801   2.624  23.767  0.00  0.00    +0.155 C 
BRANCH  59  60
ATOM     60  C   UNL     1      10.137   4.099  23.752  0.00  0.00    +0.307 C 
ATOM     61  O   UNL     1       9.573   4.958  24.410  0.00  0.00    -0.251 OA
BRANCH  60  62
ATOM     62  O   UNL     1      11.139   4.391  22.891  0.00  0.00    -0.481 OA
ATOM     63  H   UNL     1      11.144   5.317  22.578  0.00  0.00    +0.295 HD
ENDBRANCH  60  62
ENDBRANCH  59  60
ENDBRANCH  56  59
ENDBRANCH  54  56
ENDBRANCH  52  54
ENDBRANCH  51  52
ENDBRANCH  50  51
ENDBRANCH   1  50
TORSDOF 24
ENDMDL
MODEL 5
REMARK VINA RESULT:      -6.8      2.388      6.265
REMARK  Name = 
REMARK  26 active torsions:
REMARK  status: ('A' for Active; 'I' for Inactive)
REMARK    1  A    between atoms: C_1  and  C_2
REMARK    2  A    between atoms: C_2  and  C_3
REMARK    3  A    between atoms: C_2  and  C_7
REMARK    4  A    between atoms: C_2  and  O_58
REMARK    5  A    between atoms: C_3  and  C_4
REMARK    6  A    between atoms: C_4  and  O_6
REMARK    7  A    between atoms: C_7  and  C_8
REMARK    8  A    between atoms: C_8  and  O_10
REMARK    9  A    between atoms: O_10  and  C_11
REMARK   10  A    between atoms: C_11  and  C_12
REMARK   11  A    between atoms: C_13  and  O_57
REMARK   12  A    between atoms: C_15  and  O_56
REMARK   13  A    between atoms: C_17  and  O_44
REMARK   14  A    between atoms: C_18  and  O_21
REMARK   15  A    between atoms: O_21  and  C_22
REMARK   16  A    between atoms: C_23  and  C_36
REMARK   17  A    between atoms: C_27  and  O_34
REMARK   18  A    between atoms: C_29  and  O_33
REMARK   19  A    between atoms: O_34  and  C_35
REMARK   20  A    between atoms: C_38  and  O_43
REMARK   21  A    between atoms: C_39  and  O_42
REMARK   22  A    between atoms: O_44  and  C_45
REMARK   23  A    between atoms: C_47  and  O_55
REMARK   24  A    between atoms: C_49  and  C_52
REMARK   25  A    between atoms: C_49  and  O_54
REMARK   26  A    between atoms: C_52  and  O_53
REMARK                            x       y       z     vdW  Elec       q    Type
REMARK                         _______ _______ _______ _____ _____    ______ ____
ROOT
ATOM      1  C   UNL     1       5.194  -1.710  26.028  0.00  0.00    +0.191 C 
ATOM      2  O   UNL     1       5.441  -0.777  24.953  0.00  0.00    -0.330 OA
ATOM      3  C   UNL     1       5.984   0.495  25.377  0.00  0.00    +0.340 C 
ATOM      4  C   UNL     1       5.000   1.219  26.359  0.00  0.00    +0.221 C 
ATOM      5  C   UNL     1       4.717   0.258  27.528  0.00  0.00    +0.180 C 
ATOM      6  C   UNL     1       4.197  -1.103  27.026  0.00  0.00    +0.178 C 
ENDROOT
BRANCH   6   7
ATOM      7  O   UNL     1       2.921  -0.929  26.399  0.00  0.00    -0.386 OA
ATOM      8  H   UNL     1       2.742   0.035  26.350  0.00  0.00    +0.210 HD
ENDBRANCH   6   7
BRANCH   5   9
ATOM      9  O   UNL     1       3.846   0.845  28.499  0.00  0.00    -0.386 OA
ATOM     10  H   UNL     1       3.853   1.813  28.358  0.00  0.00    +0.210 HD
ENDBRANCH   5   9
BRANCH   4  11
ATOM     11  O   UNL     1       3.842   1.594  25.585  0.00  0.00    -0.337 OA
BRANCH  11  12
ATOM     12  C   UNL     1       3.527   2.970  25.429  0.00  0.00    +0.282 C 
ATOM     13  O   UNL     1       2.120   3.145  25.716  0.00  0.00    -0.346 OA
ATOM     14  C   UNL     1       1.539   3.912  24.647  0.00  0.00    +0.202 C 
ATOM     15  C   UNL     1       2.698   4.666  23.997  0.00  0.00    +0.142 C 
ATOM     16  C   UNL     1       3.786   3.588  24.034  0.00  0.00    +0.206 C 
BRANCH  16  17
ATOM     17  O   UNL     1       3.603   2.665  22.949  0.00  0.00    -0.384 OA
ATOM     18  H   UNL     1       2.649   2.633  22.768  0.00  0.00    +0.210 HD
ENDBRANCH  16  17
BRANCH  15  19
ATOM     19  O   UNL     1       3.106   5.781  24.813  0.00  0.00    -0.381 OA
ATOM     20  H   UNL     1       3.265   5.456  25.719  0.00  0.00    +0.210 HD
ENDBRANCH  15  19
BRANCH  15  21
ATOM     21  C   UNL     1       2.334   5.196  22.605  0.00  0.00    +0.195 C 
BRANCH  21  22
ATOM     22  O   UNL     1       3.438   5.249  21.709  0.00  0.00    -0.392 OA
ATOM     23  H   UNL     1       4.231   5.021  22.240  0.00  0.00    +0.210 HD
ENDBRANCH  21  22
ENDBRANCH  15  21
ENDBRANCH  11  12
ENDBRANCH   4  11
BRANCH   3  24
ATOM     24  O   UNL     1       6.253   1.315  24.216  0.00  0.00    -0.453 OA
BRANCH  24  25
ATOM     25  C   UNL     1       7.492   1.938  24.091  0.00  0.00    +0.214 A 
ATOM     26  C   UNL     1       7.670   3.420  24.302  0.00  0.00    +0.238 A 
ATOM     27  O   UNL     1       6.816   4.127  24.824  0.00  0.00    -0.283 OA
ATOM     28  C   UNL     1       8.942   4.023  23.885  0.00  0.00    +0.109 A 
ATOM     29  C   UNL     1      10.023   3.176  23.747  0.00  0.00    +0.147 A 
ATOM     30  C   UNL     1      11.313   3.684  23.563  0.00  0.00    +0.092 A 
ATOM     31  C   UNL     1      11.505   5.061  23.477  0.00  0.00    +0.127 A 
ATOM     32  C   UNL     1      10.398   5.913  23.512  0.00  0.00    +0.092 A 
ATOM     33  O   UNL     1       9.890   1.823  23.789  0.00  0.00    -0.451 OA
ATOM     34  C   UNL     1       9.119   5.397  23.708  0.00  0.00    +0.135 A 
ATOM     35  C   UNL     1       8.618   1.250  23.782  0.00  0.00    +0.181 A 
BRANCH  35  36
ATOM     36  C   UNL     1       8.759  -0.200  23.464  0.00  0.00    +0.025 A 
ATOM     37  C   UNL     1       9.636  -0.957  24.282  0.00  0.00    +0.015 A 
ATOM     38  C   UNL     1       9.607  -2.351  24.301  0.00  0.00    +0.050 A 
ATOM     39  C   UNL     1       8.701  -3.003  23.490  0.00  0.00    +0.158 A 
ATOM     40  C   UNL     1       7.879  -2.285  22.623  0.00  0.00    +0.159 A 
ATOM     41  C   UNL     1       7.918  -0.886  22.578  0.00  0.00    +0.060 A 
BRANCH  39  42
ATOM     42  O   UNL     1       8.568  -4.358  23.604  0.00  0.00    -0.503 OA
ATOM     43  H   UNL     1       7.643  -4.492  23.890  0.00  0.00    +0.292 HD
ENDBRANCH  39  42
BRANCH  40  44
ATOM     44  O   UNL     1       6.983  -3.008  21.880  0.00  0.00    -0.503 OA
ATOM     45  H   UNL     1       6.590  -2.414  21.218  0.00  0.00    +0.292 HD
ENDBRANCH  40  44
ENDBRANCH  35  36
BRANCH  34  46
ATOM     46  O   UNL     1       8.047   6.241  23.697  0.00  0.00    -0.506 OA
ATOM     47  H   UNL     1       8.118   6.880  24.422  0.00  0.00    +0.292 HD
ENDBRANCH  34  46
BRANCH  31  48
ATOM     48  O   UNL     1      12.707   5.698  23.344  0.00  0.00    -0.495 OA
ATOM     49  C   UNL     1      13.342   5.619  22.073  0.00  0.00    +0.277 C 
ENDBRANCH  31  48
ENDBRANCH  24  25
ENDBRANCH   3  24
BRANCH   1  50
ATOM     50  C   UNL     1       6.475  -2.206  26.752  0.00  0.00    +0.266 C 
BRANCH  50  51
ATOM     51  O   UNL     1       6.998  -3.401  26.147  0.00  0.00    -0.462 OA
BRANCH  51  52
ATOM     52  C   UNL     1       6.803  -4.540  26.866  0.00  0.00    +0.310 C 
ATOM     53  O   UNL     1       7.686  -5.124  27.492  0.00  0.00    -0.251 OA
BRANCH  52  54
ATOM     54  C   UNL     1       5.358  -4.960  26.798  0.00  0.00    +0.155 C 
BRANCH  54  56
ATOM     55  C   UNL     1       4.511  -7.122  25.949  0.00  0.00    +0.042 C 
ATOM     56  C   UNL     1       4.962  -5.719  25.514  0.00  0.00    +0.083 C 
BRANCH  56  57
ATOM     57  O   UNL     1       6.132  -5.863  24.708  0.00  0.00    -0.388 OA
ATOM     58  H   UNL     1       6.701  -6.545  25.122  0.00  0.00    +0.210 HD
ENDBRANCH  56  57
BRANCH  56  59
ATOM     59  C   UNL     1       3.882  -4.959  24.717  0.00  0.00    +0.155 C 
BRANCH  59  60
ATOM     60  C   UNL     1       4.119  -4.916  23.224  0.00  0.00    +0.307 C 
ATOM     61  O   UNL     1       4.555  -3.959  22.605  0.00  0.00    -0.251 OA
BRANCH  60  62
ATOM     62  O   UNL     1       3.763  -6.069  22.611  0.00  0.00    -0.481 OA
ATOM     63  H   UNL     1       3.877  -6.869  23.160  0.00  0.00    +0.295 HD
ENDBRANCH  60  62
ENDBRANCH  59  60
ENDBRANCH  56  59
ENDBRANCH  54  56
ENDBRANCH  52  54
ENDBRANCH  51  52
ENDBRANCH  50  51
ENDBRANCH   1  50
TORSDOF 24
ENDMDL
MODEL 6
REMARK VINA RESULT:      -6.7      2.558      7.328
REMARK  Name = 
REMARK  26 active torsions:
REMARK  status: ('A' for Active; 'I' for Inactive)
REMARK    1  A    between atoms: C_1  and  C_2
REMARK    2  A    between atoms: C_2  and  C_3
REMARK    3  A    between atoms: C_2  and  C_7
REMARK    4  A    between atoms: C_2  and  O_58
REMARK    5  A    between atoms: C_3  and  C_4
REMARK    6  A    between atoms: C_4  and  O_6
REMARK    7  A    between atoms: C_7  and  C_8
REMARK    8  A    between atoms: C_8  and  O_10
REMARK    9  A    between atoms: O_10  and  C_11
REMARK   10  A    between atoms: C_11  and  C_12
REMARK   11  A    between atoms: C_13  and  O_57
REMARK   12  A    between atoms: C_15  and  O_56
REMARK   13  A    between atoms: C_17  and  O_44
REMARK   14  A    between atoms: C_18  and  O_21
REMARK   15  A    between atoms: O_21  and  C_22
REMARK   16  A    between atoms: C_23  and  C_36
REMARK   17  A    between atoms: C_27  and  O_34
REMARK   18  A    between atoms: C_29  and  O_33
REMARK   19  A    between atoms: O_34  and  C_35
REMARK   20  A    between atoms: C_38  and  O_43
REMARK   21  A    between atoms: C_39  and  O_42
REMARK   22  A    between atoms: O_44  and  C_45
REMARK   23  A    between atoms: C_47  and  O_55
REMARK   24  A    between atoms: C_49  and  C_52
REMARK   25  A    between atoms: C_49  and  O_54
REMARK   26  A    between atoms: C_52  and  O_53
REMARK                            x       y       z     vdW  Elec       q    Type
REMARK                         _______ _______ _______ _____ _____    ______ ____
ROOT
ATOM      1  C   UNL     1       8.672   1.124  21.936  0.00  0.00    +0.191 C 
ATOM      2  O   UNL     1       7.458   0.543  22.463  0.00  0.00    -0.330 OA
ATOM      3  C   UNL     1       7.641  -0.227  23.674  0.00  0.00    +0.340 C 
ATOM      4  C   UNL     1       8.622  -1.424  23.430  0.00  0.00    +0.221 C 
ATOM      5  C   UNL     1       9.935  -0.843  22.873  0.00  0.00    +0.180 C 
ATOM      6  C   UNL     1       9.685   0.015  21.618  0.00  0.00    +0.178 C 
ENDROOT
BRANCH   6   7
ATOM      7  O   UNL     1       9.192  -0.812  20.559  0.00  0.00    -0.386 OA
ATOM      8  H   UNL     1       9.037  -1.709  20.928  0.00  0.00    +0.210 HD
ENDBRANCH   6   7
BRANCH   5   9
ATOM      9  O   UNL     1      10.912  -1.865  22.644  0.00  0.00    -0.386 OA
ATOM     10  H   UNL     1      10.649  -2.352  21.838  0.00  0.00    +0.210 HD
ENDBRANCH   5   9
BRANCH   4  11
ATOM     11  O   UNL     1       7.943  -2.344  22.551  0.00  0.00    -0.337 OA
BRANCH  11  12
ATOM     12  C   UNL     1       7.494  -3.591  23.064  0.00  0.00    +0.282 C 
ATOM     13  O   UNL     1       7.981  -4.638  22.192  0.00  0.00    -0.346 OA
ATOM     14  C   UNL     1       6.877  -5.499  21.871  0.00  0.00    +0.202 C 
ATOM     15  C   UNL     1       5.849  -5.294  22.983  0.00  0.00    +0.142 C 
ATOM     16  C   UNL     1       5.964  -3.780  23.189  0.00  0.00    +0.206 C 
BRANCH  16  17
ATOM     17  O   UNL     1       5.210  -3.086  22.182  0.00  0.00    -0.384 OA
ATOM     18  H   UNL     1       5.357  -2.136  22.329  0.00  0.00    +0.210 HD
ENDBRANCH  16  17
BRANCH  15  19
ATOM     19  O   UNL     1       6.256  -5.970  24.188  0.00  0.00    -0.381 OA
ATOM     20  H   UNL     1       7.209  -5.812  24.321  0.00  0.00    +0.210 HD
ENDBRANCH  15  19
BRANCH  15  21
ATOM     21  C   UNL     1       4.460  -5.808  22.587  0.00  0.00    +0.195 C 
BRANCH  21  22
ATOM     22  O   UNL     1       3.401  -4.940  22.975  0.00  0.00    -0.392 OA
ATOM     23  H   UNL     1       2.569  -5.396  22.726  0.00  0.00    +0.210 HD
ENDBRANCH  21  22
ENDBRANCH  15  21
ENDBRANCH  11  12
ENDBRANCH   4  11
BRANCH   3  24
ATOM     24  O   UNL     1       6.357  -0.698  24.144  0.00  0.00    -0.453 OA
BRANCH  24  25
ATOM     25  C   UNL     1       5.782  -0.110  25.268  0.00  0.00    +0.214 A 
ATOM     26  C   UNL     1       5.127   1.247  25.217  0.00  0.00    +0.238 A 
ATOM     27  O   UNL     1       4.840   1.812  24.168  0.00  0.00    -0.283 OA
ATOM     28  C   UNL     1       4.797   1.896  26.492  0.00  0.00    +0.109 A 
ATOM     29  C   UNL     1       4.693   1.082  27.602  0.00  0.00    +0.147 A 
ATOM     30  C   UNL     1       4.179   1.573  28.806  0.00  0.00    +0.092 A 
ATOM     31  C   UNL     1       3.804   2.912  28.900  0.00  0.00    +0.127 A 
ATOM     32  C   UNL     1       4.006   3.760  27.808  0.00  0.00    +0.092 A 
ATOM     33  O   UNL     1       5.075  -0.223  27.579  0.00  0.00    -0.451 OA
ATOM     34  C   UNL     1       4.508   3.257  26.610  0.00  0.00    +0.135 A 
ATOM     35  C   UNL     1       5.766  -0.725  26.475  0.00  0.00    +0.181 A 
BRANCH  35  36
ATOM     36  C   UNL     1       6.371  -2.032  26.856  0.00  0.00    +0.025 A 
ATOM     37  C   UNL     1       5.482  -3.064  27.252  0.00  0.00    +0.015 A 
ATOM     38  C   UNL     1       5.883  -4.399  27.312  0.00  0.00    +0.050 A 
ATOM     39  C   UNL     1       7.186  -4.712  26.986  0.00  0.00    +0.158 A 
ATOM     40  C   UNL     1       8.099  -3.709  26.665  0.00  0.00    +0.159 A 
ATOM     41  C   UNL     1       7.714  -2.363  26.626  0.00  0.00    +0.060 A 
BRANCH  39  42
ATOM     42  O   UNL     1       7.549  -6.028  26.906  0.00  0.00    -0.503 OA
ATOM     43  H   UNL     1       8.184  -6.064  26.164  0.00  0.00    +0.292 HD
ENDBRANCH  39  42
BRANCH  40  44
ATOM     44  O   UNL     1       9.362  -4.110  26.317  0.00  0.00    -0.503 OA
ATOM     45  H   UNL     1       9.650  -3.576  25.557  0.00  0.00    +0.292 HD
ENDBRANCH  40  44
ENDBRANCH  35  36
BRANCH  34  46
ATOM     46  O   UNL     1       4.739   4.109  25.569  0.00  0.00    -0.506 OA
ATOM     47  H   UNL     1       5.641   3.990  25.235  0.00  0.00    +0.292 HD
ENDBRANCH  34  46
BRANCH  31  48
ATOM     48  O   UNL     1       3.247   3.516  29.992  0.00  0.00    -0.495 OA
ATOM     49  C   UNL     1       2.553   4.737  29.770  0.00  0.00    +0.277 C 
ENDBRANCH  31  48
ENDBRANCH  24  25
ENDBRANCH   3  24
BRANCH   1  50
ATOM     50  C   UNL     1       9.304   2.216  22.840  0.00  0.00    +0.266 C 
BRANCH  50  51
ATOM     51  O   UNL     1       8.609   3.470  22.724  0.00  0.00    -0.462 OA
BRANCH  51  52
ATOM     52  C   UNL     1       8.328   4.082  23.907  0.00  0.00    +0.310 C 
ATOM     53  O   UNL     1       7.194   4.223  24.361  0.00  0.00    -0.251 OA
BRANCH  52  54
ATOM     54  C   UNL     1       9.600   4.532  24.577  0.00  0.00    +0.155 C 
BRANCH  54  56
ATOM     55  C   UNL     1       9.341   6.969  24.910  0.00  0.00    +0.042 C 
ATOM     56  C   UNL     1      10.123   5.910  24.117  0.00  0.00    +0.083 C 
BRANCH  56  57
ATOM     57  O   UNL     1       9.797   6.066  22.735  0.00  0.00    -0.388 OA
ATOM     58  H   UNL     1       8.906   6.471  22.679  0.00  0.00    +0.210 HD
ENDBRANCH  56  57
BRANCH  56  59
ATOM     59  C   UNL     1      11.650   6.025  24.300  0.00  0.00    +0.155 C 
BRANCH  59  60
ATOM     60  C   UNL     1      12.459   5.113  23.405  0.00  0.00    +0.307 C 
ATOM     61  O   UNL     1      11.999   4.245  22.681  0.00  0.00    -0.251 OA
BRANCH  60  62
ATOM     62  O   UNL     1      13.790   5.337  23.505  0.00  0.00    -0.481 OA
ATOM     63  H   UNL     1      14.347   4.616  23.156  0.00  0.00    +0.295 HD
ENDBRANCH  60  62
ENDBRANCH  59  60
ENDBRANCH  56  59
ENDBRANCH  54  56
ENDBRANCH  52  54
ENDBRANCH  51  52
ENDBRANCH  50  51
ENDBRANCH   1  50
TORSDOF 24
ENDMDL
MODEL 7
REMARK VINA RESULT:      -6.4      2.089      5.342
REMARK  Name = 
REMARK  26 active torsions:
REMARK  status: ('A' for Active; 'I' for Inactive)
REMARK    1  A    between atoms: C_1  and  C_2
REMARK    2  A    between atoms: C_2  and  C_3
REMARK    3  A    between atoms: C_2  and  C_7
REMARK    4  A    between atoms: C_2  and  O_58
REMARK    5  A    between atoms: C_3  and  C_4
REMARK    6  A    between atoms: C_4  and  O_6
REMARK    7  A    between atoms: C_7  and  C_8
REMARK    8  A    between atoms: C_8  and  O_10
REMARK    9  A    between atoms: O_10  and  C_11
REMARK   10  A    between atoms: C_11  and  C_12
REMARK   11  A    between atoms: C_13  and  O_57
REMARK   12  A    between atoms: C_15  and  O_56
REMARK   13  A    between atoms: C_17  and  O_44
REMARK   14  A    between atoms: C_18  and  O_21
REMARK   15  A    between atoms: O_21  and  C_22
REMARK   16  A    between atoms: C_23  and  C_36
REMARK   17  A    between atoms: C_27  and  O_34
REMARK   18  A    between atoms: C_29  and  O_33
REMARK   19  A    between atoms: O_34  and  C_35
REMARK   20  A    between atoms: C_38  and  O_43
REMARK   21  A    between atoms: C_39  and  O_42
REMARK   22  A    between atoms: O_44  and  C_45
REMARK   23  A    between atoms: C_47  and  O_55
REMARK   24  A    between atoms: C_49  and  C_52
REMARK   25  A    between atoms: C_49  and  O_54
REMARK   26  A    between atoms: C_52  and  O_53
REMARK                            x       y       z     vdW  Elec       q    Type
REMARK                         _______ _______ _______ _____ _____    ______ ____
ROOT
ATOM      1  C   UNL     1       4.523   0.108  27.923  0.00  0.00    +0.191 C 
ATOM      2  O   UNL     1       4.263  -0.381  26.589  0.00  0.00    -0.330 OA
ATOM      3  C   UNL     1       5.199  -1.382  26.127  0.00  0.00    +0.340 C 
ATOM      4  C   UNL     1       6.657  -0.810  26.099  0.00  0.00    +0.221 C 
ATOM      5  C   UNL     1       6.977  -0.283  27.511  0.00  0.00    +0.180 C 
ATOM      6  C   UNL     1       5.923   0.736  27.985  0.00  0.00    +0.178 C 
ENDROOT
BRANCH   6   7
ATOM      7  O   UNL     1       5.974   1.902  27.156  0.00  0.00    -0.386 OA
ATOM      8  H   UNL     1       5.911   1.607  26.222  0.00  0.00    +0.210 HD
ENDBRANCH   6   7
BRANCH   5   9
ATOM      9  O   UNL     1       8.308   0.236  27.594  0.00  0.00    -0.386 OA
ATOM     10  H   UNL     1       8.445   0.828  26.829  0.00  0.00    +0.210 HD
ENDBRANCH   5   9
BRANCH   4  11
ATOM     11  O   UNL     1       6.693   0.186  25.056  0.00  0.00    -0.337 OA
BRANCH  11  12
ATOM     12  C   UNL     1       7.828   0.256  24.204  0.00  0.00    +0.282 C 
ATOM     13  O   UNL     1       8.934  -0.394  24.874  0.00  0.00    -0.346 OA
ATOM     14  C   UNL     1      10.070   0.484  24.811  0.00  0.00    +0.202 C 
ATOM     15  C   UNL     1       9.810   1.421  23.631  0.00  0.00    +0.142 C 
ATOM     16  C   UNL     1       8.309   1.671  23.803  0.00  0.00    +0.206 C 
BRANCH  16  17
ATOM     17  O   UNL     1       8.086   2.667  24.814  0.00  0.00    -0.384 OA
ATOM     18  H   UNL     1       7.246   3.103  24.596  0.00  0.00    +0.210 HD
ENDBRANCH  16  17
BRANCH  15  19
ATOM     19  O   UNL     1      10.040   0.744  22.380  0.00  0.00    -0.381 OA
ATOM     20  H   UNL     1       9.963   1.398  21.660  0.00  0.00    +0.210 HD
ENDBRANCH  15  19
BRANCH  15  21
ATOM     21  C   UNL     1      10.702   2.667  23.676  0.00  0.00    +0.195 C 
BRANCH  21  22
ATOM     22  O   UNL     1      10.175   3.770  22.948  0.00  0.00    -0.392 OA
ATOM     23  H   UNL     1      10.908   4.104  22.389  0.00  0.00    +0.210 HD
ENDBRANCH  21  22
ENDBRANCH  15  21
ENDBRANCH  11  12
ENDBRANCH   4  11
BRANCH   3  24
ATOM     24  O   UNL     1       4.800  -1.845  24.816  0.00  0.00    -0.453 OA
BRANCH  24  25
ATOM     25  C   UNL     1       4.427  -3.176  24.644  0.00  0.00    +0.214 A 
ATOM     26  C   UNL     1       3.071  -3.689  25.059  0.00  0.00    +0.238 A 
ATOM     27  O   UNL     1       2.135  -2.950  25.341  0.00  0.00    -0.283 OA
ATOM     28  C   UNL     1       2.870  -5.143  25.091  0.00  0.00    +0.109 A 
ATOM     29  C   UNL     1       3.740  -5.914  24.347  0.00  0.00    +0.147 A 
ATOM     30  C   UNL     1       3.499  -7.276  24.147  0.00  0.00    +0.092 A 
ATOM     31  C   UNL     1       2.389  -7.874  24.741  0.00  0.00    +0.127 A 
ATOM     32  C   UNL     1       1.567  -7.117  25.579  0.00  0.00    +0.092 A 
ATOM     33  O   UNL     1       4.857  -5.392  23.773  0.00  0.00    -0.451 OA
ATOM     34  C   UNL     1       1.810  -5.757  25.761  0.00  0.00    +0.135 A 
ATOM     35  C   UNL     1       5.255  -4.091  24.085  0.00  0.00    +0.181 A 
BRANCH  35  36
ATOM     36  C   UNL     1       6.662  -3.909  23.627  0.00  0.00    +0.025 A 
ATOM     37  C   UNL     1       6.876  -3.032  22.533  0.00  0.00    +0.015 A 
ATOM     38  C   UNL     1       8.141  -2.531  22.227  0.00  0.00    +0.050 A 
ATOM     39  C   UNL     1       9.209  -2.913  23.012  0.00  0.00    +0.158 A 
ATOM     40  C   UNL     1       9.038  -3.831  24.048  0.00  0.00    +0.159 A 
ATOM     41  C   UNL     1       7.777  -4.359  24.347  0.00  0.00    +0.060 A 
BRANCH  39  42
ATOM     42  O   UNL     1      10.424  -2.320  22.809  0.00  0.00    -0.503 OA
ATOM     43  H   UNL     1      10.227  -1.365  22.752  0.00  0.00    +0.292 HD
ENDBRANCH  39  42
BRANCH  40  44
ATOM     44  O   UNL     1      10.144  -4.127  24.801  0.00  0.00    -0.503 OA
ATOM     45  H   UNL     1      10.586  -3.291  25.029  0.00  0.00    +0.292 HD
ENDBRANCH  40  44
ENDBRANCH  35  36
BRANCH  34  46
ATOM     46  O   UNL     1       1.021  -5.044  26.617  0.00  0.00    -0.506 OA
ATOM     47  H   UNL     1       0.410  -5.637  27.079  0.00  0.00    +0.292 HD
ENDBRANCH  34  46
BRANCH  31  48
ATOM     48  O   UNL     1       2.006  -9.178  24.597  0.00  0.00    -0.495 OA
ATOM     49  C   UNL     1       0.995  -9.654  25.478  0.00  0.00    +0.277 C 
ENDBRANCH  31  48
ENDBRANCH  24  25
ENDBRANCH   3  24
BRANCH   1  50
ATOM     50  C   UNL     1       4.337  -0.952  29.042  0.00  0.00    +0.266 C 
BRANCH  50  51
ATOM     51  O   UNL     1       4.034  -2.249  28.499  0.00  0.00    -0.462 OA
BRANCH  51  52
ATOM     52  C   UNL     1       3.436  -3.109  29.369  0.00  0.00    +0.310 C 
ATOM     53  O   UNL     1       3.028  -2.793  30.485  0.00  0.00    -0.251 OA
BRANCH  52  54
ATOM     54  C   UNL     1       3.330  -4.482  28.756  0.00  0.00    +0.155 C 
BRANCH  54  56
ATOM     55  C   UNL     1       3.593  -6.574  30.047  0.00  0.00    +0.042 C 
ATOM     56  C   UNL     1       4.369  -5.502  29.267  0.00  0.00    +0.083 C 
BRANCH  56  57
ATOM     57  O   UNL     1       5.233  -4.830  30.185  0.00  0.00    -0.388 OA
ATOM     58  H   UNL     1       6.070  -5.339  30.239  0.00  0.00    +0.210 HD
ENDBRANCH  56  57
BRANCH  56  59
ATOM     59  C   UNL     1       5.205  -6.086  28.109  0.00  0.00    +0.155 C 
BRANCH  59  60
ATOM     60  C   UNL     1       6.572  -6.591  28.517  0.00  0.00    +0.307 C 
ATOM     61  O   UNL     1       6.786  -7.440  29.367  0.00  0.00    -0.251 OA
BRANCH  60  62
ATOM     62  O   UNL     1       7.572  -5.973  27.847  0.00  0.00    -0.481 OA
ATOM     63  H   UNL     1       7.390  -5.824  26.899  0.00  0.00    +0.295 HD
ENDBRANCH  60  62
ENDBRANCH  59  60
ENDBRANCH  56  59
ENDBRANCH  54  56
ENDBRANCH  52  54
ENDBRANCH  51  52
ENDBRANCH  50  51
ENDBRANCH   1  50
TORSDOF 24
ENDMDL
MODEL 8
REMARK VINA RESULT:      -6.3      2.170      8.030
REMARK  Name = 
REMARK  26 active torsions:
REMARK  status: ('A' for Active; 'I' for Inactive)
REMARK    1  A    between atoms: C_1  and  C_2
REMARK    2  A    between atoms: C_2  and  C_3
REMARK    3  A    between atoms: C_2  and  C_7
REMARK    4  A    between atoms: C_2  and  O_58
REMARK    5  A    between atoms: C_3  and  C_4
REMARK    6  A    between atoms: C_4  and  O_6
REMARK    7  A    between atoms: C_7  and  C_8
REMARK    8  A    between atoms: C_8  and  O_10
REMARK    9  A    between atoms: O_10  and  C_11
REMARK   10  A    between atoms: C_11  and  C_12
REMARK   11  A    between atoms: C_13  and  O_57
REMARK   12  A    between atoms: C_15  and  O_56
REMARK   13  A    between atoms: C_17  and  O_44
REMARK   14  A    between atoms: C_18  and  O_21
REMARK   15  A    between atoms: O_21  and  C_22
REMARK   16  A    between atoms: C_23  and  C_36
REMARK   17  A    between atoms: C_27  and  O_34
REMARK   18  A    between atoms: C_29  and  O_33
REMARK   19  A    between atoms: O_34  and  C_35
REMARK   20  A    between atoms: C_38  and  O_43
REMARK   21  A    between atoms: C_39  and  O_42
REMARK   22  A    between atoms: O_44  and  C_45
REMARK   23  A    between atoms: C_47  and  O_55
REMARK   24  A    between atoms: C_49  and  C_52
REMARK   25  A    between atoms: C_49  and  O_54
REMARK   26  A    between atoms: C_52  and  O_53
REMARK                            x       y       z     vdW  Elec       q    Type
REMARK                         _______ _______ _______ _____ _____    ______ ____
ROOT
ATOM      1  C   UNL     1       4.272  -1.006  28.419  0.00  0.00    +0.191 C 
ATOM      2  O   UNL     1       4.950  -1.110  27.147  0.00  0.00    -0.330 OA
ATOM      3  C   UNL     1       4.094  -1.483  26.042  0.00  0.00    +0.340 C 
ATOM      4  C   UNL     1       3.438  -2.883  26.296  0.00  0.00    +0.221 C 
ATOM      5  C   UNL     1       2.695  -2.811  27.643  0.00  0.00    +0.180 C 
ATOM      6  C   UNL     1       3.631  -2.354  28.779  0.00  0.00    +0.178 C 
ENDROOT
BRANCH   6   7
ATOM      7  O   UNL     1       4.648  -3.340  28.991  0.00  0.00    -0.386 OA
ATOM      8  H   UNL     1       4.781  -3.427  29.960  0.00  0.00    +0.210 HD
ENDBRANCH   6   7
BRANCH   5   9
ATOM      9  O   UNL     1       2.033  -4.042  27.950  0.00  0.00    -0.386 OA
ATOM     10  H   UNL     1       2.689  -4.637  28.365  0.00  0.00    +0.210 HD
ENDBRANCH   5   9
BRANCH   4  11
ATOM     11  O   UNL     1       4.499  -3.857  26.237  0.00  0.00    -0.337 OA
BRANCH  11  12
ATOM     12  C   UNL     1       4.472  -4.853  25.224  0.00  0.00    +0.282 C 
ATOM     13  O   UNL     1       3.580  -4.404  24.177  0.00  0.00    -0.346 OA
ATOM     14  C   UNL     1       2.676  -5.479  23.871  0.00  0.00    +0.202 C 
ATOM     15  C   UNL     1       3.372  -6.756  24.341  0.00  0.00    +0.142 C 
ATOM     16  C   UNL     1       4.000  -6.264  25.648  0.00  0.00    +0.206 C 
BRANCH  16  17
ATOM     17  O   UNL     1       3.017  -6.255  26.696  0.00  0.00    -0.384 OA
ATOM     18  H   UNL     1       2.241  -6.731  26.354  0.00  0.00    +0.210 HD
ENDBRANCH  16  17
BRANCH  15  19
ATOM     19  O   UNL     1       4.416  -7.137  23.425  0.00  0.00    -0.381 OA
ATOM     20  H   UNL     1       4.822  -7.962  23.749  0.00  0.00    +0.210 HD
ENDBRANCH  15  19
BRANCH  15  21
ATOM     21  C   UNL     1       2.394  -7.930  24.473  0.00  0.00    +0.195 C 
BRANCH  21  22
ATOM     22  O   UNL     1       2.820  -8.922  25.400  0.00  0.00    -0.392 OA
ATOM     23  H   UNL     1       2.008  -9.392  25.689  0.00  0.00    +0.210 HD
ENDBRANCH  21  22
ENDBRANCH  15  21
ENDBRANCH  11  12
ENDBRANCH   4  11
BRANCH   3  24
ATOM     24  O   UNL     1       4.864  -1.487  24.817  0.00  0.00    -0.453 OA
BRANCH  24  25
ATOM     25  C   UNL     1       6.005  -0.695  24.723  0.00  0.00    +0.214 A 
ATOM     26  C   UNL     1       5.933   0.790  24.475  0.00  0.00    +0.238 A 
ATOM     27  O   UNL     1       4.896   1.435  24.580  0.00  0.00    -0.283 OA
ATOM     28  C   UNL     1       7.176   1.487  24.122  0.00  0.00    +0.109 A 
ATOM     29  C   UNL     1       8.361   0.866  24.460  0.00  0.00    +0.147 A 
ATOM     30  C   UNL     1       9.580   1.543  24.357  0.00  0.00    +0.092 A 
ATOM     31  C   UNL     1       9.605   2.847  23.869  0.00  0.00    +0.127 A 
ATOM     32  C   UNL     1       8.418   3.439  23.430  0.00  0.00    +0.092 A 
ATOM     33  O   UNL     1       8.402  -0.417  24.909  0.00  0.00    -0.451 OA
ATOM     34  C   UNL     1       7.207   2.759  23.548  0.00  0.00    +0.135 A 
ATOM     35  C   UNL     1       7.252  -1.208  24.858  0.00  0.00    +0.181 A 
BRANCH  35  36
ATOM     36  C   UNL     1       7.652  -2.630  25.054  0.00  0.00    +0.025 A 
ATOM     37  C   UNL     1       7.604  -3.476  23.917  0.00  0.00    +0.015 A 
ATOM     38  C   UNL     1       8.250  -4.712  23.890  0.00  0.00    +0.050 A 
ATOM     39  C   UNL     1       8.947  -5.117  25.010  0.00  0.00    +0.158 A 
ATOM     40  C   UNL     1       8.949  -4.337  26.166  0.00  0.00    +0.159 A 
ATOM     41  C   UNL     1       8.282  -3.107  26.212  0.00  0.00    +0.060 A 
BRANCH  39  42
ATOM     42  O   UNL     1       9.698  -6.257  24.945  0.00  0.00    -0.503 OA
ATOM     43  H   UNL     1       9.175  -6.926  25.427  0.00  0.00    +0.292 HD
ENDBRANCH  39  42
BRANCH  40  44
ATOM     44  O   UNL     1       9.696  -4.795  27.219  0.00  0.00    -0.503 OA
ATOM     45  H   UNL     1       9.178  -4.672  28.033  0.00  0.00    +0.292 HD
ENDBRANCH  40  44
ENDBRANCH  35  36
BRANCH  34  46
ATOM     46  O   UNL     1       6.065   3.336  23.074  0.00  0.00    -0.506 OA
ATOM     47  H   UNL     1       6.032   3.264  22.107  0.00  0.00    +0.292 HD
ENDBRANCH  34  46
BRANCH  31  48
ATOM     48  O   UNL     1      10.711   3.643  23.757  0.00  0.00    -0.495 OA
ATOM     49  C   UNL     1      10.497   5.049  23.762  0.00  0.00    +0.277 C 
ENDBRANCH  31  48
ENDBRANCH  24  25
ENDBRANCH   3  24
BRANCH   1  50
ATOM     50  C   UNL     1       3.234   0.145  28.499  0.00  0.00    +0.266 C 
BRANCH  50  51
ATOM     51  O   UNL     1       3.839   1.379  28.921  0.00  0.00    -0.462 OA
BRANCH  51  52
ATOM     52  C   UNL     1       3.876   2.354  27.973  0.00  0.00    +0.310 C 
ATOM     53  O   UNL     1       3.135   2.395  26.992  0.00  0.00    -0.251 OA
BRANCH  52  54
ATOM     54  C   UNL     1       4.931   3.374  28.312  0.00  0.00    +0.155 C 
BRANCH  54  56
ATOM     55  C   UNL     1       6.993   3.831  27.026  0.00  0.00    +0.042 C 
ATOM     56  C   UNL     1       6.384   2.903  28.088  0.00  0.00    +0.083 C 
BRANCH  56  57
ATOM     57  O   UNL     1       6.342   1.582  27.546  0.00  0.00    -0.388 OA
ATOM     58  H   UNL     1       7.264   1.263  27.458  0.00  0.00    +0.210 HD
ENDBRANCH  56  57
BRANCH  56  59
ATOM     59  C   UNL     1       7.185   2.890  29.407  0.00  0.00    +0.155 C 
BRANCH  59  60
ATOM     60  C   UNL     1       7.380   1.516  30.008  0.00  0.00    +0.307 C 
ATOM     61  O   UNL     1       6.497   0.821  30.485  0.00  0.00    -0.251 OA
BRANCH  60  62
ATOM     62  O   UNL     1       8.675   1.124  29.992  0.00  0.00    -0.481 OA
ATOM     63  H   UNL     1       9.125   1.253  29.135  0.00  0.00    +0.295 HD
ENDBRANCH  60  62
ENDBRANCH  59  60
ENDBRANCH  56  59
ENDBRANCH  54  56
ENDBRANCH  52  54
ENDBRANCH  51  52
ENDBRANCH  50  51
ENDBRANCH   1  50
TORSDOF 24
ENDMDL
MODEL 9
REMARK VINA RESULT:      -6.2      2.184      6.949
REMARK  Name = 
REMARK  26 active torsions:
REMARK  status: ('A' for Active; 'I' for Inactive)
REMARK    1  A    between atoms: C_1  and  C_2
REMARK    2  A    between atoms: C_2  and  C_3
REMARK    3  A    between atoms: C_2  and  C_7
REMARK    4  A    between atoms: C_2  and  O_58
REMARK    5  A    between atoms: C_3  and  C_4
REMARK    6  A    between atoms: C_4  and  O_6
REMARK    7  A    between atoms: C_7  and  C_8
REMARK    8  A    between atoms: C_8  and  O_10
REMARK    9  A    between atoms: O_10  and  C_11
REMARK   10  A    between atoms: C_11  and  C_12
REMARK   11  A    between atoms: C_13  and  O_57
REMARK   12  A    between atoms: C_15  and  O_56
REMARK   13  A    between atoms: C_17  and  O_44
REMARK   14  A    between atoms: C_18  and  O_21
REMARK   15  A    between atoms: O_21  and  C_22
REMARK   16  A    between atoms: C_23  and  C_36
REMARK   17  A    between atoms: C_27  and  O_34
REMARK   18  A    between atoms: C_29  and  O_33
REMARK   19  A    between atoms: O_34  and  C_35
REMARK   20  A    between atoms: C_38  and  O_43
REMARK   21  A    between atoms: C_39  and  O_42
REMARK   22  A    between atoms: O_44  and  C_45
REMARK   23  A    between atoms: C_47  and  O_55
REMARK   24  A    between atoms: C_49  and  C_52
REMARK   25  A    between atoms: C_49  and  O_54
REMARK   26  A    between atoms: C_52  and  O_53
REMARK                            x       y       z     vdW  Elec       q    Type
REMARK                         _______ _______ _______ _____ _____    ______ ____
ROOT
ATOM      1  C   UNL     1       9.053   0.358  22.474  0.00  0.00    +0.191 C 
ATOM      2  O   UNL     1       7.691  -0.005  22.790  0.00  0.00    -0.330 OA
ATOM      3  C   UNL     1       7.545  -0.784  24.000  0.00  0.00    +0.340 C 
ATOM      4  C   UNL     1       8.336  -2.132  23.893  0.00  0.00    +0.221 C 
ATOM      5  C   UNL     1       9.801  -1.787  23.564  0.00  0.00    +0.180 C 
ATOM      6  C   UNL     1       9.903  -0.909  22.302  0.00  0.00    +0.178 C 
ENDROOT
BRANCH   6   7
ATOM      7  O   UNL     1       9.454  -1.650  21.163  0.00  0.00    -0.386 OA
ATOM      8  H   UNL     1       9.665  -1.122  20.362  0.00  0.00    +0.210 HD
ENDBRANCH   6   7
BRANCH   5   9
ATOM      9  O   UNL     1      10.615  -2.960  23.475  0.00  0.00    -0.386 OA
ATOM     10  H   UNL     1      10.578  -3.279  22.552  0.00  0.00    +0.210 HD
ENDBRANCH   5   9
BRANCH   4  11
ATOM     11  O   UNL     1       7.662  -2.932  22.900  0.00  0.00    -0.337 OA
BRANCH  11  12
ATOM     12  C   UNL     1       7.101  -4.181  23.279  0.00  0.00    +0.282 C 
ATOM     13  O   UNL     1       7.312  -5.116  22.195  0.00  0.00    -0.346 OA
ATOM     14  C   UNL     1       6.060  -5.763  21.915  0.00  0.00    +0.202 C 
ATOM     15  C   UNL     1       5.223  -5.623  23.186  0.00  0.00    +0.142 C 
ATOM     16  C   UNL     1       5.588  -4.194  23.601  0.00  0.00    +0.206 C 
BRANCH  16  17
ATOM     17  O   UNL     1       4.825  -3.247  22.835  0.00  0.00    -0.384 OA
ATOM     18  H   UNL     1       5.437  -2.850  22.193  0.00  0.00    +0.210 HD
ENDBRANCH  16  17
BRANCH  15  19
ATOM     19  O   UNL     1       5.675  -6.542  24.200  0.00  0.00    -0.381 OA
ATOM     20  H   UNL     1       6.417  -6.129  24.679  0.00  0.00    +0.210 HD
ENDBRANCH  15  19
BRANCH  15  21
ATOM     21  C   UNL     1       3.734  -5.882  22.929  0.00  0.00    +0.195 C 
BRANCH  21  22
ATOM     22  O   UNL     1       2.872  -5.084  23.732  0.00  0.00    -0.392 OA
ATOM     23  H   UNL     1       2.085  -5.638  23.922  0.00  0.00    +0.210 HD
ENDBRANCH  21  22
ENDBRANCH  15  21
ENDBRANCH  11  12
ENDBRANCH   4  11
BRANCH   3  24
ATOM     24  O   UNL     1       6.141  -1.027  24.250  0.00  0.00    -0.453 OA
BRANCH  24  25
ATOM     25  C   UNL     1       5.500  -0.339  25.277  0.00  0.00    +0.214 A 
ATOM     26  C   UNL     1       5.095   1.107  25.145  0.00  0.00    +0.238 A 
ATOM     27  O   UNL     1       5.075   1.699  24.073  0.00  0.00    -0.283 OA
ATOM     28  C   UNL     1       4.678   1.815  26.362  0.00  0.00    +0.109 A 
ATOM     29  C   UNL     1       4.266   1.042  27.428  0.00  0.00    +0.147 A 
ATOM     30  C   UNL     1       3.656   1.625  28.543  0.00  0.00    +0.092 A 
ATOM     31  C   UNL     1       3.497   3.008  28.597  0.00  0.00    +0.127 A 
ATOM     32  C   UNL     1       4.007   3.799  27.564  0.00  0.00    +0.092 A 
ATOM     33  O   UNL     1       4.426  -0.308  27.446  0.00  0.00    -0.451 OA
ATOM     34  C   UNL     1       4.603   3.206  26.453  0.00  0.00    +0.135 A 
ATOM     35  C   UNL     1       5.191  -0.930  26.457  0.00  0.00    +0.181 A 
BRANCH  35  36
ATOM     36  C   UNL     1       5.504  -2.315  26.909  0.00  0.00    +0.025 A 
ATOM     37  C   UNL     1       4.416  -3.219  27.021  0.00  0.00    +0.015 A 
ATOM     38  C   UNL     1       4.609  -4.597  27.111  0.00  0.00    +0.050 A 
ATOM     39  C   UNL     1       5.899  -5.085  27.100  0.00  0.00    +0.158 A 
ATOM     40  C   UNL     1       6.988  -4.214  27.064  0.00  0.00    +0.159 A 
ATOM     41  C   UNL     1       6.806  -2.828  26.999  0.00  0.00    +0.060 A 
BRANCH  39  42
ATOM     42  O   UNL     1       6.095  -6.437  27.045  0.00  0.00    -0.503 OA
ATOM     43  H   UNL     1       5.488  -6.801  27.719  0.00  0.00    +0.292 HD
ENDBRANCH  39  42
BRANCH  40  44
ATOM     44  O   UNL     1       8.233  -4.784  27.018  0.00  0.00    -0.503 OA
ATOM     45  H   UNL     1       8.374  -5.270  27.848  0.00  0.00    +0.292 HD
ENDBRANCH  40  44
ENDBRANCH  35  36
BRANCH  34  46
ATOM     46  O   UNL     1       5.134   3.997  25.475  0.00  0.00    -0.506 OA
ATOM     47  H   UNL     1       4.549   4.750  25.302  0.00  0.00    +0.292 HD
ENDBRANCH  34  46
BRANCH  31  48
ATOM     48  O   UNL     1       2.882   3.708  29.597  0.00  0.00    -0.495 OA
ATOM     49  C   UNL     1       2.494   5.044  29.304  0.00  0.00    +0.277 C 
ENDBRANCH  31  48
ENDBRANCH  24  25
ENDBRANCH   3  24
BRANCH   1  50
ATOM     50  C   UNL     1       9.707   1.335  23.489  0.00  0.00    +0.266 C 
BRANCH  50  51
ATOM     51  O   UNL     1      10.447   2.374  22.825  0.00  0.00    -0.462 OA
BRANCH  51  52
ATOM     52  C   UNL     1      10.553   3.538  23.522  0.00  0.00    +0.310 C 
ATOM     53  O   UNL     1      11.512   4.305  23.448  0.00  0.00    -0.251 OA
BRANCH  52  54
ATOM     54  C   UNL     1       9.327   3.753  24.370  0.00  0.00    +0.155 C 
BRANCH  54  56
ATOM     55  C   UNL     1       9.606   6.209  24.452  0.00  0.00    +0.042 C 
ATOM     56  C   UNL     1       8.599   5.093  24.129  0.00  0.00    +0.083 C 
BRANCH  56  57
ATOM     57  O   UNL     1       7.525   5.186  25.065  0.00  0.00    -0.388 OA
ATOM     58  H   UNL     1       7.885   5.543  25.904  0.00  0.00    +0.210 HD
ENDBRANCH  56  57
BRANCH  56  59
ATOM     59  C   UNL     1       8.039   5.184  22.695  0.00  0.00    +0.155 C 
BRANCH  59  60
ATOM     60  C   UNL     1       7.003   4.134  22.360  0.00  0.00    +0.307 C 
ATOM     61  O   UNL     1       7.200   3.137  21.684  0.00  0.00    -0.251 OA
BRANCH  60  62
ATOM     62  O   UNL     1       5.785   4.427  22.873  0.00  0.00    -0.481 OA
ATOM     63  H   UNL     1       5.036   4.192  22.292  0.00  0.00    +0.295 HD
ENDBRANCH  60  62
ENDBRANCH  59  60
ENDBRANCH  56  59
ENDBRANCH  54  56
ENDBRANCH  52  54
ENDBRANCH  51  52
ENDBRANCH  50  51
ENDBRANCH   1  50
TORSDOF 24
ENDMDL
