MODEL 1
REMARK VINA RESULT:      -6.9      0.000      0.000
REMARK  Name = 
REMARK  7 active torsions:
REMARK  status: ('A' for Active; 'I' for Inactive)
REMARK    1  A    between atoms: C_1  and  O_2
REMARK    2  A    between atoms: O_2  and  C_3
REMARK    3  A    between atoms: C_4  and  O_23
REMARK    4  A    between atoms: C_7  and  C_9
REMARK    5  A    between atoms: C_10  and  O_22
REMARK    6  A    between atoms: C_14  and  O_21
REMARK    7  A    between atoms: C_16  and  O_20
REMARK                            x       y       z     vdW  Elec       q    Type
REMARK                         _______ _______ _______ _____ _____    ______ ____
ROOT
ATOM      1  C   UNL     1       6.774  -2.490  23.441  0.00  0.00    +0.181 A 
ATOM      2  O   UNL     1       7.123  -2.887  24.737  0.00  0.00    -0.451 OA
ATOM      3  C   UNL     1       6.579  -4.037  25.261  0.00  0.00    +0.147 A 
ATOM      4  C   UNL     1       5.601  -4.771  24.601  0.00  0.00    +0.109 A 
ATOM      5  C   UNL     1       5.080  -5.940  25.177  0.00  0.00    +0.135 A 
ATOM      6  C   UNL     1       5.537  -6.380  26.418  0.00  0.00    +0.091 A 
ATOM      7  C   UNL     1       6.519  -5.640  27.071  0.00  0.00    +0.124 A 
ATOM      8  C   UNL     1       5.157  -4.313  23.289  0.00  0.00    +0.238 A 
ATOM      9  O   UNL     1       4.264  -4.922  22.702  0.00  0.00    -0.283 OA
ATOM     10  C   UNL     1       7.042  -4.473  26.503  0.00  0.00    +0.092 A 
ATOM     11  C   UNL     1       5.863  -3.149  22.691  0.00  0.00    +0.208 A 
ENDROOT
BRANCH   1  14
ATOM     12  C   UNL     1       7.859   1.125  22.688  0.00  0.00    +0.162 A 
ATOM     13  C   UNL     1       7.208   0.021  23.269  0.00  0.00    +0.061 A 
ATOM     14  C   UNL     1       7.551  -1.310  22.950  0.00  0.00    +0.025 A 
ATOM     15  C   UNL     1       8.667  -1.500  22.120  0.00  0.00    +0.015 A 
ATOM     16  C   UNL     1       9.356  -0.409  21.577  0.00  0.00    +0.050 A 
ATOM     17  C   UNL     1       8.947   0.894  21.850  0.00  0.00    +0.158 A 
BRANCH  12  19
ATOM     18  C   UNL     1       6.417   2.972  22.209  0.00  0.00    +0.277 C 
ATOM     19  O   UNL     1       7.362   2.342  23.070  0.00  0.00    -0.491 OA
ENDBRANCH  12  19
BRANCH  17  20
ATOM     20  O   UNL     1       9.699   1.884  21.287  0.00  0.00    -0.503 OA
ATOM     21  H   UNL     1      10.200   1.491  20.556  0.00  0.00    +0.292 HD
ENDBRANCH  17  20
ENDBRANCH   1  14
BRANCH   5  22
ATOM     22  O   UNL     1       4.122  -6.710  24.575  0.00  0.00    -0.506 OA
ATOM     23  H   UNL     1       4.573  -7.485  24.160  0.00  0.00    +0.292 HD
ENDBRANCH   5  22
BRANCH   7  24
ATOM     24  O   UNL     1       7.001  -6.034  28.283  0.00  0.00    -0.507 OA
ATOM     25  H   UNL     1       7.113  -7.000  28.279  0.00  0.00    +0.292 HD
ENDBRANCH   7  24
BRANCH  11  26
ATOM     26  O   UNL     1       5.555  -2.872  21.372  0.00  0.00    -0.501 OA
ATOM     27  H   UNL     1       4.822  -3.449  21.101  0.00  0.00    +0.292 HD
ENDBRANCH  11  26
TORSDOF 6
ENDMDL
MODEL 2
REMARK VINA RESULT:      -6.9      1.413      2.984
REMARK  Name = 
REMARK  7 active torsions:
REMARK  status: ('A' for Active; 'I' for Inactive)
REMARK    1  A    between atoms: C_1  and  O_2
REMARK    2  A    between atoms: O_2  and  C_3
REMARK    3  A    between atoms: C_4  and  O_23
REMARK    4  A    between atoms: C_7  and  C_9
REMARK    5  A    between atoms: C_10  and  O_22
REMARK    6  A    between atoms: C_14  and  O_21
REMARK    7  A    between atoms: C_16  and  O_20
REMARK                            x       y       z     vdW  Elec       q    Type
REMARK                         _______ _______ _______ _____ _____    ______ ____
ROOT
ATOM      1  C   UNL     1       7.867  -2.403  24.111  0.00  0.00    +0.181 A 
ATOM      2  O   UNL     1       6.997  -3.099  23.265  0.00  0.00    -0.451 OA
ATOM      3  C   UNL     1       6.300  -4.180  23.753  0.00  0.00    +0.147 A 
ATOM      4  C   UNL     1       6.504  -4.689  25.029  0.00  0.00    +0.109 A 
ATOM      5  C   UNL     1       5.763  -5.792  25.481  0.00  0.00    +0.135 A 
ATOM      6  C   UNL     1       4.813  -6.391  24.657  0.00  0.00    +0.091 A 
ATOM      7  C   UNL     1       4.612  -5.872  23.380  0.00  0.00    +0.124 A 
ATOM      8  C   UNL     1       7.481  -4.031  25.890  0.00  0.00    +0.238 A 
ATOM      9  O   UNL     1       7.710  -4.487  27.009  0.00  0.00    -0.283 OA
ATOM     10  C   UNL     1       5.347  -4.773  22.923  0.00  0.00    +0.092 A 
ATOM     11  C   UNL     1       8.115  -2.785  25.385  0.00  0.00    +0.208 A 
ENDROOT
BRANCH   1  14
ATOM     12  C   UNL     1       8.498   1.280  23.190  0.00  0.00    +0.162 A 
ATOM     13  C   UNL     1       8.056   0.133  23.875  0.00  0.00    +0.061 A 
ATOM     14  C   UNL     1       8.442  -1.169  23.492  0.00  0.00    +0.025 A 
ATOM     15  C   UNL     1       9.401  -1.276  22.473  0.00  0.00    +0.015 A 
ATOM     16  C   UNL     1       9.888  -0.138  21.818  0.00  0.00    +0.050 A 
ATOM     17  C   UNL     1       9.430   1.130  22.167  0.00  0.00    +0.158 A 
BRANCH  12  19
ATOM     18  C   UNL     1       8.621   3.058  24.785  0.00  0.00    +0.277 C 
ATOM     19  O   UNL     1       7.981   2.456  23.662  0.00  0.00    -0.491 OA
ENDBRANCH  12  19
BRANCH  17  20
ATOM     20  O   UNL     1       9.984   2.172  21.482  0.00  0.00    -0.503 OA
ATOM     21  H   UNL     1      10.932   1.987  21.385  0.00  0.00    +0.292 HD
ENDBRANCH  17  20
ENDBRANCH   1  14
BRANCH   5  22
ATOM     22  O   UNL     1       5.913  -6.335  26.729  0.00  0.00    -0.506 OA
ATOM     23  H   UNL     1       5.933  -5.594  27.381  0.00  0.00    +0.292 HD
ENDBRANCH   5  22
BRANCH   7  24
ATOM     24  O   UNL     1       3.690  -6.420  22.540  0.00  0.00    -0.507 OA
ATOM     25  H   UNL     1       2.807  -6.093  22.785  0.00  0.00    +0.292 HD
ENDBRANCH   7  24
BRANCH  11  26
ATOM     26  O   UNL     1       8.877  -2.083  26.301  0.00  0.00    -0.501 OA
ATOM     27  H   UNL     1       9.633  -2.636  26.556  0.00  0.00    +0.292 HD
ENDBRANCH  11  26
TORSDOF 6
ENDMDL
MODEL 3
REMARK VINA RESULT:      -6.8      2.554      7.300
REMARK  Name = 
REMARK  7 active torsions:
REMARK  status: ('A' for Active; 'I' for Inactive)
REMARK    1  A    between atoms: C_1  and  O_2
REMARK    2  A    between atoms: O_2  and  C_3
REMARK    3  A    between atoms: C_4  and  O_23
REMARK    4  A    between atoms: C_7  and  C_9
REMARK    5  A    between atoms: C_10  and  O_22
REMARK    6  A    between atoms: C_14  and  O_21
REMARK    7  A    between atoms: C_16  and  O_20
REMARK                            x       y       z     vdW  Elec       q    Type
REMARK                         _______ _______ _______ _____ _____    ______ ____
ROOT
ATOM      1  C   UNL     1       8.377  -0.688  23.338  0.00  0.00    +0.181 A 
ATOM      2  O   UNL     1       7.893  -0.011  24.463  0.00  0.00    -0.451 OA
ATOM      3  C   UNL     1       8.150   1.333  24.605  0.00  0.00    +0.147 A 
ATOM      4  C   UNL     1       8.973   2.035  23.733  0.00  0.00    +0.109 A 
ATOM      5  C   UNL     1       9.200   3.407  23.920  0.00  0.00    +0.135 A 
ATOM      6  C   UNL     1       8.604   4.084  24.981  0.00  0.00    +0.091 A 
ATOM      7  C   UNL     1       7.778   3.374  25.849  0.00  0.00    +0.124 A 
ATOM      8  C   UNL     1       9.564   1.318  22.609  0.00  0.00    +0.238 A 
ATOM      9  O   UNL     1      10.328   1.906  21.845  0.00  0.00    -0.283 OA
ATOM     10  C   UNL     1       7.547   2.005  25.669  0.00  0.00    +0.092 A 
ATOM     11  C   UNL     1       9.156  -0.098  22.404  0.00  0.00    +0.208 A 
ENDROOT
BRANCH   1  14
ATOM     12  C   UNL     1       8.188  -4.520  23.646  0.00  0.00    +0.162 A 
ATOM     13  C   UNL     1       8.566  -3.181  23.860  0.00  0.00    +0.061 A 
ATOM     14  C   UNL     1       7.900  -2.102  23.242  0.00  0.00    +0.025 A 
ATOM     15  C   UNL     1       6.748  -2.405  22.499  0.00  0.00    +0.015 A 
ATOM     16  C   UNL     1       6.331  -3.730  22.321  0.00  0.00    +0.050 A 
ATOM     17  C   UNL     1       7.054  -4.781  22.881  0.00  0.00    +0.158 A 
BRANCH  12  19
ATOM     18  C   UNL     1       9.658  -5.026  25.463  0.00  0.00    +0.277 C 
ATOM     19  O   UNL     1       8.978  -5.440  24.281  0.00  0.00    -0.491 OA
ENDBRANCH  12  19
BRANCH  17  20
ATOM     20  O   UNL     1       6.551  -6.031  22.665  0.00  0.00    -0.503 OA
ATOM     21  H   UNL     1       6.405  -6.125  21.711  0.00  0.00    +0.292 HD
ENDBRANCH  17  20
ENDBRANCH   1  14
BRANCH   5  22
ATOM     22  O   UNL     1       9.993   4.155  23.092  0.00  0.00    -0.506 OA
ATOM     23  H   UNL     1      10.530   4.764  23.654  0.00  0.00    +0.292 HD
ENDBRANCH   5  22
BRANCH   7  24
ATOM     24  O   UNL     1       7.168   3.993  26.898  0.00  0.00    -0.507 OA
ATOM     25  H   UNL     1       6.427   3.441  27.203  0.00  0.00    +0.292 HD
ENDBRANCH   7  24
BRANCH  11  26
ATOM     26  O   UNL     1       9.576  -0.679  21.222  0.00  0.00    -0.501 OA
ATOM     27  H   UNL     1      10.546  -0.639  21.189  0.00  0.00    +0.292 HD
ENDBRANCH  11  26
TORSDOF 6
ENDMDL
MODEL 4
REMARK VINA RESULT:      -6.7      1.867      7.449
REMARK  Name = 
REMARK  7 active torsions:
REMARK  status: ('A' for Active; 'I' for Inactive)
REMARK    1  A    between atoms: C_1  and  O_2
REMARK    2  A    between atoms: O_2  and  C_3
REMARK    3  A    between atoms: C_4  and  O_23
REMARK    4  A    between atoms: C_7  and  C_9
REMARK    5  A    between atoms: C_10  and  O_22
REMARK    6  A    between atoms: C_14  and  O_21
REMARK    7  A    between atoms: C_16  and  O_20
REMARK                            x       y       z     vdW  Elec       q    Type
REMARK                         _______ _______ _______ _____ _____    ______ ____
ROOT
ATOM      1  C   UNL     1       7.858  -1.633  23.256  0.00  0.00    +0.181 A 
ATOM      2  O   UNL     1       6.991  -0.573  22.967  0.00  0.00    -0.451 OA
ATOM      3  C   UNL     1       7.497   0.701  22.848  0.00  0.00    +0.147 A 
ATOM      4  C   UNL     1       8.825   1.007  23.115  0.00  0.00    +0.109 A 
ATOM      5  C   UNL     1       9.294   2.323  22.975  0.00  0.00    +0.135 A 
ATOM      6  C   UNL     1       8.433   3.339  22.565  0.00  0.00    +0.091 A 
ATOM      7  C   UNL     1       7.104   3.023  22.297  0.00  0.00    +0.124 A 
ATOM      8  C   UNL     1       9.720  -0.075  23.513  0.00  0.00    +0.238 A 
ATOM      9  O   UNL     1      10.891   0.176  23.794  0.00  0.00    -0.283 OA
ATOM     10  C   UNL     1       6.630   1.713  22.434  0.00  0.00    +0.092 A 
ATOM     11  C   UNL     1       9.177  -1.459  23.497  0.00  0.00    +0.208 A 
ENDROOT
BRANCH   1  14
ATOM     12  C   UNL     1       6.474  -5.072  24.290  0.00  0.00    +0.162 A 
ATOM     13  C   UNL     1       6.967  -3.756  24.361  0.00  0.00    +0.061 A 
ATOM     14  C   UNL     1       7.197  -2.974  23.210  0.00  0.00    +0.025 A 
ATOM     15  C   UNL     1       6.786  -3.513  21.980  0.00  0.00    +0.015 A 
ATOM     16  C   UNL     1       6.246  -4.802  21.902  0.00  0.00    +0.050 A 
ATOM     17  C   UNL     1       6.102  -5.580  23.047  0.00  0.00    +0.158 A 
BRANCH  12  19
ATOM     18  C   UNL     1       7.275  -5.325  26.529  0.00  0.00    +0.277 C 
ATOM     19  O   UNL     1       6.364  -5.703  25.499  0.00  0.00    -0.491 OA
ENDBRANCH  12  19
BRANCH  17  20
ATOM     20  O   UNL     1       5.546  -6.813  22.864  0.00  0.00    -0.503 OA
ATOM     21  H   UNL     1       5.510  -6.977  21.908  0.00  0.00    +0.292 HD
ENDBRANCH  17  20
ENDBRANCH   1  14
BRANCH   5  22
ATOM     22  O   UNL     1      10.591   2.686  23.216  0.00  0.00    -0.506 OA
ATOM     23  H   UNL     1      10.625   3.121  24.102  0.00  0.00    +0.292 HD
ENDBRANCH   5  22
BRANCH   7  24
ATOM     24  O   UNL     1       6.226   3.981  21.887  0.00  0.00    -0.507 OA
ATOM     25  H   UNL     1       5.960   4.514  22.656  0.00  0.00    +0.292 HD
ENDBRANCH   7  24
BRANCH  11  26
ATOM     26  O   UNL     1      10.101  -2.470  23.682  0.00  0.00    -0.501 OA
ATOM     27  H   UNL     1      10.206  -2.945  22.842  0.00  0.00    +0.292 HD
ENDBRANCH  11  26
TORSDOF 6
ENDMDL
MODEL 5
REMARK VINA RESULT:      -6.7      2.354      3.977
REMARK  Name = 
REMARK  7 active torsions:
REMARK  status: ('A' for Active; 'I' for Inactive)
REMARK    1  A    between atoms: C_1  and  O_2
REMARK    2  A    between atoms: O_2  and  C_3
REMARK    3  A    between atoms: C_4  and  O_23
REMARK    4  A    between atoms: C_7  and  C_9
REMARK    5  A    between atoms: C_10  and  O_22
REMARK    6  A    between atoms: C_14  and  O_21
REMARK    7  A    between atoms: C_16  and  O_20
REMARK                            x       y       z     vdW  Elec       q    Type
REMARK                         _______ _______ _______ _____ _____    ______ ____
ROOT
ATOM      1  C   UNL     1       8.292  -0.509  23.195  0.00  0.00    +0.181 A 
ATOM      2  O   UNL     1       7.094  -1.120  22.809  0.00  0.00    -0.451 OA
ATOM      3  C   UNL     1       6.938  -2.475  22.989  0.00  0.00    +0.147 A 
ATOM      4  C   UNL     1       7.967  -3.295  23.437  0.00  0.00    +0.109 A 
ATOM      5  C   UNL     1       7.755  -4.671  23.608  0.00  0.00    +0.135 A 
ATOM      6  C   UNL     1       6.512  -5.235  23.332  0.00  0.00    +0.091 A 
ATOM      7  C   UNL     1       5.485  -4.406  22.887  0.00  0.00    +0.124 A 
ATOM      8  C   UNL     1       9.254  -2.683  23.750  0.00  0.00    +0.238 A 
ATOM      9  O   UNL     1      10.193  -3.392  24.110  0.00  0.00    -0.283 OA
ATOM     10  C   UNL     1       5.689  -3.032  22.714  0.00  0.00    +0.092 A 
ATOM     11  C   UNL     1       9.348  -1.201  23.679  0.00  0.00    +0.208 A 
ENDROOT
BRANCH   1  14
ATOM     12  C   UNL     1       8.389   3.237  24.076  0.00  0.00    +0.162 A 
ATOM     13  C   UNL     1       8.555   1.842  24.160  0.00  0.00    +0.061 A 
ATOM     14  C   UNL     1       8.266   0.982  23.079  0.00  0.00    +0.025 A 
ATOM     15  C   UNL     1       7.929   1.585  21.856  0.00  0.00    +0.015 A 
ATOM     16  C   UNL     1       7.813   2.976  21.746  0.00  0.00    +0.050 A 
ATOM     17  C   UNL     1       8.029   3.795  22.852  0.00  0.00    +0.158 A 
BRANCH  12  19
ATOM     18  C   UNL     1       7.568   4.238  26.087  0.00  0.00    +0.277 C 
ATOM     19  O   UNL     1       8.664   3.911  25.235  0.00  0.00    -0.491 OA
ENDBRANCH  12  19
BRANCH  17  20
ATOM     20  O   UNL     1       7.910   5.136  22.632  0.00  0.00    -0.503 OA
ATOM     21  H   UNL     1       8.512   5.368  21.907  0.00  0.00    +0.292 HD
ENDBRANCH  17  20
ENDBRANCH   1  14
BRANCH   5  22
ATOM     22  O   UNL     1       8.725  -5.529  24.052  0.00  0.00    -0.506 OA
ATOM     23  H   UNL     1       9.079  -6.019  23.270  0.00  0.00    +0.292 HD
ENDBRANCH   5  22
BRANCH   7  24
ATOM     24  O   UNL     1       4.249  -4.909  22.610  0.00  0.00    -0.507 OA
ATOM     25  H   UNL     1       3.711  -4.212  22.196  0.00  0.00    +0.292 HD
ENDBRANCH   7  24
BRANCH  11  26
ATOM     26  O   UNL     1      10.514  -0.648  24.175  0.00  0.00    -0.501 OA
ATOM     27  H   UNL     1      11.198  -0.711  23.489  0.00  0.00    +0.292 HD
ENDBRANCH  11  26
TORSDOF 6
ENDMDL
MODEL 6
REMARK VINA RESULT:      -6.6      1.582      7.347
REMARK  Name = 
REMARK  7 active torsions:
REMARK  status: ('A' for Active; 'I' for Inactive)
REMARK    1  A    between atoms: C_1  and  O_2
REMARK    2  A    between atoms: O_2  and  C_3
REMARK    3  A    between atoms: C_4  and  O_23
REMARK    4  A    between atoms: C_7  and  C_9
REMARK    5  A    between atoms: C_10  and  O_22
REMARK    6  A    between atoms: C_14  and  O_21
REMARK    7  A    between atoms: C_16  and  O_20
REMARK                            x       y       z     vdW  Elec       q    Type
REMARK                         _______ _______ _______ _____ _____    ______ ____
ROOT
ATOM      1  C   UNL     1       8.007  -1.936  24.227  0.00  0.00    +0.181 A 
ATOM      2  O   UNL     1       7.040  -0.928  24.147  0.00  0.00    -0.451 OA
ATOM      3  C   UNL     1       7.312   0.216  23.434  0.00  0.00    +0.147 A 
ATOM      4  C   UNL     1       8.559   0.472  22.877  0.00  0.00    +0.109 A 
ATOM      5  C   UNL     1       8.785   1.653  22.154  0.00  0.00    +0.135 A 
ATOM      6  C   UNL     1       7.764   2.585  21.985  0.00  0.00    +0.091 A 
ATOM      7  C   UNL     1       6.517   2.319  22.545  0.00  0.00    +0.124 A 
ATOM      8  C   UNL     1       9.609  -0.529  23.036  0.00  0.00    +0.238 A 
ATOM      9  O   UNL     1      10.733  -0.310  22.587  0.00  0.00    -0.283 OA
ATOM     10  C   UNL     1       6.284   1.144  23.267  0.00  0.00    +0.092 A 
ATOM     11  C   UNL     1       9.242  -1.813  23.690  0.00  0.00    +0.208 A 
ENDROOT
BRANCH   1  14
ATOM     12  C   UNL     1       6.177  -5.246  24.936  0.00  0.00    +0.162 A 
ATOM     13  C   UNL     1       6.745  -4.156  24.252  0.00  0.00    +0.061 A 
ATOM     14  C   UNL     1       7.522  -3.177  24.906  0.00  0.00    +0.025 A 
ATOM     15  C   UNL     1       7.824  -3.402  26.259  0.00  0.00    +0.015 A 
ATOM     16  C   UNL     1       7.307  -4.512  26.938  0.00  0.00    +0.050 A 
ATOM     17  C   UNL     1       6.479  -5.421  26.284  0.00  0.00    +0.158 A 
BRANCH  12  19
ATOM     18  C   UNL     1       5.465  -5.884  22.743  0.00  0.00    +0.277 C 
ATOM     19  O   UNL     1       5.408  -6.068  24.156  0.00  0.00    -0.491 OA
ENDBRANCH  12  19
BRANCH  17  20
ATOM     20  O   UNL     1       6.047  -6.477  27.032  0.00  0.00    -0.503 OA
ATOM     21  H   UNL     1       6.145  -7.277  26.491  0.00  0.00    +0.292 HD
ENDBRANCH  17  20
ENDBRANCH   1  14
BRANCH   5  22
ATOM     22  O   UNL     1       9.988   1.959  21.575  0.00  0.00    -0.506 OA
ATOM     23  H   UNL     1       9.976   1.612  20.651  0.00  0.00    +0.292 HD
ENDBRANCH   5  22
BRANCH   7  24
ATOM     24  O   UNL     1       5.484   3.197  22.402  0.00  0.00    -0.507 OA
ATOM     25  H   UNL     1       5.314   3.626  23.258  0.00  0.00    +0.292 HD
ENDBRANCH   7  24
BRANCH  11  26
ATOM     26  O   UNL     1      10.201  -2.808  23.643  0.00  0.00    -0.501 OA
ATOM     27  H   UNL     1      10.822  -2.669  24.376  0.00  0.00    +0.292 HD
ENDBRANCH  11  26
TORSDOF 6
ENDMDL
MODEL 7
REMARK VINA RESULT:      -6.6      2.319      3.989
REMARK  Name = 
REMARK  7 active torsions:
REMARK  status: ('A' for Active; 'I' for Inactive)
REMARK    1  A    between atoms: C_1  and  O_2
REMARK    2  A    between atoms: O_2  and  C_3
REMARK    3  A    between atoms: C_4  and  O_23
REMARK    4  A    between atoms: C_7  and  C_9
REMARK    5  A    between atoms: C_10  and  O_22
REMARK    6  A    between atoms: C_14  and  O_21
REMARK    7  A    between atoms: C_16  and  O_20
REMARK                            x       y       z     vdW  Elec       q    Type
REMARK                         _______ _______ _______ _____ _____    ______ ____
ROOT
ATOM      1  C   UNL     1       8.718  -0.553  24.367  0.00  0.00    +0.181 A 
ATOM      2  O   UNL     1       8.194  -1.163  23.222  0.00  0.00    -0.451 OA
ATOM      3  C   UNL     1       7.687  -2.439  23.307  0.00  0.00    +0.147 A 
ATOM      4  C   UNL     1       7.774  -3.204  24.463  0.00  0.00    +0.109 A 
ATOM      5  C   UNL     1       7.237  -4.500  24.500  0.00  0.00    +0.135 A 
ATOM      6  C   UNL     1       6.609  -5.036  23.378  0.00  0.00    +0.091 A 
ATOM      7  C   UNL     1       6.524  -4.262  22.224  0.00  0.00    +0.124 A 
ATOM      8  C   UNL     1       8.407  -2.615  25.639  0.00  0.00    +0.238 A 
ATOM      9  O   UNL     1       8.532  -3.284  26.663  0.00  0.00    -0.283 OA
ATOM     10  C   UNL     1       7.058  -2.969  22.180  0.00  0.00    +0.092 A 
ATOM     11  C   UNL     1       8.818  -1.188  25.557  0.00  0.00    +0.208 A 
ENDROOT
BRANCH   1  14
ATOM     12  C   UNL     1       8.503   3.243  23.773  0.00  0.00    +0.162 A 
ATOM     13  C   UNL     1       8.149   1.923  24.107  0.00  0.00    +0.061 A 
ATOM     14  C   UNL     1       9.096   0.879  24.161  0.00  0.00    +0.025 A 
ATOM     15  C   UNL     1      10.445   1.233  23.998  0.00  0.00    +0.015 A 
ATOM     16  C   UNL     1      10.815   2.553  23.716  0.00  0.00    +0.050 A 
ATOM     17  C   UNL     1       9.849   3.549  23.592  0.00  0.00    +0.158 A 
BRANCH  12  19
ATOM     18  C   UNL     1       6.899   4.405  22.431  0.00  0.00    +0.277 C 
ATOM     19  O   UNL     1       7.449   4.115  23.714  0.00  0.00    -0.491 OA
ENDBRANCH  12  19
BRANCH  17  20
ATOM     20  O   UNL     1      10.318   4.805  23.337  0.00  0.00    -0.503 OA
ATOM     21  H   UNL     1      10.907   5.051  24.068  0.00  0.00    +0.292 HD
ENDBRANCH  17  20
ENDBRANCH   1  14
BRANCH   5  22
ATOM     22  O   UNL     1       7.284  -5.299  25.610  0.00  0.00    -0.506 OA
ATOM     23  H   UNL     1       7.714  -6.150  25.354  0.00  0.00    +0.292 HD
ENDBRANCH   5  22
BRANCH   7  24
ATOM     24  O   UNL     1       5.914  -4.741  21.103  0.00  0.00    -0.507 OA
ATOM     25  H   UNL     1       5.257  -4.091  20.800  0.00  0.00    +0.292 HD
ENDBRANCH   7  24
BRANCH  11  26
ATOM     26  O   UNL     1       9.225  -0.610  26.745  0.00  0.00    -0.501 OA
ATOM     27  H   UNL     1       9.608  -1.304  27.307  0.00  0.00    +0.292 HD
ENDBRANCH  11  26
TORSDOF 6
ENDMDL
MODEL 8
REMARK VINA RESULT:      -6.5      2.557      3.266
REMARK  Name = 
REMARK  7 active torsions:
REMARK  status: ('A' for Active; 'I' for Inactive)
REMARK    1  A    between atoms: C_1  and  O_2
REMARK    2  A    between atoms: O_2  and  C_3
REMARK    3  A    between atoms: C_4  and  O_23
REMARK    4  A    between atoms: C_7  and  C_9
REMARK    5  A    between atoms: C_10  and  O_22
REMARK    6  A    between atoms: C_14  and  O_21
REMARK    7  A    between atoms: C_16  and  O_20
REMARK                            x       y       z     vdW  Elec       q    Type
REMARK                         _______ _______ _______ _____ _____    ______ ____
ROOT
ATOM      1  C   UNL     1       8.397  -0.264  23.737  0.00  0.00    +0.181 A 
ATOM      2  O   UNL     1       9.185  -1.226  24.379  0.00  0.00    -0.451 OA
ATOM      3  C   UNL     1       8.803  -2.547  24.340  0.00  0.00    +0.147 A 
ATOM      4  C   UNL     1       7.601  -2.964  23.784  0.00  0.00    +0.109 A 
ATOM      5  C   UNL     1       7.259  -4.325  23.765  0.00  0.00    +0.135 A 
ATOM      6  C   UNL     1       8.122  -5.277  24.304  0.00  0.00    +0.091 A 
ATOM      7  C   UNL     1       9.327  -4.851  24.857  0.00  0.00    +0.124 A 
ATOM      8  C   UNL     1       6.723  -1.957  23.196  0.00  0.00    +0.238 A 
ATOM      9  O   UNL     1       5.634  -2.294  22.733  0.00  0.00    -0.283 OA
ATOM     10  C   UNL     1       9.674  -3.496  24.879  0.00  0.00    +0.092 A 
ATOM     11  C   UNL     1       7.226  -0.560  23.129  0.00  0.00    +0.208 A 
ENDROOT
BRANCH   1  14
ATOM     12  C   UNL     1       9.077   3.445  24.507  0.00  0.00    +0.162 A 
ATOM     13  C   UNL     1       8.596   2.127  24.613  0.00  0.00    +0.061 A 
ATOM     14  C   UNL     1       9.007   1.102  23.735  0.00  0.00    +0.025 A 
ATOM     15  C   UNL     1      10.027   1.414  22.822  0.00  0.00    +0.015 A 
ATOM     16  C   UNL     1      10.552   2.710  22.743  0.00  0.00    +0.050 A 
ATOM     17  C   UNL     1      10.071   3.721  23.571  0.00  0.00    +0.158 A 
BRANCH  12  19
ATOM     18  C   UNL     1       7.208   4.059  25.867  0.00  0.00    +0.277 C 
ATOM     19  O   UNL     1       8.531   4.321  25.405  0.00  0.00    -0.491 OA
ENDBRANCH  12  19
BRANCH  17  20
ATOM     20  O   UNL     1      10.664   4.941  23.427  0.00  0.00    -0.503 OA
ATOM     21  H   UNL     1      11.394   4.838  22.796  0.00  0.00    +0.292 HD
ENDBRANCH  17  20
ENDBRANCH   1  14
BRANCH   5  22
ATOM     22  O   UNL     1       6.094  -4.798  23.226  0.00  0.00    -0.506 OA
ATOM     23  H   UNL     1       6.036  -4.473  22.295  0.00  0.00    +0.292 HD
ENDBRANCH   5  22
BRANCH   7  24
ATOM     24  O   UNL     1      10.207  -5.745  25.390  0.00  0.00    -0.507 OA
ATOM     25  H   UNL     1       9.708  -6.483  25.782  0.00  0.00    +0.292 HD
ENDBRANCH   7  24
BRANCH  11  26
ATOM     26  O   UNL     1       6.459   0.321  22.390  0.00  0.00    -0.501 OA
ATOM     27  H   UNL     1       6.252  -0.095  21.537  0.00  0.00    +0.292 HD
ENDBRANCH  11  26
TORSDOF 6
ENDMDL
MODEL 9
REMARK VINA RESULT:      -6.5      2.626      3.131
REMARK  Name = 
REMARK  7 active torsions:
REMARK  status: ('A' for Active; 'I' for Inactive)
REMARK    1  A    between atoms: C_1  and  O_2
REMARK    2  A    between atoms: O_2  and  C_3
REMARK    3  A    between atoms: C_4  and  O_23
REMARK    4  A    between atoms: C_7  and  C_9
REMARK    5  A    between atoms: C_10  and  O_22
REMARK    6  A    between atoms: C_14  and  O_21
REMARK    7  A    between atoms: C_16  and  O_20
REMARK                            x       y       z     vdW  Elec       q    Type
REMARK                         _______ _______ _______ _____ _____    ______ ____
ROOT
ATOM      1  C   UNL     1       8.302  -1.284  24.352  0.00  0.00    +0.181 A 
ATOM      2  O   UNL     1       7.200  -1.512  25.184  0.00  0.00    -0.451 OA
ATOM      3  C   UNL     1       7.109  -2.698  25.875  0.00  0.00    +0.147 A 
ATOM      4  C   UNL     1       8.010  -3.740  25.697  0.00  0.00    +0.109 A 
ATOM      5  C   UNL     1       7.875  -4.929  26.430  0.00  0.00    +0.135 A 
ATOM      6  C   UNL     1       6.836  -5.081  27.345  0.00  0.00    +0.091 A 
ATOM      7  C   UNL     1       5.939  -4.031  27.519  0.00  0.00    +0.124 A 
ATOM      8  C   UNL     1       9.110  -3.552  24.758  0.00  0.00    +0.238 A 
ATOM      9  O   UNL     1       9.899  -4.473  24.552  0.00  0.00    -0.283 OA
ATOM     10  C   UNL     1       6.067  -2.842  26.792  0.00  0.00    +0.092 A 
ATOM     11  C   UNL     1       9.262  -2.211  24.133  0.00  0.00    +0.208 A 
ENDROOT
BRANCH   1  14
ATOM     12  C   UNL     1       8.588   2.541  24.038  0.00  0.00    +0.162 A 
ATOM     13  C   UNL     1       8.689   1.233  24.547  0.00  0.00    +0.061 A 
ATOM     14  C   UNL     1       8.344   0.098  23.782  0.00  0.00    +0.025 A 
ATOM     15  C   UNL     1       8.019   0.312  22.433  0.00  0.00    +0.015 A 
ATOM     16  C   UNL     1       7.966   1.606  21.901  0.00  0.00    +0.050 A 
ATOM     17  C   UNL     1       8.237   2.713  22.701  0.00  0.00    +0.158 A 
BRANCH  12  19
ATOM     18  C   UNL     1       7.847   4.126  25.668  0.00  0.00    +0.277 C 
ATOM     19  O   UNL     1       8.910   3.524  24.934  0.00  0.00    -0.491 OA
ENDBRANCH  12  19
BRANCH  17  20
ATOM     20  O   UNL     1       8.178   3.927  22.079  0.00  0.00    -0.503 OA
ATOM     21  H   UNL     1       7.263   4.059  21.784  0.00  0.00    +0.292 HD
ENDBRANCH  17  20
ENDBRANCH   1  14
BRANCH   5  22
ATOM     22  O   UNL     1       8.734  -5.987  26.305  0.00  0.00    -0.506 OA
ATOM     23  H   UNL     1       9.375  -5.948  27.056  0.00  0.00    +0.292 HD
ENDBRANCH   5  22
BRANCH   7  24
ATOM     24  O   UNL     1       4.909  -4.129  28.407  0.00  0.00    -0.507 OA
ATOM     25  H   UNL     1       4.238  -3.461  28.187  0.00  0.00    +0.292 HD
ENDBRANCH   7  24
BRANCH  11  26
ATOM     26  O   UNL     1      10.423  -2.011  23.411  0.00  0.00    -0.501 OA
ATOM     27  H   UNL     1      10.209  -1.476  22.630  0.00  0.00    +0.292 HD
ENDBRANCH  11  26
TORSDOF 6
ENDMDL
