MODEL 1
REMARK VINA RESULT:      -7.4      0.000      0.000
REMARK  Name = 
REMARK  10 active torsions:
REMARK  status: ('A' for Active; 'I' for Inactive)
REMARK    1  A    between atoms: C_3  and  O_26
REMARK    2  A    between atoms: C_4  and  O_25
REMARK    3  A    between atoms: C_6  and  C_7
REMARK    4  A    between atoms: C_8  and  O_24
REMARK    5  A    between atoms: C_12  and  O_23
REMARK    6  A    between atoms: C_14  and  O_18
REMARK    7  A    between atoms: O_18  and  S_19
REMARK    8  A    between atoms: S_19  and  O_22
REMARK    9  A    between atoms: O_26  and  S_27
REMARK   10  A    between atoms: S_27  and  O_30
REMARK                            x       y       z     vdW  Elec       q    Type
REMARK                         _______ _______ _______ _____ _____    ______ ____
ROOT
ATOM      1  C   UNL     1       6.644  -3.453  23.258  0.00  0.00    +0.181 A 
ATOM      2  O   UNL     1       6.742  -3.779  24.613  0.00  0.00    -0.451 OA
ATOM      3  C   UNL     1       6.090  -4.891  25.086  0.00  0.00    +0.147 A 
ATOM      4  C   UNL     1       5.247  -5.658  24.293  0.00  0.00    +0.109 A 
ATOM      5  C   UNL     1       4.568  -6.753  24.839  0.00  0.00    +0.135 A 
ATOM      6  C   UNL     1       4.759  -7.107  26.170  0.00  0.00    +0.095 A 
ATOM      7  C   UNL     1       5.642  -6.373  26.960  0.00  0.00    +0.163 A 
ATOM      8  C   UNL     1       5.106  -5.309  22.882  0.00  0.00    +0.238 A 
ATOM      9  O   UNL     1       4.353  -5.959  22.161  0.00  0.00    -0.283 OA
ATOM     10  C   UNL     1       6.287  -5.248  26.426  0.00  0.00    +0.095 A 
ATOM     11  C   UNL     1       5.922  -4.177  22.372  0.00  0.00    +0.208 A 
ENDROOT
BRANCH   1  13
ATOM     12  C   UNL     1       8.747  -2.271  22.548  0.00  0.00    +0.015 A 
ATOM     13  C   UNL     1       7.389  -2.208  22.904  0.00  0.00    +0.025 A 
ATOM     14  C   UNL     1       6.802  -0.934  22.985  0.00  0.00    +0.061 A 
ATOM     15  C   UNL     1       7.540   0.216  22.705  0.00  0.00    +0.162 A 
ATOM     16  C   UNL     1       8.896   0.144  22.398  0.00  0.00    +0.200 A 
ATOM     17  C   UNL     1       9.496  -1.109  22.296  0.00  0.00    +0.053 A 
BRANCH  15  18
ATOM     18  O   UNL     1       6.886   1.415  22.758  0.00  0.00    -0.503 OA
ATOM     19  H   UNL     1       6.087   1.291  23.302  0.00  0.00    +0.292 HD
ENDBRANCH  15  18
BRANCH  16  20
ATOM     20  O   UNL     1       9.549   1.332  22.195  0.00  0.00    -0.321 OA
BRANCH  20  21
ATOM     21  S   UNL     1      10.186   2.156  23.453  0.00  0.00    +0.251 S 
ATOM     22  O   UNL     1      11.177   1.333  24.110  0.00  0.00    -0.108 OA
ATOM     23  O   UNL     1       9.123   2.810  24.183  0.00  0.00    -0.108 OA
BRANCH  21  24
ATOM     24  O   UNL     1      10.970   3.358  22.719  0.00  0.00    -0.222 OA
ATOM     25  H   UNL     1      10.900   4.143  23.302  0.00  0.00    +0.248 HD
ENDBRANCH  21  24
ENDBRANCH  20  21
ENDBRANCH  16  20
ENDBRANCH   1  13
BRANCH   5  26
ATOM     26  O   UNL     1       3.702  -7.528  24.115  0.00  0.00    -0.506 OA
ATOM     27  H   UNL     1       2.895  -6.995  23.934  0.00  0.00    +0.292 HD
ENDBRANCH   5  26
BRANCH  11  28
ATOM     28  O   UNL     1       5.876  -3.961  21.008  0.00  0.00    -0.501 OA
ATOM     29  H   UNL     1       6.778  -3.798  20.692  0.00  0.00    +0.292 HD
ENDBRANCH  11  28
BRANCH   7  30
ATOM     30  O   UNL     1       5.914  -6.655  28.276  0.00  0.00    -0.347 OA
BRANCH  30  31
ATOM     31  S   UNL     1       5.138  -5.963  29.517  0.00  0.00    +0.108 S 
ATOM     32  S   UNL     1       3.775  -4.851  29.013  0.00  0.00    +0.118 S 
ATOM     33  O   UNL     1       6.068  -5.281  30.380  0.00  0.00    -0.138 OA
BRANCH  31  34
ATOM     34  O   UNL     1       4.556  -7.142  30.440  0.00  0.00    -0.247 OA
ATOM     35  H   UNL     1       4.381  -7.913  29.858  0.00  0.00    +0.245 HD
ENDBRANCH  31  34
ENDBRANCH  30  31
ENDBRANCH   7  30
TORSDOF 10
ENDMDL
MODEL 2
REMARK VINA RESULT:      -7.3      2.592      4.280
REMARK  Name = 
REMARK  10 active torsions:
REMARK  status: ('A' for Active; 'I' for Inactive)
REMARK    1  A    between atoms: C_3  and  O_26
REMARK    2  A    between atoms: C_4  and  O_25
REMARK    3  A    between atoms: C_6  and  C_7
REMARK    4  A    between atoms: C_8  and  O_24
REMARK    5  A    between atoms: C_12  and  O_23
REMARK    6  A    between atoms: C_14  and  O_18
REMARK    7  A    between atoms: O_18  and  S_19
REMARK    8  A    between atoms: S_19  and  O_22
REMARK    9  A    between atoms: O_26  and  S_27
REMARK   10  A    between atoms: S_27  and  O_30
REMARK                            x       y       z     vdW  Elec       q    Type
REMARK                         _______ _______ _______ _____ _____    ______ ____
ROOT
ATOM      1  C   UNL     1       7.570  -3.482  25.530  0.00  0.00    +0.181 A 
ATOM      2  O   UNL     1       6.314  -3.507  24.918  0.00  0.00    -0.451 OA
ATOM      3  C   UNL     1       5.383  -4.430  25.328  0.00  0.00    +0.147 A 
ATOM      4  C   UNL     1       5.670  -5.415  26.264  0.00  0.00    +0.109 A 
ATOM      5  C   UNL     1       4.699  -6.362  26.610  0.00  0.00    +0.135 A 
ATOM      6  C   UNL     1       3.427  -6.303  26.050  0.00  0.00    +0.095 A 
ATOM      7  C   UNL     1       3.116  -5.286  25.148  0.00  0.00    +0.163 A 
ATOM      8  C   UNL     1       6.989  -5.425  26.888  0.00  0.00    +0.238 A 
ATOM      9  O   UNL     1       7.277  -6.296  27.704  0.00  0.00    -0.283 OA
ATOM     10  C   UNL     1       4.103  -4.365  24.766  0.00  0.00    +0.095 A 
ATOM     11  C   UNL     1       7.931  -4.337  26.514  0.00  0.00    +0.208 A 
ENDROOT
BRANCH   1  13
ATOM     12  C   UNL     1       8.844  -1.323  25.729  0.00  0.00    +0.015 A 
ATOM     13  C   UNL     1       8.474  -2.440  24.960  0.00  0.00    +0.025 A 
ATOM     14  C   UNL     1       8.925  -2.484  23.630  0.00  0.00    +0.061 A 
ATOM     15  C   UNL     1       9.721  -1.464  23.108  0.00  0.00    +0.162 A 
ATOM     16  C   UNL     1      10.042  -0.342  23.866  0.00  0.00    +0.200 A 
ATOM     17  C   UNL     1       9.620  -0.283  25.192  0.00  0.00    +0.053 A 
BRANCH  15  18
ATOM     18  O   UNL     1      10.160  -1.603  21.821  0.00  0.00    -0.503 OA
ATOM     19  H   UNL     1       9.781  -0.873  21.300  0.00  0.00    +0.292 HD
ENDBRANCH  15  18
BRANCH  16  20
ATOM     20  O   UNL     1      10.781   0.632  23.245  0.00  0.00    -0.321 OA
BRANCH  20  21
ATOM     21  S   UNL     1      10.159   2.124  23.008  0.00  0.00    +0.251 S 
ATOM     22  O   UNL     1      11.067   3.111  23.550  0.00  0.00    -0.108 OA
ATOM     23  O   UNL     1       8.752   2.112  23.336  0.00  0.00    -0.108 OA
BRANCH  21  24
ATOM     24  O   UNL     1      10.199   2.265  21.403  0.00  0.00    -0.222 OA
ATOM     25  H   UNL     1      10.628   1.455  21.055  0.00  0.00    +0.248 HD
ENDBRANCH  21  24
ENDBRANCH  20  21
ENDBRANCH  16  20
ENDBRANCH   1  13
BRANCH   5  26
ATOM     26  O   UNL     1       4.931  -7.374  27.503  0.00  0.00    -0.506 OA
ATOM     27  H   UNL     1       5.461  -8.066  27.047  0.00  0.00    +0.292 HD
ENDBRANCH   5  26
BRANCH  11  28
ATOM     28  O   UNL     1       9.116  -4.290  27.223  0.00  0.00    -0.501 OA
ATOM     29  H   UNL     1       9.840  -4.114  26.602  0.00  0.00    +0.292 HD
ENDBRANCH  11  28
BRANCH   7  30
ATOM     30  O   UNL     1       1.885  -5.130  24.559  0.00  0.00    -0.347 OA
BRANCH  30  31
ATOM     31  S   UNL     1       1.385  -6.005  23.292  0.00  0.00    +0.108 S 
ATOM     32  S   UNL     1       0.468  -7.521  23.750  0.00  0.00    +0.118 S 
ATOM     33  O   UNL     1       2.490  -6.313  22.421  0.00  0.00    -0.138 OA
BRANCH  31  34
ATOM     34  O   UNL     1       0.445  -5.060  22.395  0.00  0.00    -0.247 OA
ATOM     35  H   UNL     1       0.809  -4.150  22.444  0.00  0.00    +0.245 HD
ENDBRANCH  31  34
ENDBRANCH  30  31
ENDBRANCH   7  30
TORSDOF 10
ENDMDL
MODEL 3
REMARK VINA RESULT:      -7.3      1.215      1.680
REMARK  Name = 
REMARK  10 active torsions:
REMARK  status: ('A' for Active; 'I' for Inactive)
REMARK    1  A    between atoms: C_3  and  O_26
REMARK    2  A    between atoms: C_4  and  O_25
REMARK    3  A    between atoms: C_6  and  C_7
REMARK    4  A    between atoms: C_8  and  O_24
REMARK    5  A    between atoms: C_12  and  O_23
REMARK    6  A    between atoms: C_14  and  O_18
REMARK    7  A    between atoms: O_18  and  S_19
REMARK    8  A    between atoms: S_19  and  O_22
REMARK    9  A    between atoms: O_26  and  S_27
REMARK   10  A    between atoms: S_27  and  O_30
REMARK                            x       y       z     vdW  Elec       q    Type
REMARK                         _______ _______ _______ _____ _____    ______ ____
ROOT
ATOM      1  C   UNL     1       7.204  -3.863  23.786  0.00  0.00    +0.181 A 
ATOM      2  O   UNL     1       6.988  -4.260  25.109  0.00  0.00    -0.451 OA
ATOM      3  C   UNL     1       6.096  -5.272  25.370  0.00  0.00    +0.147 A 
ATOM      4  C   UNL     1       5.317  -5.856  24.380  0.00  0.00    +0.109 A 
ATOM      5  C   UNL     1       4.388  -6.849  24.709  0.00  0.00    +0.135 A 
ATOM      6  C   UNL     1       4.262  -7.288  26.022  0.00  0.00    +0.095 A 
ATOM      7  C   UNL     1       5.075  -6.742  27.014  0.00  0.00    +0.163 A 
ATOM      8  C   UNL     1       5.506  -5.428  22.997  0.00  0.00    +0.238 A 
ATOM      9  O   UNL     1       4.818  -5.914  22.103  0.00  0.00    -0.283 OA
ATOM     10  C   UNL     1       5.974  -5.714  26.693  0.00  0.00    +0.095 A 
ATOM     11  C   UNL     1       6.567  -4.421  22.731  0.00  0.00    +0.208 A 
ENDROOT
BRANCH   1  13
ATOM     12  C   UNL     1       8.683  -2.112  24.822  0.00  0.00    +0.015 A 
ATOM     13  C   UNL     1       8.183  -2.742  23.669  0.00  0.00    +0.025 A 
ATOM     14  C   UNL     1       8.582  -2.221  22.426  0.00  0.00    +0.061 A 
ATOM     15  C   UNL     1       9.453  -1.134  22.350  0.00  0.00    +0.162 A 
ATOM     16  C   UNL     1       9.904  -0.491  23.499  0.00  0.00    +0.200 A 
ATOM     17  C   UNL     1       9.535  -0.999  24.742  0.00  0.00    +0.053 A 
BRANCH  15  18
ATOM     18  O   UNL     1       9.833  -0.717  21.105  0.00  0.00    -0.503 OA
ATOM     19  H   UNL     1       9.853  -1.499  20.525  0.00  0.00    +0.292 HD
ENDBRANCH  15  18
BRANCH  16  20
ATOM     20  O   UNL     1      10.710   0.604  23.318  0.00  0.00    -0.321 OA
BRANCH  20  21
ATOM     21  S   UNL     1      10.063   2.083  23.077  0.00  0.00    +0.251 S 
ATOM     22  O   UNL     1      10.954   3.088  23.613  0.00  0.00    -0.108 OA
ATOM     23  O   UNL     1       8.656   2.048  23.409  0.00  0.00    -0.108 OA
BRANCH  21  24
ATOM     24  O   UNL     1      10.095   2.219  21.472  0.00  0.00    -0.222 OA
ATOM     25  H   UNL     1      10.800   2.865  21.253  0.00  0.00    +0.248 HD
ENDBRANCH  21  24
ENDBRANCH  20  21
ENDBRANCH  16  20
ENDBRANCH   1  13
BRANCH   5  26
ATOM     26  O   UNL     1       3.571  -7.441  23.782  0.00  0.00    -0.506 OA
ATOM     27  H   UNL     1       3.139  -6.729  23.258  0.00  0.00    +0.292 HD
ENDBRANCH   5  26
BRANCH  11  28
ATOM     28  O   UNL     1       6.819  -4.141  21.402  0.00  0.00    -0.501 OA
ATOM     29  H   UNL     1       6.552  -4.907  20.870  0.00  0.00    +0.292 HD
ENDBRANCH  11  28
BRANCH   7  30
ATOM     30  O   UNL     1       5.042  -7.123  28.333  0.00  0.00    -0.347 OA
BRANCH  30  31
ATOM     31  S   UNL     1       4.037  -6.473  29.424  0.00  0.00    +0.108 S 
ATOM     32  S   UNL     1       4.814  -5.201  30.485  0.00  0.00    +0.118 S 
ATOM     33  O   UNL     1       3.419  -7.502  30.220  0.00  0.00    -0.138 OA
BRANCH  31  34
ATOM     34  O   UNL     1       2.808  -5.824  28.619  0.00  0.00    -0.247 OA
ATOM     35  H   UNL     1       2.590  -6.426  27.876  0.00  0.00    +0.245 HD
ENDBRANCH  31  34
ENDBRANCH  30  31
ENDBRANCH   7  30
TORSDOF 10
ENDMDL
MODEL 4
REMARK VINA RESULT:      -7.2      2.522      9.006
REMARK  Name = 
REMARK  10 active torsions:
REMARK  status: ('A' for Active; 'I' for Inactive)
REMARK    1  A    between atoms: C_3  and  O_26
REMARK    2  A    between atoms: C_4  and  O_25
REMARK    3  A    between atoms: C_6  and  C_7
REMARK    4  A    between atoms: C_8  and  O_24
REMARK    5  A    between atoms: C_12  and  O_23
REMARK    6  A    between atoms: C_14  and  O_18
REMARK    7  A    between atoms: O_18  and  S_19
REMARK    8  A    between atoms: S_19  and  O_22
REMARK    9  A    between atoms: O_26  and  S_27
REMARK   10  A    between atoms: S_27  and  O_30
REMARK                            x       y       z     vdW  Elec       q    Type
REMARK                         _______ _______ _______ _____ _____    ______ ____
ROOT
ATOM      1  C   UNL     1       7.982  -1.873  23.785  0.00  0.00    +0.181 A 
ATOM      2  O   UNL     1       7.009  -0.870  23.763  0.00  0.00    -0.451 OA
ATOM      3  C   UNL     1       7.282   0.319  23.132  0.00  0.00    +0.147 A 
ATOM      4  C   UNL     1       8.529   0.612  22.597  0.00  0.00    +0.109 A 
ATOM      5  C   UNL     1       8.769   1.859  22.009  0.00  0.00    +0.135 A 
ATOM      6  C   UNL     1       7.751   2.802  21.920  0.00  0.00    +0.095 A 
ATOM      7  C   UNL     1       6.482   2.497  22.409  0.00  0.00    +0.163 A 
ATOM      8  C   UNL     1       9.569  -0.412  22.644  0.00  0.00    +0.238 A 
ATOM      9  O   UNL     1      10.687  -0.174  22.195  0.00  0.00    -0.283 OA
ATOM     10  C   UNL     1       6.254   1.265  23.040  0.00  0.00    +0.095 A 
ATOM     11  C   UNL     1       9.203  -1.733  23.219  0.00  0.00    +0.208 A 
ENDROOT
BRANCH   1  13
ATOM     12  C   UNL     1       6.286  -3.667  24.264  0.00  0.00    +0.015 A 
ATOM     13  C   UNL     1       7.542  -3.094  24.524  0.00  0.00    +0.025 A 
ATOM     14  C   UNL     1       8.314  -3.669  25.548  0.00  0.00    +0.061 A 
ATOM     15  C   UNL     1       7.850  -4.774  26.261  0.00  0.00    +0.162 A 
ATOM     16  C   UNL     1       6.584  -5.304  26.025  0.00  0.00    +0.200 A 
ATOM     17  C   UNL     1       5.808  -4.761  25.004  0.00  0.00    +0.053 A 
BRANCH  15  18
ATOM     18  O   UNL     1       8.679  -5.306  27.209  0.00  0.00    -0.503 OA
ATOM     19  H   UNL     1       8.130  -5.832  27.818  0.00  0.00    +0.292 HD
ENDBRANCH  15  18
BRANCH  16  20
ATOM     20  O   UNL     1       6.196  -6.354  26.817  0.00  0.00    -0.321 OA
BRANCH  20  21
ATOM     21  S   UNL     1       5.460  -6.087  28.250  0.00  0.00    +0.251 S 
ATOM     22  O   UNL     1       4.274  -5.288  28.036  0.00  0.00    -0.108 OA
ATOM     23  O   UNL     1       6.454  -5.738  29.240  0.00  0.00    -0.108 OA
BRANCH  21  24
ATOM     24  O   UNL     1       4.973  -7.565  28.671  0.00  0.00    -0.222 OA
ATOM     25  H   UNL     1       4.434  -7.911  27.929  0.00  0.00    +0.248 HD
ENDBRANCH  21  24
ENDBRANCH  20  21
ENDBRANCH  16  20
ENDBRANCH   1  13
BRANCH   5  26
ATOM     26  O   UNL     1       9.985   2.217  21.492  0.00  0.00    -0.506 OA
ATOM     27  H   UNL     1      10.058   1.832  20.590  0.00  0.00    +0.292 HD
ENDBRANCH   5  26
BRANCH  11  28
ATOM     28  O   UNL     1      10.160  -2.724  23.121  0.00  0.00    -0.501 OA
ATOM     29  H   UNL     1      10.995  -2.382  23.475  0.00  0.00    +0.292 HD
ENDBRANCH  11  28
BRANCH   7  30
ATOM     30  O   UNL     1       5.408   3.351  22.349  0.00  0.00    -0.347 OA
BRANCH  30  31
ATOM     31  S   UNL     1       5.403   4.828  23.012  0.00  0.00    +0.108 S 
ATOM     32  S   UNL     1       6.213   4.909  24.651  0.00  0.00    +0.118 S 
ATOM     33  O   UNL     1       4.064   5.354  23.071  0.00  0.00    -0.138 OA
BRANCH  31  34
ATOM     34  O   UNL     1       6.156   5.815  21.992  0.00  0.00    -0.247 OA
ATOM     35  H   UNL     1       7.119   5.659  22.087  0.00  0.00    +0.245 HD
ENDBRANCH  31  34
ENDBRANCH  30  31
ENDBRANCH   7  30
TORSDOF 10
ENDMDL
MODEL 5
REMARK VINA RESULT:      -7.2      2.460      8.861
REMARK  Name = 
REMARK  10 active torsions:
REMARK  status: ('A' for Active; 'I' for Inactive)
REMARK    1  A    between atoms: C_3  and  O_26
REMARK    2  A    between atoms: C_4  and  O_25
REMARK    3  A    between atoms: C_6  and  C_7
REMARK    4  A    between atoms: C_8  and  O_24
REMARK    5  A    between atoms: C_12  and  O_23
REMARK    6  A    between atoms: C_14  and  O_18
REMARK    7  A    between atoms: O_18  and  S_19
REMARK    8  A    between atoms: S_19  and  O_22
REMARK    9  A    between atoms: O_26  and  S_27
REMARK   10  A    between atoms: S_27  and  O_30
REMARK                            x       y       z     vdW  Elec       q    Type
REMARK                         _______ _______ _______ _____ _____    ______ ____
ROOT
ATOM      1  C   UNL     1       7.826  -1.772  24.028  0.00  0.00    +0.181 A 
ATOM      2  O   UNL     1       7.797  -0.660  24.875  0.00  0.00    -0.451 OA
ATOM      3  C   UNL     1       8.249   0.551  24.410  0.00  0.00    +0.147 A 
ATOM      4  C   UNL     1       8.831   0.702  23.159  0.00  0.00    +0.109 A 
ATOM      5  C   UNL     1       9.320   1.949  22.754  0.00  0.00    +0.135 A 
ATOM      6  C   UNL     1       9.193   3.057  23.584  0.00  0.00    +0.095 A 
ATOM      7  C   UNL     1       8.564   2.925  24.822  0.00  0.00    +0.163 A 
ATOM      8  C   UNL     1       8.901  -0.458  22.275  0.00  0.00    +0.238 A 
ATOM      9  O   UNL     1       9.428  -0.359  21.170  0.00  0.00    -0.283 OA
ATOM     10  C   UNL     1       8.116   1.666  25.247  0.00  0.00    +0.095 A 
ATOM     11  C   UNL     1       8.290  -1.724  22.758  0.00  0.00    +0.208 A 
ENDROOT
BRANCH   1  13
ATOM     12  C   UNL     1       5.951  -3.319  24.673  0.00  0.00    +0.015 A 
ATOM     13  C   UNL     1       7.323  -3.015  24.684  0.00  0.00    +0.025 A 
ATOM     14  C   UNL     1       8.169  -3.882  25.397  0.00  0.00    +0.061 A 
ATOM     15  C   UNL     1       7.661  -5.005  26.050  0.00  0.00    +0.162 A 
ATOM     16  C   UNL     1       6.294  -5.269  26.070  0.00  0.00    +0.200 A 
ATOM     17  C   UNL     1       5.438  -4.434  25.357  0.00  0.00    +0.053 A 
BRANCH  15  18
ATOM     18  O   UNL     1       8.554  -5.826  26.681  0.00  0.00    -0.503 OA
ATOM     19  H   UNL     1       8.300  -5.870  27.620  0.00  0.00    +0.292 HD
ENDBRANCH  15  18
BRANCH  16  20
ATOM     20  O   UNL     1       5.887  -6.365  26.786  0.00  0.00    -0.321 OA
BRANCH  20  21
ATOM     21  S   UNL     1       5.723  -6.283  28.409  0.00  0.00    +0.251 S 
ATOM     22  O   UNL     1       5.069  -5.042  28.761  0.00  0.00    -0.108 OA
ATOM     23  O   UNL     1       6.954  -6.708  29.035  0.00  0.00    -0.108 OA
BRANCH  21  24
ATOM     24  O   UNL     1       4.683  -7.477  28.713  0.00  0.00    -0.222 OA
ATOM     25  H   UNL     1       4.346  -7.791  27.847  0.00  0.00    +0.248 HD
ENDBRANCH  21  24
ENDBRANCH  20  21
ENDBRANCH  16  20
ENDBRANCH   1  13
BRANCH   5  26
ATOM     26  O   UNL     1       9.931   2.153  21.546  0.00  0.00    -0.506 OA
ATOM     27  H   UNL     1       9.381   1.727  20.850  0.00  0.00    +0.292 HD
ENDBRANCH   5  26
BRANCH  11  28
ATOM     28  O   UNL     1       8.244  -2.763  21.848  0.00  0.00    -0.501 OA
ATOM     29  H   UNL     1       7.886  -2.424  21.013  0.00  0.00    +0.292 HD
ENDBRANCH  11  28
BRANCH   7  30
ATOM     30  O   UNL     1       8.371   3.962  25.702  0.00  0.00    -0.347 OA
BRANCH  30  31
ATOM     31  S   UNL     1       7.438   5.245  25.379  0.00  0.00    +0.108 S 
ATOM     32  S   UNL     1       8.323   6.622  24.562  0.00  0.00    +0.118 S 
ATOM     33  O   UNL     1       6.768   5.697  26.571  0.00  0.00    -0.138 OA
BRANCH  31  34
ATOM     34  O   UNL     1       6.239   4.742  24.435  0.00  0.00    -0.247 OA
ATOM     35  H   UNL     1       5.455   5.298  24.633  0.00  0.00    +0.245 HD
ENDBRANCH  31  34
ENDBRANCH  30  31
ENDBRANCH   7  30
TORSDOF 10
ENDMDL
MODEL 6
REMARK VINA RESULT:      -7.2      1.724      2.433
REMARK  Name = 
REMARK  10 active torsions:
REMARK  status: ('A' for Active; 'I' for Inactive)
REMARK    1  A    between atoms: C_3  and  O_26
REMARK    2  A    between atoms: C_4  and  O_25
REMARK    3  A    between atoms: C_6  and  C_7
REMARK    4  A    between atoms: C_8  and  O_24
REMARK    5  A    between atoms: C_12  and  O_23
REMARK    6  A    between atoms: C_14  and  O_18
REMARK    7  A    between atoms: O_18  and  S_19
REMARK    8  A    between atoms: S_19  and  O_22
REMARK    9  A    between atoms: O_26  and  S_27
REMARK   10  A    between atoms: S_27  and  O_30
REMARK                            x       y       z     vdW  Elec       q    Type
REMARK                         _______ _______ _______ _____ _____    ______ ____
ROOT
ATOM      1  C   UNL     1       8.099  -1.957  23.585  0.00  0.00    +0.181 A 
ATOM      2  O   UNL     1       7.458  -2.240  24.794  0.00  0.00    -0.451 OA
ATOM      3  C   UNL     1       6.781  -3.426  24.935  0.00  0.00    +0.147 A 
ATOM      4  C   UNL     1       6.617  -4.322  23.888  0.00  0.00    +0.109 A 
ATOM      5  C   UNL     1       5.875  -5.495  24.073  0.00  0.00    +0.135 A 
ATOM      6  C   UNL     1       5.328  -5.792  25.316  0.00  0.00    +0.095 A 
ATOM      7  C   UNL     1       5.531  -4.923  26.386  0.00  0.00    +0.163 A 
ATOM      8  C   UNL     1       7.250  -4.025  22.606  0.00  0.00    +0.238 A 
ATOM      9  O   UNL     1       7.106  -4.790  21.657  0.00  0.00    -0.283 OA
ATOM     10  C   UNL     1       6.235  -3.725  26.190  0.00  0.00    +0.095 A 
ATOM     11  C   UNL     1       8.081  -2.795  22.523  0.00  0.00    +0.208 A 
ENDROOT
BRANCH   1  13
ATOM     12  C   UNL     1       9.454  -0.170  24.723  0.00  0.00    +0.015 A 
ATOM     13  C   UNL     1       8.771  -0.623  23.581  0.00  0.00    +0.025 A 
ATOM     14  C   UNL     1       8.687   0.256  22.488  0.00  0.00    +0.061 A 
ATOM     15  C   UNL     1       9.276   1.519  22.536  0.00  0.00    +0.162 A 
ATOM     16  C   UNL     1       9.910   1.975  23.689  0.00  0.00    +0.200 A 
ATOM     17  C   UNL     1      10.019   1.115  24.780  0.00  0.00    +0.053 A 
BRANCH  15  18
ATOM     18  O   UNL     1       9.194   2.297  21.415  0.00  0.00    -0.503 OA
ATOM     19  H   UNL     1       8.754   1.771  20.724  0.00  0.00    +0.292 HD
ENDBRANCH  15  18
BRANCH  16  20
ATOM     20  O   UNL     1      10.407   3.252  23.658  0.00  0.00    -0.321 OA
BRANCH  20  21
ATOM     21  S   UNL     1       9.478   4.517  24.109  0.00  0.00    +0.251 S 
ATOM     22  O   UNL     1      10.319   5.672  24.331  0.00  0.00    -0.108 OA
ATOM     23  O   UNL     1       8.508   4.074  25.084  0.00  0.00    -0.108 OA
BRANCH  21  24
ATOM     24  O   UNL     1       8.612   4.803  22.779  0.00  0.00    -0.222 OA
ATOM     25  H   UNL     1       9.121   4.441  22.023  0.00  0.00    +0.248 HD
ENDBRANCH  21  24
ENDBRANCH  20  21
ENDBRANCH  16  20
ENDBRANCH   1  13
BRANCH   5  26
ATOM     26  O   UNL     1       5.653  -6.401  23.070  0.00  0.00    -0.506 OA
ATOM     27  H   UNL     1       5.417  -7.262  23.484  0.00  0.00    +0.292 HD
ENDBRANCH   5  26
BRANCH  11  28
ATOM     28  O   UNL     1       8.781  -2.613  21.346  0.00  0.00    -0.501 OA
ATOM     29  H   UNL     1       9.602  -2.138  21.546  0.00  0.00    +0.292 HD
ENDBRANCH  11  28
BRANCH   7  30
ATOM     30  O   UNL     1       5.051  -5.138  27.655  0.00  0.00    -0.347 OA
BRANCH  30  31
ATOM     31  S   UNL     1       5.744  -6.150  28.712  0.00  0.00    +0.108 S 
ATOM     32  S   UNL     1       5.413  -5.736  30.463  0.00  0.00    +0.118 S 
ATOM     33  O   UNL     1       7.159  -6.251  28.464  0.00  0.00    -0.138 OA
BRANCH  31  34
ATOM     34  O   UNL     1       5.196  -7.626  28.396  0.00  0.00    -0.247 OA
ATOM     35  H   UNL     1       4.892  -7.635  27.463  0.00  0.00    +0.245 HD
ENDBRANCH  31  34
ENDBRANCH  30  31
ENDBRANCH   7  30
TORSDOF 10
ENDMDL
MODEL 7
REMARK VINA RESULT:      -7.1      3.253      4.850
REMARK  Name = 
REMARK  10 active torsions:
REMARK  status: ('A' for Active; 'I' for Inactive)
REMARK    1  A    between atoms: C_3  and  O_26
REMARK    2  A    between atoms: C_4  and  O_25
REMARK    3  A    between atoms: C_6  and  C_7
REMARK    4  A    between atoms: C_8  and  O_24
REMARK    5  A    between atoms: C_12  and  O_23
REMARK    6  A    between atoms: C_14  and  O_18
REMARK    7  A    between atoms: O_18  and  S_19
REMARK    8  A    between atoms: S_19  and  O_22
REMARK    9  A    between atoms: O_26  and  S_27
REMARK   10  A    between atoms: S_27  and  O_30
REMARK                            x       y       z     vdW  Elec       q    Type
REMARK                         _______ _______ _______ _____ _____    ______ ____
ROOT
ATOM      1  C   UNL     1       7.989  -0.696  23.445  0.00  0.00    +0.181 A 
ATOM      2  O   UNL     1       6.832  -1.351  23.015  0.00  0.00    -0.451 OA
ATOM      3  C   UNL     1       6.769  -2.721  23.084  0.00  0.00    +0.147 A 
ATOM      4  C   UNL     1       7.851  -3.500  23.471  0.00  0.00    +0.109 A 
ATOM      5  C   UNL     1       7.748  -4.896  23.476  0.00  0.00    +0.135 A 
ATOM      6  C   UNL     1       6.552  -5.515  23.131  0.00  0.00    +0.095 A 
ATOM      7  C   UNL     1       5.445  -4.738  22.791  0.00  0.00    +0.163 A 
ATOM      8  C   UNL     1       9.080  -2.833  23.890  0.00  0.00    +0.238 A 
ATOM      9  O   UNL     1      10.059  -3.498  24.219  0.00  0.00    -0.283 OA
ATOM     10  C   UNL     1       5.561  -3.341  22.741  0.00  0.00    +0.095 A 
ATOM     11  C   UNL     1       9.074  -1.347  23.924  0.00  0.00    +0.208 A 
ENDROOT
BRANCH   1  13
ATOM     12  C   UNL     1       8.018   1.372  22.014  0.00  0.00    +0.015 A 
ATOM     13  C   UNL     1       7.911   0.787  23.287  0.00  0.00    +0.025 A 
ATOM     14  C   UNL     1       7.808   1.654  24.388  0.00  0.00    +0.061 A 
ATOM     15  C   UNL     1       7.795   3.038  24.213  0.00  0.00    +0.162 A 
ATOM     16  C   UNL     1       7.949   3.605  22.951  0.00  0.00    +0.200 A 
ATOM     17  C   UNL     1       8.037   2.766  21.843  0.00  0.00    +0.053 A 
BRANCH  15  18
ATOM     18  O   UNL     1       7.643   3.813  25.328  0.00  0.00    -0.503 OA
ATOM     19  H   UNL     1       6.871   4.389  25.183  0.00  0.00    +0.292 HD
ENDBRANCH  15  18
BRANCH  16  20
ATOM     20  O   UNL     1       7.982   4.975  22.889  0.00  0.00    -0.321 OA
BRANCH  20  21
ATOM     21  S   UNL     1       6.605   5.833  22.712  0.00  0.00    +0.251 S 
ATOM     22  O   UNL     1       6.798   6.843  21.695  0.00  0.00    -0.108 OA
ATOM     23  O   UNL     1       6.068   6.149  24.017  0.00  0.00    -0.108 OA
BRANCH  21  24
ATOM     24  O   UNL     1       5.586   4.737  22.113  0.00  0.00    -0.222 OA
ATOM     25  H   UNL     1       5.767   3.893  22.579  0.00  0.00    +0.248 HD
ENDBRANCH  21  24
ENDBRANCH  20  21
ENDBRANCH  16  20
ENDBRANCH   1  13
BRANCH   5  26
ATOM     26  O   UNL     1       8.788  -5.718  23.819  0.00  0.00    -0.506 OA
ATOM     27  H   UNL     1       8.785  -6.486  23.204  0.00  0.00    +0.292 HD
ENDBRANCH   5  26
BRANCH  11  28
ATOM     28  O   UNL     1      10.199  -0.747  24.458  0.00  0.00    -0.501 OA
ATOM     29  H   UNL     1      10.584  -0.163  23.786  0.00  0.00    +0.292 HD
ENDBRANCH  11  28
BRANCH   7  30
ATOM     30  O   UNL     1       4.217  -5.253  22.456  0.00  0.00    -0.347 OA
BRANCH  30  31
ATOM     31  S   UNL     1       3.223  -5.955  23.524  0.00  0.00    +0.108 S 
ATOM     32  S   UNL     1       1.468  -5.974  23.006  0.00  0.00    +0.118 S 
ATOM     33  O   UNL     1       3.370  -5.356  24.825  0.00  0.00    -0.138 OA
BRANCH  31  34
ATOM     34  O   UNL     1       3.735  -7.463  23.739  0.00  0.00    -0.247 OA
ATOM     35  H   UNL     1       3.109  -8.057  23.273  0.00  0.00    +0.245 HD
ENDBRANCH  31  34
ENDBRANCH  30  31
ENDBRANCH   7  30
TORSDOF 10
ENDMDL
MODEL 8
REMARK VINA RESULT:      -7.0      3.037      4.307
REMARK  Name = 
REMARK  10 active torsions:
REMARK  status: ('A' for Active; 'I' for Inactive)
REMARK    1  A    between atoms: C_3  and  O_26
REMARK    2  A    between atoms: C_4  and  O_25
REMARK    3  A    between atoms: C_6  and  C_7
REMARK    4  A    between atoms: C_8  and  O_24
REMARK    5  A    between atoms: C_12  and  O_23
REMARK    6  A    between atoms: C_14  and  O_18
REMARK    7  A    between atoms: O_18  and  S_19
REMARK    8  A    between atoms: S_19  and  O_22
REMARK    9  A    between atoms: O_26  and  S_27
REMARK   10  A    between atoms: S_27  and  O_30
REMARK                            x       y       z     vdW  Elec       q    Type
REMARK                         _______ _______ _______ _____ _____    ______ ____
ROOT
ATOM      1  C   UNL     1       8.242  -0.561  24.560  0.00  0.00    +0.181 A 
ATOM      2  O   UNL     1       7.480  -1.296  25.474  0.00  0.00    -0.451 OA
ATOM      3  C   UNL     1       7.835  -2.592  25.756  0.00  0.00    +0.147 A 
ATOM      4  C   UNL     1       8.865  -3.246  25.094  0.00  0.00    +0.109 A 
ATOM      5  C   UNL     1       9.153  -4.585  25.386  0.00  0.00    +0.135 A 
ATOM      6  C   UNL     1       8.436  -5.261  26.367  0.00  0.00    +0.095 A 
ATOM      7  C   UNL     1       7.433  -4.596  27.072  0.00  0.00    +0.163 A 
ATOM      8  C   UNL     1       9.648  -2.504  24.111  0.00  0.00    +0.238 A 
ATOM      9  O   UNL     1      10.553  -3.062  23.497  0.00  0.00    -0.283 OA
ATOM     10  C   UNL     1       7.114  -3.269  26.747  0.00  0.00    +0.095 A 
ATOM     11  C   UNL     1       9.321  -1.067  23.920  0.00  0.00    +0.208 A 
ENDROOT
BRANCH   1  13
ATOM     12  C   UNL     1       8.275   1.907  25.041  0.00  0.00    +0.015 A 
ATOM     13  C   UNL     1       7.718   0.820  24.345  0.00  0.00    +0.025 A 
ATOM     14  C   UNL     1       6.615   1.084  23.515  0.00  0.00    +0.061 A 
ATOM     15  C   UNL     1       6.111   2.377  23.380  0.00  0.00    +0.162 A 
ATOM     16  C   UNL     1       6.642   3.437  24.109  0.00  0.00    +0.200 A 
ATOM     17  C   UNL     1       7.746   3.203  24.926  0.00  0.00    +0.053 A 
BRANCH  15  18
ATOM     18  O   UNL     1       5.067   2.561  22.516  0.00  0.00    -0.503 OA
ATOM     19  H   UNL     1       4.945   1.731  22.021  0.00  0.00    +0.292 HD
ENDBRANCH  15  18
BRANCH  16  20
ATOM     20  O   UNL     1       6.041   4.659  23.952  0.00  0.00    -0.321 OA
BRANCH  20  21
ATOM     21  S   UNL     1       6.673   5.772  22.937  0.00  0.00    +0.251 S 
ATOM     22  O   UNL     1       7.797   6.418  23.577  0.00  0.00    -0.108 OA
ATOM     23  O   UNL     1       5.600   6.523  22.325  0.00  0.00    -0.108 OA
BRANCH  21  24
ATOM     24  O   UNL     1       7.259   4.860  21.743  0.00  0.00    -0.222 OA
ATOM     25  H   UNL     1       6.676   4.995  20.967  0.00  0.00    +0.248 HD
ENDBRANCH  21  24
ENDBRANCH  20  21
ENDBRANCH  16  20
ENDBRANCH   1  13
BRANCH   5  26
ATOM     26  O   UNL     1      10.136  -5.291  24.746  0.00  0.00    -0.506 OA
ATOM     27  H   UNL     1       9.726  -6.093  24.350  0.00  0.00    +0.292 HD
ENDBRANCH   5  26
BRANCH  11  28
ATOM     28  O   UNL     1      10.167  -0.356  23.091  0.00  0.00    -0.501 OA
ATOM     29  H   UNL     1      10.466  -0.943  22.379  0.00  0.00    +0.292 HD
ENDBRANCH  11  28
BRANCH   7  30
ATOM     30  O   UNL     1       6.686  -5.169  28.071  0.00  0.00    -0.347 OA
BRANCH  30  31
ATOM     31  S   UNL     1       5.452  -6.181  27.795  0.00  0.00    +0.108 S 
ATOM     32  S   UNL     1       3.806  -5.452  28.121  0.00  0.00    +0.118 S 
ATOM     33  O   UNL     1       5.629  -7.407  28.528  0.00  0.00    -0.138 OA
BRANCH  31  34
ATOM     34  O   UNL     1       5.541  -6.639  26.258  0.00  0.00    -0.247 OA
ATOM     35  H   UNL     1       5.861  -5.871  25.738  0.00  0.00    +0.245 HD
ENDBRANCH  31  34
ENDBRANCH  30  31
ENDBRANCH   7  30
TORSDOF 10
ENDMDL
MODEL 9
REMARK VINA RESULT:      -6.9      2.649      9.176
REMARK  Name = 
REMARK  10 active torsions:
REMARK  status: ('A' for Active; 'I' for Inactive)
REMARK    1  A    between atoms: C_3  and  O_26
REMARK    2  A    between atoms: C_4  and  O_25
REMARK    3  A    between atoms: C_6  and  C_7
REMARK    4  A    between atoms: C_8  and  O_24
REMARK    5  A    between atoms: C_12  and  O_23
REMARK    6  A    between atoms: C_14  and  O_18
REMARK    7  A    between atoms: O_18  and  S_19
REMARK    8  A    between atoms: S_19  and  O_22
REMARK    9  A    between atoms: O_26  and  S_27
REMARK   10  A    between atoms: S_27  and  O_30
REMARK                            x       y       z     vdW  Elec       q    Type
REMARK                         _______ _______ _______ _____ _____    ______ ____
ROOT
ATOM      1  C   UNL     1       7.633  -2.307  23.621  0.00  0.00    +0.181 A 
ATOM      2  O   UNL     1       6.875  -1.198  23.235  0.00  0.00    -0.451 OA
ATOM      3  C   UNL     1       7.497   0.012  23.052  0.00  0.00    +0.147 A 
ATOM      4  C   UNL     1       8.842   0.211  23.331  0.00  0.00    +0.109 A 
ATOM      5  C   UNL     1       9.416   1.478  23.174  0.00  0.00    +0.135 A 
ATOM      6  C   UNL     1       8.655   2.540  22.700  0.00  0.00    +0.095 A 
ATOM      7  C   UNL     1       7.316   2.337  22.368  0.00  0.00    +0.163 A 
ATOM      8  C   UNL     1       9.642  -0.930  23.769  0.00  0.00    +0.238 A 
ATOM      9  O   UNL     1      10.830  -0.779  24.042  0.00  0.00    -0.283 OA
ATOM     10  C   UNL     1       6.729   1.079  22.570  0.00  0.00    +0.095 A 
ATOM     11  C   UNL     1       8.968  -2.253  23.837  0.00  0.00    +0.208 A 
ENDROOT
BRANCH   1  13
ATOM     12  C   UNL     1       6.625  -4.090  25.079  0.00  0.00    +0.015 A 
ATOM     13  C   UNL     1       6.811  -3.540  23.799  0.00  0.00    +0.025 A 
ATOM     14  C   UNL     1       6.262  -4.239  22.711  0.00  0.00    +0.061 A 
ATOM     15  C   UNL     1       5.547  -5.422  22.904  0.00  0.00    +0.162 A 
ATOM     16  C   UNL     1       5.409  -5.980  24.172  0.00  0.00    +0.200 A 
ATOM     17  C   UNL     1       5.931  -5.297  25.267  0.00  0.00    +0.053 A 
BRANCH  15  18
ATOM     18  O   UNL     1       5.002  -6.017  21.801  0.00  0.00    -0.503 OA
ATOM     19  H   UNL     1       4.996  -6.978  21.958  0.00  0.00    +0.292 HD
ENDBRANCH  15  18
BRANCH  16  20
ATOM     20  O   UNL     1       4.739  -7.174  24.252  0.00  0.00    -0.321 OA
BRANCH  20  21
ATOM     21  S   UNL     1       3.127  -7.207  24.510  0.00  0.00    +0.251 S 
ATOM     22  O   UNL     1       2.438  -7.086  23.244  0.00  0.00    -0.108 OA
ATOM     23  O   UNL     1       2.807  -6.368  25.643  0.00  0.00    -0.108 OA
BRANCH  21  24
ATOM     24  O   UNL     1       2.892  -8.711  25.042  0.00  0.00    -0.222 OA
ATOM     25  H   UNL     1       2.967  -9.304  24.265  0.00  0.00    +0.248 HD
ENDBRANCH  21  24
ENDBRANCH  20  21
ENDBRANCH  16  20
ENDBRANCH   1  13
BRANCH   5  26
ATOM     26  O   UNL     1      10.728   1.742  23.462  0.00  0.00    -0.506 OA
ATOM     27  H   UNL     1      11.034   1.082  24.124  0.00  0.00    +0.292 HD
ENDBRANCH   5  26
BRANCH  11  28
ATOM     28  O   UNL     1       9.780  -3.335  24.116  0.00  0.00    -0.501 OA
ATOM     29  H   UNL     1       9.283  -3.959  24.666  0.00  0.00    +0.292 HD
ENDBRANCH  11  28
BRANCH   7  30
ATOM     30  O   UNL     1       6.488   3.315  21.873  0.00  0.00    -0.347 OA
BRANCH  30  31
ATOM     31  S   UNL     1       6.183   4.703  22.649  0.00  0.00    +0.108 S 
ATOM     32  S   UNL     1       7.353   6.052  22.250  0.00  0.00    +0.118 S 
ATOM     33  O   UNL     1       6.112   4.484  24.071  0.00  0.00    -0.138 OA
BRANCH  31  34
ATOM     34  O   UNL     1       4.691   5.154  22.259  0.00  0.00    -0.247 OA
ATOM     35  H   UNL     1       4.091   4.837  22.968  0.00  0.00    +0.245 HD
ENDBRANCH  31  34
ENDBRANCH  30  31
ENDBRANCH   7  30
TORSDOF 10
ENDMDL
