MODEL 1
REMARK VINA RESULT:      -7.3      0.000      0.000
REMARK  Name = 
REMARK  14 active torsions:
REMARK  status: ('A' for Active; 'I' for Inactive)
REMARK    1  A    between atoms: C_1  and  C_2
REMARK    2  A    between atoms: C_2  and  O_4
REMARK    3  A    between atoms: O_4  and  C_5
REMARK    4  A    between atoms: C_5  and  C_6
REMARK    5  A    between atoms: C_7  and  O_39
REMARK    6  A    between atoms: C_9  and  O_38
REMARK    7  A    between atoms: C_11  and  O_37
REMARK    8  A    between atoms: C_12  and  O_15
REMARK    9  A    between atoms: O_15  and  C_16
REMARK   10  A    between atoms: C_17  and  C_29
REMARK   11  A    between atoms: C_21  and  O_28
REMARK   12  A    between atoms: C_23  and  O_27
REMARK   13  A    between atoms: C_31  and  O_36
REMARK   14  A    between atoms: C_32  and  O_35
REMARK                            x       y       z     vdW  Elec       q    Type
REMARK                         _______ _______ _______ _____ _____    ______ ____
ROOT
ATOM      1  C   UNL     1       8.672  -1.318  23.389  0.00  0.00    +0.214 A 
ATOM      2  C   UNL     1       9.486  -0.072  23.272  0.00  0.00    +0.238 A 
ATOM      3  O   UNL     1      10.709  -0.112  23.288  0.00  0.00    -0.283 OA
ATOM      4  C   UNL     1       8.760   1.184  23.089  0.00  0.00    +0.109 A 
ATOM      5  C   UNL     1       7.476   1.101  22.565  0.00  0.00    +0.147 A 
ATOM      6  C   UNL     1       6.804   2.270  22.198  0.00  0.00    +0.092 A 
ATOM      7  C   UNL     1       7.425   3.504  22.395  0.00  0.00    +0.124 A 
ATOM      8  C   UNL     1       8.679   3.595  22.989  0.00  0.00    +0.091 A 
ATOM      9  O   UNL     1       6.835  -0.101  22.371  0.00  0.00    -0.451 OA
ATOM     10  C   UNL     1       9.345   2.430  23.348  0.00  0.00    +0.135 A 
ATOM     11  C   UNL     1       7.412  -1.271  22.885  0.00  0.00    +0.181 A 
ENDROOT
BRANCH  11  12
ATOM     12  C   UNL     1       6.535  -2.474  22.709  0.00  0.00    +0.025 A 
ATOM     13  C   UNL     1       6.840  -3.441  21.727  0.00  0.00    +0.015 A 
ATOM     14  C   UNL     1       6.095  -4.625  21.606  0.00  0.00    +0.050 A 
ATOM     15  C   UNL     1       5.036  -4.855  22.465  0.00  0.00    +0.158 A 
ATOM     16  C   UNL     1       4.681  -3.898  23.404  0.00  0.00    +0.159 A 
ATOM     17  C   UNL     1       5.403  -2.710  23.509  0.00  0.00    +0.060 A 
BRANCH  15  18
ATOM     18  O   UNL     1       4.349  -6.031  22.387  0.00  0.00    -0.503 OA
ATOM     19  H   UNL     1       3.507  -5.797  21.945  0.00  0.00    +0.292 HD
ENDBRANCH  15  18
BRANCH  16  20
ATOM     20  O   UNL     1       3.616  -4.170  24.221  0.00  0.00    -0.503 OA
ATOM     21  H   UNL     1       2.868  -4.453  23.663  0.00  0.00    +0.292 HD
ENDBRANCH  16  20
ENDBRANCH  11  12
BRANCH   7  22
ATOM     22  O   UNL     1       6.832   4.674  22.021  0.00  0.00    -0.507 OA
ATOM     23  H   UNL     1       7.442   5.180  21.459  0.00  0.00    +0.292 HD
ENDBRANCH   7  22
BRANCH  10  24
ATOM     24  O   UNL     1      10.549   2.514  23.986  0.00  0.00    -0.506 OA
ATOM     25  H   UNL     1      11.204   1.953  23.538  0.00  0.00    +0.292 HD
ENDBRANCH  10  24
BRANCH   1  26
ATOM     26  O   UNL     1       9.272  -2.477  23.857  0.00  0.00    -0.453 OA
BRANCH  26  29
ATOM     27  C   UNL     1       7.836  -3.674  27.006  0.00  0.00    +0.191 C 
ATOM     28  O   UNL     1       8.615  -2.912  26.059  0.00  0.00    -0.330 OA
ATOM     29  C   UNL     1       8.450  -3.319  24.692  0.00  0.00    +0.340 C 
ATOM     30  C   UNL     1       8.924  -4.787  24.544  0.00  0.00    +0.214 C 
ATOM     31  C   UNL     1       8.128  -5.705  25.483  0.00  0.00    +0.180 C 
ATOM     32  C   UNL     1       8.213  -5.164  26.927  0.00  0.00    +0.178 C 
BRANCH  30  33
ATOM     33  O   UNL     1      10.326  -4.886  24.875  0.00  0.00    -0.383 OA
ATOM     34  H   UNL     1      10.476  -4.250  25.605  0.00  0.00    +0.210 HD
ENDBRANCH  30  33
BRANCH  31  35
ATOM     35  O   UNL     1       6.772  -5.898  25.063  0.00  0.00    -0.386 OA
ATOM     36  H   UNL     1       6.252  -5.080  25.108  0.00  0.00    +0.210 HD
ENDBRANCH  31  35
BRANCH  32  37
ATOM     37  O   UNL     1       7.454  -5.965  27.828  0.00  0.00    -0.386 OA
ATOM     38  H   UNL     1       6.674  -5.450  28.104  0.00  0.00    +0.210 HD
ENDBRANCH  32  37
BRANCH  27  39
ATOM     39  C   UNL     1       6.316  -3.411  26.925  0.00  0.00    +0.266 C 
BRANCH  39  40
ATOM     40  O   UNL     1       5.626  -3.994  28.046  0.00  0.00    -0.462 OA
BRANCH  40  42
ATOM     41  C   UNL     1       3.420  -4.429  28.701  0.00  0.00    +0.136 C 
ATOM     42  C   UNL     1       4.530  -4.737  27.743  0.00  0.00    +0.304 C 
ATOM     43  O   UNL     1       4.452  -5.541  26.824  0.00  0.00    -0.251 OA
ENDBRANCH  40  42
ENDBRANCH  39  40
ENDBRANCH  27  39
ENDBRANCH  26  29
ENDBRANCH   1  26
TORSDOF 13
ENDMDL
MODEL 2
REMARK VINA RESULT:      -7.2      3.015      7.820
REMARK  Name = 
REMARK  14 active torsions:
REMARK  status: ('A' for Active; 'I' for Inactive)
REMARK    1  A    between atoms: C_1  and  C_2
REMARK    2  A    between atoms: C_2  and  O_4
REMARK    3  A    between atoms: O_4  and  C_5
REMARK    4  A    between atoms: C_5  and  C_6
REMARK    5  A    between atoms: C_7  and  O_39
REMARK    6  A    between atoms: C_9  and  O_38
REMARK    7  A    between atoms: C_11  and  O_37
REMARK    8  A    between atoms: C_12  and  O_15
REMARK    9  A    between atoms: O_15  and  C_16
REMARK   10  A    between atoms: C_17  and  C_29
REMARK   11  A    between atoms: C_21  and  O_28
REMARK   12  A    between atoms: C_23  and  O_27
REMARK   13  A    between atoms: C_31  and  O_36
REMARK   14  A    between atoms: C_32  and  O_35
REMARK                            x       y       z     vdW  Elec       q    Type
REMARK                         _______ _______ _______ _____ _____    ______ ____
ROOT
ATOM      1  C   UNL     1       7.376   3.780  24.269  0.00  0.00    +0.214 A 
ATOM      2  C   UNL     1       5.938   3.415  24.118  0.00  0.00    +0.238 A 
ATOM      3  O   UNL     1       5.478   2.418  24.659  0.00  0.00    -0.283 OA
ATOM      4  C   UNL     1       5.096   4.326  23.343  0.00  0.00    +0.109 A 
ATOM      5  C   UNL     1       5.532   5.639  23.222  0.00  0.00    +0.147 A 
ATOM      6  C   UNL     1       4.688   6.596  22.651  0.00  0.00    +0.092 A 
ATOM      7  C   UNL     1       3.432   6.205  22.183  0.00  0.00    +0.124 A 
ATOM      8  C   UNL     1       3.024   4.876  22.233  0.00  0.00    +0.091 A 
ATOM      9  O   UNL     1       6.767   6.050  23.664  0.00  0.00    -0.451 OA
ATOM     10  C   UNL     1       3.865   3.930  22.806  0.00  0.00    +0.135 A 
ATOM     11  C   UNL     1       7.696   5.087  24.081  0.00  0.00    +0.181 A 
ENDROOT
BRANCH  11  12
ATOM     12  C   UNL     1       9.035   5.676  24.407  0.00  0.00    +0.025 A 
ATOM     13  C   UNL     1       9.225   6.396  25.606  0.00  0.00    +0.015 A 
ATOM     14  C   UNL     1      10.490   6.873  25.984  0.00  0.00    +0.050 A 
ATOM     15  C   UNL     1      11.580   6.638  25.167  0.00  0.00    +0.158 A 
ATOM     16  C   UNL     1      11.414   5.980  23.957  0.00  0.00    +0.159 A 
ATOM     17  C   UNL     1      10.153   5.528  23.568  0.00  0.00    +0.060 A 
BRANCH  15  18
ATOM     18  O   UNL     1      12.820   7.049  25.561  0.00  0.00    -0.503 OA
ATOM     19  H   UNL     1      13.267   7.314  24.732  0.00  0.00    +0.292 HD
ENDBRANCH  15  18
BRANCH  16  20
ATOM     20  O   UNL     1      12.523   5.785  23.178  0.00  0.00    -0.503 OA
ATOM     21  H   UNL     1      13.179   5.290  23.702  0.00  0.00    +0.292 HD
ENDBRANCH  16  20
ENDBRANCH  11  12
BRANCH   7  22
ATOM     22  O   UNL     1       2.552   7.102  21.651  0.00  0.00    -0.507 OA
ATOM     23  H   UNL     1       2.929   7.996  21.708  0.00  0.00    +0.292 HD
ENDBRANCH   7  22
BRANCH  10  24
ATOM     24  O   UNL     1       3.496   2.616  22.803  0.00  0.00    -0.506 OA
ATOM     25  H   UNL     1       3.581   2.247  21.908  0.00  0.00    +0.292 HD
ENDBRANCH  10  24
BRANCH   1  26
ATOM     26  O   UNL     1       8.272   2.825  24.726  0.00  0.00    -0.453 OA
BRANCH  26  29
ATOM     27  C   UNL     1       9.115  -0.634  23.871  0.00  0.00    +0.191 C 
ATOM     28  O   UNL     1       8.858   0.563  24.635  0.00  0.00    -0.330 OA
ATOM     29  C   UNL     1       8.509   1.709  23.843  0.00  0.00    +0.340 C 
ATOM     30  C   UNL     1       9.695   2.053  22.908  0.00  0.00    +0.214 C 
ATOM     31  C   UNL     1      10.034   0.855  22.008  0.00  0.00    +0.180 C 
ATOM     32  C   UNL     1      10.272  -0.396  22.883  0.00  0.00    +0.178 C 
BRANCH  30  33
ATOM     33  O   UNL     1      10.859   2.388  23.693  0.00  0.00    -0.383 OA
ATOM     34  H   UNL     1      10.593   2.280  24.630  0.00  0.00    +0.210 HD
ENDBRANCH  30  33
BRANCH  31  35
ATOM     35  O   UNL     1       9.051   0.619  20.993  0.00  0.00    -0.386 OA
ATOM     36  H   UNL     1       8.154   0.835  21.292  0.00  0.00    +0.210 HD
ENDBRANCH  31  35
BRANCH  32  37
ATOM     37  O   UNL     1      10.550  -1.543  22.086  0.00  0.00    -0.386 OA
ATOM     38  H   UNL     1      10.255  -1.356  21.177  0.00  0.00    +0.210 HD
ENDBRANCH  32  37
BRANCH  27  39
ATOM     39  C   UNL     1       7.856  -1.247  23.219  0.00  0.00    +0.266 C 
BRANCH  39  40
ATOM     40  O   UNL     1       8.096  -2.601  22.794  0.00  0.00    -0.462 OA
BRANCH  40  42
ATOM     41  C   UNL     1       7.138  -4.044  24.370  0.00  0.00    +0.136 C 
ATOM     42  C   UNL     1       8.396  -3.485  23.780  0.00  0.00    +0.304 C 
ATOM     43  O   UNL     1       9.526  -3.786  24.141  0.00  0.00    -0.251 OA
ENDBRANCH  40  42
ENDBRANCH  39  40
ENDBRANCH  27  39
ENDBRANCH  26  29
ENDBRANCH   1  26
TORSDOF 13
ENDMDL
MODEL 3
REMARK VINA RESULT:      -7.1      2.462      5.137
REMARK  Name = 
REMARK  14 active torsions:
REMARK  status: ('A' for Active; 'I' for Inactive)
REMARK    1  A    between atoms: C_1  and  C_2
REMARK    2  A    between atoms: C_2  and  O_4
REMARK    3  A    between atoms: O_4  and  C_5
REMARK    4  A    between atoms: C_5  and  C_6
REMARK    5  A    between atoms: C_7  and  O_39
REMARK    6  A    between atoms: C_9  and  O_38
REMARK    7  A    between atoms: C_11  and  O_37
REMARK    8  A    between atoms: C_12  and  O_15
REMARK    9  A    between atoms: O_15  and  C_16
REMARK   10  A    between atoms: C_17  and  C_29
REMARK   11  A    between atoms: C_21  and  O_28
REMARK   12  A    between atoms: C_23  and  O_27
REMARK   13  A    between atoms: C_31  and  O_36
REMARK   14  A    between atoms: C_32  and  O_35
REMARK                            x       y       z     vdW  Elec       q    Type
REMARK                         _______ _______ _______ _____ _____    ______ ____
ROOT
ATOM      1  C   UNL     1       7.388  -4.099  24.435  0.00  0.00    +0.214 A 
ATOM      2  C   UNL     1       7.933  -3.223  23.357  0.00  0.00    +0.238 A 
ATOM      3  O   UNL     1       7.634  -3.403  22.183  0.00  0.00    -0.283 OA
ATOM      4  C   UNL     1       8.794  -2.115  23.769  0.00  0.00    +0.109 A 
ATOM      5  C   UNL     1       8.662  -1.665  25.077  0.00  0.00    +0.147 A 
ATOM      6  C   UNL     1       9.322  -0.499  25.474  0.00  0.00    +0.092 A 
ATOM      7  C   UNL     1      10.129   0.174  24.557  0.00  0.00    +0.124 A 
ATOM      8  C   UNL     1      10.325  -0.315  23.270  0.00  0.00    +0.091 A 
ATOM      9  O   UNL     1       7.882  -2.315  26.004  0.00  0.00    -0.451 OA
ATOM     10  C   UNL     1       9.662  -1.472  22.878  0.00  0.00    +0.135 A 
ATOM     11  C   UNL     1       7.349  -3.572  25.686  0.00  0.00    +0.181 A 
ENDROOT
BRANCH  11  12
ATOM     12  C   UNL     1       6.637  -4.208  26.841  0.00  0.00    +0.025 A 
ATOM     13  C   UNL     1       5.462  -3.626  27.363  0.00  0.00    +0.015 A 
ATOM     14  C   UNL     1       4.720  -4.252  28.377  0.00  0.00    +0.050 A 
ATOM     15  C   UNL     1       5.145  -5.466  28.883  0.00  0.00    +0.158 A 
ATOM     16  C   UNL     1       6.324  -6.036  28.427  0.00  0.00    +0.159 A 
ATOM     17  C   UNL     1       7.076  -5.403  27.437  0.00  0.00    +0.060 A 
BRANCH  15  18
ATOM     18  O   UNL     1       4.393  -6.104  29.826  0.00  0.00    -0.503 OA
ATOM     19  H   UNL     1       4.445  -7.051  29.585  0.00  0.00    +0.292 HD
ENDBRANCH  15  18
BRANCH  16  20
ATOM     20  O   UNL     1       6.707  -7.233  28.971  0.00  0.00    -0.503 OA
ATOM     21  H   UNL     1       7.681  -7.267  28.977  0.00  0.00    +0.292 HD
ENDBRANCH  16  20
ENDBRANCH  11  12
BRANCH   7  22
ATOM     22  O   UNL     1      10.766   1.337  24.878  0.00  0.00    -0.507 OA
ATOM     23  H   UNL     1      11.697   1.148  25.086  0.00  0.00    +0.292 HD
ENDBRANCH   7  22
BRANCH  10  24
ATOM     24  O   UNL     1       9.896  -1.992  21.637  0.00  0.00    -0.506 OA
ATOM     25  H   UNL     1      10.666  -1.556  21.233  0.00  0.00    +0.292 HD
ENDBRANCH  10  24
BRANCH   1  26
ATOM     26  O   UNL     1       6.824  -5.319  24.095  0.00  0.00    -0.453 OA
BRANCH  26  29
ATOM     27  C   UNL     1       3.657  -7.117  24.480  0.00  0.00    +0.191 C 
ATOM     28  O   UNL     1       5.052  -6.840  24.238  0.00  0.00    -0.330 OA
ATOM     29  C   UNL     1       5.410  -5.454  24.352  0.00  0.00    +0.340 C 
ATOM     30  C   UNL     1       4.628  -4.643  23.290  0.00  0.00    +0.214 C 
ATOM     31  C   UNL     1       3.115  -4.830  23.478  0.00  0.00    +0.180 C 
ATOM     32  C   UNL     1       2.779  -6.338  23.485  0.00  0.00    +0.178 C 
BRANCH  30  33
ATOM     33  O   UNL     1       4.990  -5.092  21.966  0.00  0.00    -0.383 OA
ATOM     34  H   UNL     1       4.344  -4.679  21.355  0.00  0.00    +0.210 HD
ENDBRANCH  30  33
BRANCH  31  35
ATOM     35  O   UNL     1       2.607  -4.164  24.640  0.00  0.00    -0.386 OA
ATOM     36  H   UNL     1       2.947  -4.547  25.463  0.00  0.00    +0.210 HD
ENDBRANCH  31  35
BRANCH  32  37
ATOM     37  O   UNL     1       1.388  -6.559  23.699  0.00  0.00    -0.386 OA
ATOM     38  H   UNL     1       1.213  -7.510  23.579  0.00  0.00    +0.210 HD
ENDBRANCH  32  37
BRANCH  27  39
ATOM     39  C   UNL     1       3.229  -6.946  25.955  0.00  0.00    +0.266 C 
BRANCH  39  40
ATOM     40  O   UNL     1       1.930  -7.519  26.190  0.00  0.00    -0.462 OA
BRANCH  40  42
ATOM     41  C   UNL     1       0.514  -8.595  27.714  0.00  0.00    +0.136 C 
ATOM     42  C   UNL     1       1.495  -7.489  27.477  0.00  0.00    +0.304 C 
ATOM     43  O   UNL     1       1.849  -6.680  28.325  0.00  0.00    -0.251 OA
ENDBRANCH  40  42
ENDBRANCH  39  40
ENDBRANCH  27  39
ENDBRANCH  26  29
ENDBRANCH   1  26
TORSDOF 13
ENDMDL
MODEL 4
REMARK VINA RESULT:      -7.1      2.624      7.479
REMARK  Name = 
REMARK  14 active torsions:
REMARK  status: ('A' for Active; 'I' for Inactive)
REMARK    1  A    between atoms: C_1  and  C_2
REMARK    2  A    between atoms: C_2  and  O_4
REMARK    3  A    between atoms: O_4  and  C_5
REMARK    4  A    between atoms: C_5  and  C_6
REMARK    5  A    between atoms: C_7  and  O_39
REMARK    6  A    between atoms: C_9  and  O_38
REMARK    7  A    between atoms: C_11  and  O_37
REMARK    8  A    between atoms: C_12  and  O_15
REMARK    9  A    between atoms: O_15  and  C_16
REMARK   10  A    between atoms: C_17  and  C_29
REMARK   11  A    between atoms: C_21  and  O_28
REMARK   12  A    between atoms: C_23  and  O_27
REMARK   13  A    between atoms: C_31  and  O_36
REMARK   14  A    between atoms: C_32  and  O_35
REMARK                            x       y       z     vdW  Elec       q    Type
REMARK                         _______ _______ _______ _____ _____    ______ ____
ROOT
ATOM      1  C   UNL     1       6.030  -0.887  24.317  0.00  0.00    +0.214 A 
ATOM      2  C   UNL     1       6.285  -1.871  23.226  0.00  0.00    +0.238 A 
ATOM      3  O   UNL     1       6.917  -1.557  22.225  0.00  0.00    -0.283 OA
ATOM      4  C   UNL     1       5.794  -3.233  23.428  0.00  0.00    +0.109 A 
ATOM      5  C   UNL     1       5.577  -3.639  24.739  0.00  0.00    +0.147 A 
ATOM      6  C   UNL     1       5.283  -4.978  25.007  0.00  0.00    +0.092 A 
ATOM      7  C   UNL     1       5.182  -5.880  23.947  0.00  0.00    +0.124 A 
ATOM      8  C   UNL     1       5.323  -5.463  22.627  0.00  0.00    +0.091 A 
ATOM      9  O   UNL     1       5.659  -2.770  25.802  0.00  0.00    -0.451 OA
ATOM     10  C   UNL     1       5.620  -4.130  22.367  0.00  0.00    +0.135 A 
ATOM     11  C   UNL     1       5.782  -1.396  25.551  0.00  0.00    +0.181 A 
ENDROOT
BRANCH  11  12
ATOM     12  C   UNL     1       5.726  -0.572  26.802  0.00  0.00    +0.025 A 
ATOM     13  C   UNL     1       4.495  -0.353  27.458  0.00  0.00    +0.015 A 
ATOM     14  C   UNL     1       4.427   0.329  28.683  0.00  0.00    +0.050 A 
ATOM     15  C   UNL     1       5.588   0.803  29.266  0.00  0.00    +0.158 A 
ATOM     16  C   UNL     1       6.805   0.649  28.618  0.00  0.00    +0.159 A 
ATOM     17  C   UNL     1       6.872  -0.007  27.389  0.00  0.00    +0.060 A 
BRANCH  15  18
ATOM     18  O   UNL     1       5.530   1.414  30.484  0.00  0.00    -0.503 OA
ATOM     19  H   UNL     1       4.702   1.083  30.887  0.00  0.00    +0.292 HD
ENDBRANCH  15  18
BRANCH  16  20
ATOM     20  O   UNL     1       7.923   1.148  29.232  0.00  0.00    -0.503 OA
ATOM     21  H   UNL     1       7.956   2.109  29.071  0.00  0.00    +0.292 HD
ENDBRANCH  16  20
ENDBRANCH  11  12
BRANCH   7  22
ATOM     22  O   UNL     1       4.935  -7.206  24.152  0.00  0.00    -0.507 OA
ATOM     23  H   UNL     1       4.908  -7.385  25.106  0.00  0.00    +0.292 HD
ENDBRANCH   7  22
BRANCH  10  24
ATOM     24  O   UNL     1       5.699  -3.702  21.073  0.00  0.00    -0.506 OA
ATOM     25  H   UNL     1       6.464  -3.111  20.964  0.00  0.00    +0.292 HD
ENDBRANCH  10  24
BRANCH   1  26
ATOM     26  O   UNL     1       6.200   0.466  24.062  0.00  0.00    -0.453 OA
BRANCH  26  29
ATOM     27  C   UNL     1       9.678   1.582  24.332  0.00  0.00    +0.191 C 
ATOM     28  O   UNL     1       8.338   1.180  24.687  0.00  0.00    -0.330 OA
ATOM     29  C   UNL     1       7.500   0.855  23.568  0.00  0.00    +0.340 C 
ATOM     30  C   UNL     1       7.340   2.113  22.677  0.00  0.00    +0.214 C 
ATOM     31  C   UNL     1       8.713   2.610  22.201  0.00  0.00    +0.180 C 
ATOM     32  C   UNL     1       9.637   2.822  23.420  0.00  0.00    +0.178 C 
BRANCH  30  33
ATOM     33  O   UNL     1       6.699   3.167  23.427  0.00  0.00    -0.383 OA
ATOM     34  H   UNL     1       5.840   2.803  23.726  0.00  0.00    +0.210 HD
ENDBRANCH  30  33
BRANCH  31  35
ATOM     35  O   UNL     1       9.310   1.755  21.219  0.00  0.00    -0.386 OA
ATOM     36  H   UNL     1       9.511   2.225  20.395  0.00  0.00    +0.210 HD
ENDBRANCH  31  35
BRANCH  32  37
ATOM     37  O   UNL     1      10.937   3.245  23.021  0.00  0.00    -0.386 OA
ATOM     38  H   UNL     1      11.565   2.533  23.237  0.00  0.00    +0.210 HD
ENDBRANCH  32  37
BRANCH  27  39
ATOM     39  C   UNL     1      10.554   0.434  23.782  0.00  0.00    +0.266 C 
BRANCH  39  40
ATOM     40  O   UNL     1      10.199  -0.825  24.384  0.00  0.00    -0.462 OA
BRANCH  40  42
ATOM     41  C   UNL     1       9.533  -3.065  24.237  0.00  0.00    +0.136 C 
ATOM     42  C   UNL     1      10.140  -1.887  23.539  0.00  0.00    +0.304 C 
ATOM     43  O   UNL     1      10.525  -1.889  22.377  0.00  0.00    -0.251 OA
ENDBRANCH  40  42
ENDBRANCH  39  40
ENDBRANCH  27  39
ENDBRANCH  26  29
ENDBRANCH   1  26
TORSDOF 13
ENDMDL
MODEL 5
REMARK VINA RESULT:      -6.9      2.287      7.550
REMARK  Name = 
REMARK  14 active torsions:
REMARK  status: ('A' for Active; 'I' for Inactive)
REMARK    1  A    between atoms: C_1  and  C_2
REMARK    2  A    between atoms: C_2  and  O_4
REMARK    3  A    between atoms: O_4  and  C_5
REMARK    4  A    between atoms: C_5  and  C_6
REMARK    5  A    between atoms: C_7  and  O_39
REMARK    6  A    between atoms: C_9  and  O_38
REMARK    7  A    between atoms: C_11  and  O_37
REMARK    8  A    between atoms: C_12  and  O_15
REMARK    9  A    between atoms: O_15  and  C_16
REMARK   10  A    between atoms: C_17  and  C_29
REMARK   11  A    between atoms: C_21  and  O_28
REMARK   12  A    between atoms: C_23  and  O_27
REMARK   13  A    between atoms: C_31  and  O_36
REMARK   14  A    between atoms: C_32  and  O_35
REMARK                            x       y       z     vdW  Elec       q    Type
REMARK                         _______ _______ _______ _____ _____    ______ ____
ROOT
ATOM      1  C   UNL     1       7.076  -3.141  24.015  0.00  0.00    +0.214 A 
ATOM      2  C   UNL     1       6.599  -4.471  23.536  0.00  0.00    +0.238 A 
ATOM      3  O   UNL     1       7.390  -5.345  23.205  0.00  0.00    -0.283 OA
ATOM      4  C   UNL     1       5.155  -4.699  23.528  0.00  0.00    +0.109 A 
ATOM      5  C   UNL     1       4.387  -3.912  24.376  0.00  0.00    +0.147 A 
ATOM      6  C   UNL     1       3.031  -4.204  24.548  0.00  0.00    +0.092 A 
ATOM      7  C   UNL     1       2.466  -5.263  23.836  0.00  0.00    +0.124 A 
ATOM      8  C   UNL     1       3.214  -6.004  22.927  0.00  0.00    +0.091 A 
ATOM      9  O   UNL     1       4.914  -2.856  25.082  0.00  0.00    -0.451 OA
ATOM     10  C   UNL     1       4.563  -5.713  22.765  0.00  0.00    +0.135 A 
ATOM     11  C   UNL     1       6.222  -2.436  24.802  0.00  0.00    +0.181 A 
ENDROOT
BRANCH  11  12
ATOM     12  C   UNL     1       6.606  -1.197  25.554  0.00  0.00    +0.025 A 
ATOM     13  C   UNL     1       5.944   0.024  25.301  0.00  0.00    +0.015 A 
ATOM     14  C   UNL     1       6.213   1.175  26.059  0.00  0.00    +0.050 A 
ATOM     15  C   UNL     1       7.147   1.120  27.076  0.00  0.00    +0.158 A 
ATOM     16  C   UNL     1       7.851  -0.052  27.311  0.00  0.00    +0.159 A 
ATOM     17  C   UNL     1       7.604  -1.190  26.543  0.00  0.00    +0.060 A 
BRANCH  15  18
ATOM     18  O   UNL     1       7.367   2.221  27.851  0.00  0.00    -0.503 OA
ATOM     19  H   UNL     1       6.896   2.031  28.688  0.00  0.00    +0.292 HD
ENDBRANCH  15  18
BRANCH  16  20
ATOM     20  O   UNL     1       8.775  -0.050  28.322  0.00  0.00    -0.503 OA
ATOM     21  H   UNL     1       9.497   0.555  28.073  0.00  0.00    +0.292 HD
ENDBRANCH  16  20
ENDBRANCH  11  12
BRANCH   7  22
ATOM     22  O   UNL     1       1.158  -5.617  23.992  0.00  0.00    -0.507 OA
ATOM     23  H   UNL     1       0.640  -4.835  24.248  0.00  0.00    +0.292 HD
ENDBRANCH   7  22
BRANCH  10  24
ATOM     24  O   UNL     1       5.289  -6.396  21.831  0.00  0.00    -0.506 OA
ATOM     25  H   UNL     1       5.355  -5.874  21.014  0.00  0.00    +0.292 HD
ENDBRANCH  10  24
BRANCH   1  26
ATOM     26  O   UNL     1       8.387  -2.762  23.767  0.00  0.00    -0.453 OA
BRANCH  26  29
ATOM     27  C   UNL     1       8.308   0.312  21.779  0.00  0.00    +0.191 C 
ATOM     28  O   UNL     1       8.158  -1.069  22.170  0.00  0.00    -0.330 OA
ATOM     29  C   UNL     1       8.598  -1.359  23.506  0.00  0.00    +0.340 C 
ATOM     30  C   UNL     1      10.112  -1.051  23.614  0.00  0.00    +0.214 C 
ATOM     31  C   UNL     1      10.389   0.417  23.258  0.00  0.00    +0.180 C 
ATOM     32  C   UNL     1       9.786   0.734  21.872  0.00  0.00    +0.178 C 
BRANCH  30  33
ATOM     33  O   UNL     1      10.851  -1.897  22.706  0.00  0.00    -0.383 OA
ATOM     34  H   UNL     1      11.756  -1.962  23.073  0.00  0.00    +0.210 HD
ENDBRANCH  30  33
BRANCH  31  35
ATOM     35  O   UNL     1       9.936   1.333  24.261  0.00  0.00    -0.386 OA
ATOM     36  H   UNL     1       9.094   1.058  24.657  0.00  0.00    +0.210 HD
ENDBRANCH  31  35
BRANCH  32  37
ATOM     37  O   UNL     1       9.984   2.099  21.519  0.00  0.00    -0.386 OA
ATOM     38  H   UNL     1      10.846   2.380  21.875  0.00  0.00    +0.210 HD
ENDBRANCH  32  37
BRANCH  27  39
ATOM     39  C   UNL     1       7.338   1.277  22.497  0.00  0.00    +0.266 C 
BRANCH  39  40
ATOM     40  O   UNL     1       7.346   2.578  21.880  0.00  0.00    -0.462 OA
BRANCH  40  42
ATOM     41  C   UNL     1       7.078   4.891  22.128  0.00  0.00    +0.136 C 
ATOM     42  C   UNL     1       7.622   3.621  22.705  0.00  0.00    +0.304 C 
ATOM     43  O   UNL     1       8.227   3.542  23.766  0.00  0.00    -0.251 OA
ENDBRANCH  40  42
ENDBRANCH  39  40
ENDBRANCH  27  39
ENDBRANCH  26  29
ENDBRANCH   1  26
TORSDOF 13
ENDMDL
MODEL 6
REMARK VINA RESULT:      -6.8      2.569      4.786
REMARK  Name = 
REMARK  14 active torsions:
REMARK  status: ('A' for Active; 'I' for Inactive)
REMARK    1  A    between atoms: C_1  and  C_2
REMARK    2  A    between atoms: C_2  and  O_4
REMARK    3  A    between atoms: O_4  and  C_5
REMARK    4  A    between atoms: C_5  and  C_6
REMARK    5  A    between atoms: C_7  and  O_39
REMARK    6  A    between atoms: C_9  and  O_38
REMARK    7  A    between atoms: C_11  and  O_37
REMARK    8  A    between atoms: C_12  and  O_15
REMARK    9  A    between atoms: O_15  and  C_16
REMARK   10  A    between atoms: C_17  and  C_29
REMARK   11  A    between atoms: C_21  and  O_28
REMARK   12  A    between atoms: C_23  and  O_27
REMARK   13  A    between atoms: C_31  and  O_36
REMARK   14  A    between atoms: C_32  and  O_35
REMARK                            x       y       z     vdW  Elec       q    Type
REMARK                         _______ _______ _______ _____ _____    ______ ____
ROOT
ATOM      1  C   UNL     1       7.730   2.055  23.941  0.00  0.00    +0.214 A 
ATOM      2  C   UNL     1       7.946   3.501  24.236  0.00  0.00    +0.238 A 
ATOM      3  O   UNL     1       7.093   4.162  24.814  0.00  0.00    -0.283 OA
ATOM      4  C   UNL     1       9.234   4.075  23.853  0.00  0.00    +0.109 A 
ATOM      5  C   UNL     1      10.299   3.195  23.703  0.00  0.00    +0.147 A 
ATOM      6  C   UNL     1      11.589   3.699  23.517  0.00  0.00    +0.092 A 
ATOM      7  C   UNL     1      11.779   5.080  23.452  0.00  0.00    +0.124 A 
ATOM      8  C   UNL     1      10.706   5.962  23.524  0.00  0.00    +0.091 A 
ATOM      9  O   UNL     1      10.140   1.831  23.752  0.00  0.00    -0.451 OA
ATOM     10  C   UNL     1       9.426   5.456  23.714  0.00  0.00    +0.135 A 
ATOM     11  C   UNL     1       8.843   1.296  23.766  0.00  0.00    +0.181 A 
ENDROOT
BRANCH  11  12
ATOM     12  C   UNL     1       8.833  -0.200  23.686  0.00  0.00    +0.025 A 
ATOM     13  C   UNL     1       9.546  -0.970  24.631  0.00  0.00    +0.015 A 
ATOM     14  C   UNL     1       9.474  -2.372  24.640  0.00  0.00    +0.050 A 
ATOM     15  C   UNL     1       8.690  -3.022  23.704  0.00  0.00    +0.158 A 
ATOM     16  C   UNL     1       8.021  -2.294  22.732  0.00  0.00    +0.159 A 
ATOM     17  C   UNL     1       8.112  -0.902  22.705  0.00  0.00    +0.060 A 
BRANCH  15  18
ATOM     18  O   UNL     1       8.572  -4.380  23.750  0.00  0.00    -0.503 OA
ATOM     19  H   UNL     1       9.480  -4.712  23.597  0.00  0.00    +0.292 HD
ENDBRANCH  15  18
BRANCH  16  20
ATOM     20  O   UNL     1       7.269  -2.986  21.820  0.00  0.00    -0.503 OA
ATOM     21  H   UNL     1       7.305  -2.510  20.971  0.00  0.00    +0.292 HD
ENDBRANCH  16  20
ENDBRANCH  11  12
BRANCH   7  22
ATOM     22  O   UNL     1      13.020   5.629  23.310  0.00  0.00    -0.507 OA
ATOM     23  H   UNL     1      12.962   6.592  23.427  0.00  0.00    +0.292 HD
ENDBRANCH   7  22
BRANCH  10  24
ATOM     24  O   UNL     1       8.361   6.310  23.725  0.00  0.00    -0.506 OA
ATOM     25  H   UNL     1       7.902   6.281  22.869  0.00  0.00    +0.292 HD
ENDBRANCH  10  24
BRANCH   1  26
ATOM     26  O   UNL     1       6.446   1.535  24.004  0.00  0.00    -0.453 OA
BRANCH  26  29
ATOM     27  C   UNL     1       5.174  -1.349  25.869  0.00  0.00    +0.191 C 
ATOM     28  O   UNL     1       5.531  -0.473  24.778  0.00  0.00    -0.330 OA
ATOM     29  C   UNL     1       6.135   0.764  25.184  0.00  0.00    +0.340 C 
ATOM     30  C   UNL     1       5.123   1.558  26.048  0.00  0.00    +0.214 C 
ATOM     31  C   UNL     1       4.700   0.733  27.272  0.00  0.00    +0.180 C 
ATOM     32  C   UNL     1       4.180  -0.646  26.811  0.00  0.00    +0.178 C 
BRANCH  30  33
ATOM     33  O   UNL     1       3.948   1.867  25.268  0.00  0.00    -0.383 OA
ATOM     34  H   UNL     1       3.698   2.783  25.507  0.00  0.00    +0.210 HD
ENDBRANCH  30  33
BRANCH  31  35
ATOM     35  O   UNL     1       5.737   0.613  28.253  0.00  0.00    -0.386 OA
ATOM     36  H   UNL     1       6.022  -0.306  28.378  0.00  0.00    +0.210 HD
ENDBRANCH  31  35
BRANCH  32  37
ATOM     37  O   UNL     1       3.814  -1.461  27.920  0.00  0.00    -0.386 OA
ATOM     38  H   UNL     1       3.054  -2.009  27.654  0.00  0.00    +0.210 HD
ENDBRANCH  32  37
BRANCH  27  39
ATOM     39  C   UNL     1       6.386  -1.974  26.595  0.00  0.00    +0.266 C 
BRANCH  39  40
ATOM     40  O   UNL     1       6.045  -3.246  27.176  0.00  0.00    -0.462 OA
BRANCH  40  42
ATOM     41  C   UNL     1       5.985  -5.274  26.007  0.00  0.00    +0.136 C 
ATOM     42  C   UNL     1       6.811  -4.297  26.786  0.00  0.00    +0.304 C 
ATOM     43  O   UNL     1       8.003  -4.434  27.031  0.00  0.00    -0.251 OA
ENDBRANCH  40  42
ENDBRANCH  39  40
ENDBRANCH  27  39
ENDBRANCH  26  29
ENDBRANCH   1  26
TORSDOF 13
ENDMDL
MODEL 7
REMARK VINA RESULT:      -6.7      2.624      7.523
REMARK  Name = 
REMARK  14 active torsions:
REMARK  status: ('A' for Active; 'I' for Inactive)
REMARK    1  A    between atoms: C_1  and  C_2
REMARK    2  A    between atoms: C_2  and  O_4
REMARK    3  A    between atoms: O_4  and  C_5
REMARK    4  A    between atoms: C_5  and  C_6
REMARK    5  A    between atoms: C_7  and  O_39
REMARK    6  A    between atoms: C_9  and  O_38
REMARK    7  A    between atoms: C_11  and  O_37
REMARK    8  A    between atoms: C_12  and  O_15
REMARK    9  A    between atoms: O_15  and  C_16
REMARK   10  A    between atoms: C_17  and  C_29
REMARK   11  A    between atoms: C_21  and  O_28
REMARK   12  A    between atoms: C_23  and  O_27
REMARK   13  A    between atoms: C_31  and  O_36
REMARK   14  A    between atoms: C_32  and  O_35
REMARK                            x       y       z     vdW  Elec       q    Type
REMARK                         _______ _______ _______ _____ _____    ______ ____
ROOT
ATOM      1  C   UNL     1       7.118  -2.198  25.342  0.00  0.00    +0.214 A 
ATOM      2  C   UNL     1       7.389  -3.524  24.715  0.00  0.00    +0.238 A 
ATOM      3  O   UNL     1       8.482  -4.065  24.826  0.00  0.00    -0.283 OA
ATOM      4  C   UNL     1       6.282  -4.167  24.009  0.00  0.00    +0.109 A 
ATOM      5  C   UNL     1       4.996  -3.778  24.362  0.00  0.00    +0.147 A 
ATOM      6  C   UNL     1       3.899  -4.481  23.857  0.00  0.00    +0.092 A 
ATOM      7  C   UNL     1       4.116  -5.544  22.979  0.00  0.00    +0.124 A 
ATOM      8  C   UNL     1       5.398  -5.888  22.563  0.00  0.00    +0.091 A 
ATOM      9  O   UNL     1       4.753  -2.728  25.216  0.00  0.00    -0.451 OA
ATOM     10  C   UNL     1       6.485  -5.188  23.072  0.00  0.00    +0.135 A 
ATOM     11  C   UNL     1       5.818  -1.901  25.601  0.00  0.00    +0.181 A 
ENDROOT
BRANCH  11  12
ATOM     12  C   UNL     1       5.374  -0.729  26.423  0.00  0.00    +0.025 A 
ATOM     13  C   UNL     1       5.274  -0.839  27.826  0.00  0.00    +0.015 A 
ATOM     14  C   UNL     1       4.958   0.268  28.629  0.00  0.00    +0.050 A 
ATOM     15  C   UNL     1       4.735   1.499  28.038  0.00  0.00    +0.158 A 
ATOM     16  C   UNL     1       4.774   1.624  26.657  0.00  0.00    +0.159 A 
ATOM     17  C   UNL     1       5.064   0.519  25.857  0.00  0.00    +0.060 A 
BRANCH  15  18
ATOM     18  O   UNL     1       4.486   2.587  28.821  0.00  0.00    -0.503 OA
ATOM     19  H   UNL     1       5.367   2.982  28.983  0.00  0.00    +0.292 HD
ENDBRANCH  15  18
BRANCH  16  20
ATOM     20  O   UNL     1       4.534   2.861  26.122  0.00  0.00    -0.503 OA
ATOM     21  H   UNL     1       5.363   3.190  25.729  0.00  0.00    +0.292 HD
ENDBRANCH  16  20
ENDBRANCH  11  12
BRANCH   7  22
ATOM     22  O   UNL     1       3.086  -6.289  22.485  0.00  0.00    -0.507 OA
ATOM     23  H   UNL     1       2.689  -5.829  21.727  0.00  0.00    +0.292 HD
ENDBRANCH   7  22
BRANCH  10  24
ATOM     24  O   UNL     1       7.741  -5.480  22.622  0.00  0.00    -0.506 OA
ATOM     25  H   UNL     1       8.013  -6.358  22.938  0.00  0.00    +0.292 HD
ENDBRANCH  10  24
BRANCH   1  26
ATOM     26  O   UNL     1       8.184  -1.414  25.757  0.00  0.00    -0.453 OA
BRANCH  26  29
ATOM     27  C   UNL     1       7.839   0.786  22.850  0.00  0.00    +0.191 C 
ATOM     28  O   UNL     1       7.641  -0.310  23.768  0.00  0.00    -0.330 OA
ATOM     29  C   UNL     1       8.489  -0.274  24.926  0.00  0.00    +0.340 C 
ATOM     30  C   UNL     1       9.967  -0.367  24.470  0.00  0.00    +0.214 C 
ATOM     31  C   UNL     1      10.307   0.785  23.513  0.00  0.00    +0.180 C 
ATOM     32  C   UNL     1       9.294   0.803  22.347  0.00  0.00    +0.178 C 
BRANCH  30  33
ATOM     33  O   UNL     1      10.192  -1.619  23.788  0.00  0.00    -0.383 OA
ATOM     34  H   UNL     1      10.830  -1.425  23.071  0.00  0.00    +0.210 HD
ENDBRANCH  30  33
BRANCH  31  35
ATOM     35  O   UNL     1      10.388   2.055  24.170  0.00  0.00    -0.386 OA
ATOM     36  H   UNL     1      11.282   2.431  24.136  0.00  0.00    +0.210 HD
ENDBRANCH  31  35
BRANCH  32  37
ATOM     37  O   UNL     1       9.548   1.883  21.455  0.00  0.00    -0.386 OA
ATOM     38  H   UNL     1       8.862   1.870  20.763  0.00  0.00    +0.210 HD
ENDBRANCH  32  37
BRANCH  27  39
ATOM     39  C   UNL     1       7.349   2.150  23.385  0.00  0.00    +0.266 C 
BRANCH  39  40
ATOM     40  O   UNL     1       7.347   3.147  22.346  0.00  0.00    -0.462 OA
BRANCH  40  42
ATOM     41  C   UNL     1       7.077   5.464  22.138  0.00  0.00    +0.136 C 
ATOM     42  C   UNL     1       7.910   4.339  22.671  0.00  0.00    +0.304 C 
ATOM     43  O   UNL     1       8.947   4.482  23.306  0.00  0.00    -0.251 OA
ENDBRANCH  40  42
ENDBRANCH  39  40
ENDBRANCH  27  39
ENDBRANCH  26  29
ENDBRANCH   1  26
TORSDOF 13
ENDMDL
MODEL 8
REMARK VINA RESULT:      -6.7      2.433      8.251
REMARK  Name = 
REMARK  14 active torsions:
REMARK  status: ('A' for Active; 'I' for Inactive)
REMARK    1  A    between atoms: C_1  and  C_2
REMARK    2  A    between atoms: C_2  and  O_4
REMARK    3  A    between atoms: O_4  and  C_5
REMARK    4  A    between atoms: C_5  and  C_6
REMARK    5  A    between atoms: C_7  and  O_39
REMARK    6  A    between atoms: C_9  and  O_38
REMARK    7  A    between atoms: C_11  and  O_37
REMARK    8  A    between atoms: C_12  and  O_15
REMARK    9  A    between atoms: O_15  and  C_16
REMARK   10  A    between atoms: C_17  and  C_29
REMARK   11  A    between atoms: C_21  and  O_28
REMARK   12  A    between atoms: C_23  and  O_27
REMARK   13  A    between atoms: C_31  and  O_36
REMARK   14  A    between atoms: C_32  and  O_35
REMARK                            x       y       z     vdW  Elec       q    Type
REMARK                         _______ _______ _______ _____ _____    ______ ____
ROOT
ATOM      1  C   UNL     1       6.599  -1.155  24.550  0.00  0.00    +0.214 A 
ATOM      2  C   UNL     1       5.536  -2.194  24.671  0.00  0.00    +0.238 A 
ATOM      3  O   UNL     1       4.474  -1.951  25.228  0.00  0.00    -0.283 OA
ATOM      4  C   UNL     1       5.800  -3.493  24.053  0.00  0.00    +0.109 A 
ATOM      5  C   UNL     1       6.739  -3.527  23.030  0.00  0.00    +0.147 A 
ATOM      6  C   UNL     1       6.901  -4.696  22.282  0.00  0.00    +0.092 A 
ATOM      7  C   UNL     1       6.138  -5.820  22.599  0.00  0.00    +0.124 A 
ATOM      8  C   UNL     1       5.252  -5.814  23.671  0.00  0.00    +0.091 A 
ATOM      9  O   UNL     1       7.512  -2.438  22.703  0.00  0.00    -0.451 OA
ATOM     10  C   UNL     1       5.091  -4.647  24.409  0.00  0.00    +0.135 A 
ATOM     11  C   UNL     1       7.494  -1.314  23.540  0.00  0.00    +0.181 A 
ENDROOT
BRANCH  11  12
ATOM     12  C   UNL     1       8.484  -0.268  23.126  0.00  0.00    +0.025 A 
ATOM     13  C   UNL     1       8.319   0.428  21.909  0.00  0.00    +0.015 A 
ATOM     14  C   UNL     1       9.173   1.481  21.544  0.00  0.00    +0.050 A 
ATOM     15  C   UNL     1      10.204   1.849  22.389  0.00  0.00    +0.158 A 
ATOM     16  C   UNL     1      10.422   1.148  23.565  0.00  0.00    +0.159 A 
ATOM     17  C   UNL     1       9.590   0.086  23.919  0.00  0.00    +0.060 A 
BRANCH  15  18
ATOM     18  O   UNL     1      10.998   2.909  22.062  0.00  0.00    -0.503 OA
ATOM     19  H   UNL     1      11.622   2.554  21.398  0.00  0.00    +0.292 HD
ENDBRANCH  15  18
BRANCH  16  20
ATOM     20  O   UNL     1      11.464   1.544  24.361  0.00  0.00    -0.503 OA
ATOM     21  H   UNL     1      11.434   2.515  24.441  0.00  0.00    +0.292 HD
ENDBRANCH  16  20
ENDBRANCH  11  12
BRANCH   7  22
ATOM     22  O   UNL     1       6.227  -6.976  21.879  0.00  0.00    -0.507 OA
ATOM     23  H   UNL     1       7.162  -7.219  21.774  0.00  0.00    +0.292 HD
ENDBRANCH   7  22
BRANCH  10  24
ATOM     24  O   UNL     1       4.269  -4.651  25.499  0.00  0.00    -0.506 OA
ATOM     25  H   UNL     1       4.032  -3.740  25.741  0.00  0.00    +0.292 HD
ENDBRANCH  10  24
BRANCH   1  26
ATOM     26  O   UNL     1       6.539  -0.028  25.356  0.00  0.00    -0.453 OA
BRANCH  26  29
ATOM     27  C   UNL     1       6.389   3.481  24.317  0.00  0.00    +0.191 C 
ATOM     28  O   UNL     1       6.861   2.240  24.884  0.00  0.00    -0.330 OA
ATOM     29  C   UNL     1       5.943   1.143  24.758  0.00  0.00    +0.340 C 
ATOM     30  C   UNL     1       4.640   1.488  25.522  0.00  0.00    +0.214 C 
ATOM     31  C   UNL     1       4.020   2.780  24.970  0.00  0.00    +0.180 C 
ATOM     32  C   UNL     1       5.074   3.909  24.993  0.00  0.00    +0.178 C 
BRANCH  30  33
ATOM     33  O   UNL     1       4.928   1.673  26.924  0.00  0.00    -0.383 OA
ATOM     34  H   UNL     1       4.771   0.805  27.350  0.00  0.00    +0.210 HD
ENDBRANCH  30  33
BRANCH  31  35
ATOM     35  O   UNL     1       3.442   2.614  23.670  0.00  0.00    -0.386 OA
ATOM     36  H   UNL     1       3.936   1.982  23.125  0.00  0.00    +0.210 HD
ENDBRANCH  31  35
BRANCH  32  37
ATOM     37  O   UNL     1       4.553   5.118  24.451  0.00  0.00    -0.386 OA
ATOM     38  H   UNL     1       5.048   5.861  24.840  0.00  0.00    +0.210 HD
ENDBRANCH  32  37
BRANCH  27  39
ATOM     39  C   UNL     1       6.324   3.481  22.773  0.00  0.00    +0.266 C 
BRANCH  39  40
ATOM     40  O   UNL     1       7.345   4.325  22.209  0.00  0.00    -0.462 OA
BRANCH  40  42
ATOM     41  C   UNL     1       8.457   6.263  22.913  0.00  0.00    +0.136 C 
ATOM     42  C   UNL     1       7.183   5.660  22.406  0.00  0.00    +0.304 C 
ATOM     43  O   UNL     1       6.151   6.285  22.202  0.00  0.00    -0.251 OA
ENDBRANCH  40  42
ENDBRANCH  39  40
ENDBRANCH  27  39
ENDBRANCH  26  29
ENDBRANCH   1  26
TORSDOF 13
ENDMDL
MODEL 9
REMARK VINA RESULT:      -6.7      2.621      7.482
REMARK  Name = 
REMARK  14 active torsions:
REMARK  status: ('A' for Active; 'I' for Inactive)
REMARK    1  A    between atoms: C_1  and  C_2
REMARK    2  A    between atoms: C_2  and  O_4
REMARK    3  A    between atoms: O_4  and  C_5
REMARK    4  A    between atoms: C_5  and  C_6
REMARK    5  A    between atoms: C_7  and  O_39
REMARK    6  A    between atoms: C_9  and  O_38
REMARK    7  A    between atoms: C_11  and  O_37
REMARK    8  A    between atoms: C_12  and  O_15
REMARK    9  A    between atoms: O_15  and  C_16
REMARK   10  A    between atoms: C_17  and  C_29
REMARK   11  A    between atoms: C_21  and  O_28
REMARK   12  A    between atoms: C_23  and  O_27
REMARK   13  A    between atoms: C_31  and  O_36
REMARK   14  A    between atoms: C_32  and  O_35
REMARK                            x       y       z     vdW  Elec       q    Type
REMARK                         _______ _______ _______ _____ _____    ______ ____
ROOT
ATOM      1  C   UNL     1       5.873  -3.353  25.527  0.00  0.00    +0.214 A 
ATOM      2  C   UNL     1       5.624  -4.700  24.936  0.00  0.00    +0.238 A 
ATOM      3  O   UNL     1       6.466  -5.587  25.005  0.00  0.00    -0.283 OA
ATOM      4  C   UNL     1       4.317  -4.928  24.321  0.00  0.00    +0.109 A 
ATOM      5  C   UNL     1       3.274  -4.109  24.733  0.00  0.00    +0.147 A 
ATOM      6  C   UNL     1       1.969  -4.393  24.320  0.00  0.00    +0.092 A 
ATOM      7  C   UNL     1       1.743  -5.478  23.473  0.00  0.00    +0.124 A 
ATOM      8  C   UNL     1       2.795  -6.255  22.997  0.00  0.00    +0.091 A 
ATOM      9  O   UNL     1       3.468  -3.026  25.559  0.00  0.00    -0.451 OA
ATOM     10  C   UNL     1       4.089  -5.971  23.415  0.00  0.00    +0.135 A 
ATOM     11  C   UNL     1       4.778  -2.617  25.849  0.00  0.00    +0.181 A 
ENDROOT
BRANCH  11  12
ATOM     12  C   UNL     1       4.825  -1.351  26.648  0.00  0.00    +0.025 A 
ATOM     13  C   UNL     1       4.589  -1.377  28.040  0.00  0.00    +0.015 A 
ATOM     14  C   UNL     1       4.725  -0.224  28.829  0.00  0.00    +0.050 A 
ATOM     15  C   UNL     1       5.096   0.969  28.237  0.00  0.00    +0.158 A 
ATOM     16  C   UNL     1       5.283   1.036  26.864  0.00  0.00    +0.159 A 
ATOM     17  C   UNL     1       5.124  -0.103  26.075  0.00  0.00    +0.060 A 
BRANCH  15  18
ATOM     18  O   UNL     1       5.286   2.076  29.011  0.00  0.00    -0.503 OA
ATOM     19  H   UNL     1       6.041   2.542  28.596  0.00  0.00    +0.292 HD
ENDBRANCH  15  18
BRANCH  16  20
ATOM     20  O   UNL     1       5.636   2.244  26.326  0.00  0.00    -0.503 OA
ATOM     21  H   UNL     1       6.540   2.457  26.622  0.00  0.00    +0.292 HD
ENDBRANCH  16  20
ENDBRANCH  11  12
BRANCH   7  22
ATOM     22  O   UNL     1       0.488  -5.825  23.068  0.00  0.00    -0.507 OA
ATOM     23  H   UNL     1       0.538  -6.270  22.206  0.00  0.00    +0.292 HD
ENDBRANCH   7  22
BRANCH  10  24
ATOM     24  O   UNL     1       5.132  -6.690  22.904  0.00  0.00    -0.506 OA
ATOM     25  H   UNL     1       4.869  -7.111  22.069  0.00  0.00    +0.292 HD
ENDBRANCH  10  24
BRANCH   1  26
ATOM     26  O   UNL     1       7.171  -2.985  25.848  0.00  0.00    -0.453 OA
BRANCH  26  29
ATOM     27  C   UNL     1       7.611  -1.279  22.638  0.00  0.00    +0.191 C 
ATOM     28  O   UNL     1       7.049  -2.091  23.691  0.00  0.00    -0.330 OA
ATOM     29  C   UNL     1       7.848  -2.154  24.882  0.00  0.00    +0.340 C 
ATOM     30  C   UNL     1       9.214  -2.798  24.537  0.00  0.00    +0.214 C 
ATOM     31  C   UNL     1       9.930  -1.987  23.446  0.00  0.00    +0.180 C 
ATOM     32  C   UNL     1       8.993  -1.821  22.229  0.00  0.00    +0.178 C 
BRANCH  30  33
ATOM     33  O   UNL     1       9.014  -4.145  24.059  0.00  0.00    -0.383 OA
ATOM     34  H   UNL     1       9.668  -4.700  24.533  0.00  0.00    +0.210 HD
ENDBRANCH  30  33
BRANCH  31  35
ATOM     35  O   UNL     1      10.424  -0.728  23.916  0.00  0.00    -0.386 OA
ATOM     36  H   UNL     1       9.976  -0.434  24.725  0.00  0.00    +0.210 HD
ENDBRANCH  31  35
BRANCH  32  37
ATOM     37  O   UNL     1       9.603  -1.039  21.207  0.00  0.00    -0.386 OA
ATOM     38  H   UNL     1      10.346  -0.551  21.604  0.00  0.00    +0.210 HD
ENDBRANCH  32  37
BRANCH  27  39
ATOM     39  C   UNL     1       7.600   0.236  22.938  0.00  0.00    +0.266 C 
BRANCH  39  40
ATOM     40  O   UNL     1       8.025   0.997  21.792  0.00  0.00    -0.462 OA
BRANCH  40  42
ATOM     41  C   UNL     1       8.250   3.243  22.417  0.00  0.00    +0.136 C 
ATOM     42  C   UNL     1       8.941   1.970  22.036  0.00  0.00    +0.304 C 
ATOM     43  O   UNL     1      10.155   1.835  21.958  0.00  0.00    -0.251 OA
ENDBRANCH  40  42
ENDBRANCH  39  40
ENDBRANCH  27  39
ENDBRANCH  26  29
ENDBRANCH   1  26
TORSDOF 13
ENDMDL
