MODEL 1
REMARK VINA RESULT:      -7.9      0.000      0.000
REMARK  Name = 
REMARK  12 active torsions:
REMARK  status: ('A' for Active; 'I' for Inactive)
REMARK    1  A    between atoms: C_3  and  O_22
REMARK    2  A    between atoms: C_4  and  O_21
REMARK    3  A    between atoms: C_6  and  C_7
REMARK    4  A    between atoms: C_8  and  O_20
REMARK    5  A    between atoms: C_12  and  O_19
REMARK    6  A    between atoms: C_14  and  O_18
REMARK    7  A    between atoms: O_22  and  C_23
REMARK    8  A    between atoms: C_25  and  O_38
REMARK    9  A    between atoms: C_27  and  O_37
REMARK   10  A    between atoms: C_29  and  O_36
REMARK   11  A    between atoms: C_31  and  C_34
REMARK   12  A    between atoms: C_34  and  O_35
REMARK                            x       y       z     vdW  Elec       q    Type
REMARK                         _______ _______ _______ _____ _____    ______ ____
ROOT
ATOM      1  C   UNL     1       8.865  -0.019  22.511  0.00  0.00    +0.015 A 
ATOM      2  C   UNL     1       8.086   0.779  23.364  0.00  0.00    +0.025 A 
ATOM      3  C   UNL     1       6.904   0.214  23.864  0.00  0.00    +0.060 A 
ATOM      4  C   UNL     1       6.566  -1.120  23.578  0.00  0.00    +0.159 A 
ATOM      5  C   UNL     1       7.372  -1.922  22.766  0.00  0.00    +0.165 A 
ATOM      6  C   UNL     1       8.484  -1.319  22.176  0.00  0.00    +0.050 A 
ENDROOT
BRANCH   2   7
ATOM      7  C   UNL     1       8.523   2.188  23.593  0.00  0.00    +0.181 A 
ATOM      8  O   UNL     1       9.871   2.364  23.275  0.00  0.00    -0.451 OA
ATOM      9  C   UNL     1      10.466   3.579  23.487  0.00  0.00    +0.147 A 
ATOM     10  C   UNL     1       9.761   4.692  23.897  0.00  0.00    +0.109 A 
ATOM     11  C   UNL     1      10.421   5.921  24.060  0.00  0.00    +0.135 A 
ATOM     12  C   UNL     1      11.794   6.017  23.826  0.00  0.00    +0.091 A 
ATOM     13  C   UNL     1      12.495   4.884  23.435  0.00  0.00    +0.124 A 
ATOM     14  C   UNL     1       8.332   4.550  24.173  0.00  0.00    +0.238 A 
ATOM     15  O   UNL     1       7.679   5.534  24.508  0.00  0.00    -0.283 OA
ATOM     16  C   UNL     1      11.844   3.665  23.262  0.00  0.00    +0.092 A 
ATOM     17  C   UNL     1       7.736   3.178  24.066  0.00  0.00    +0.208 A 
BRANCH  11  18
ATOM     18  O   UNL     1       9.786   7.068  24.450  0.00  0.00    -0.506 OA
ATOM     19  H   UNL     1       9.089   7.270  23.781  0.00  0.00    +0.292 HD
ENDBRANCH  11  18
BRANCH  13  20
ATOM     20  O   UNL     1      13.838   4.927  23.206  0.00  0.00    -0.507 OA
ATOM     21  H   UNL     1      14.280   5.266  24.004  0.00  0.00    +0.292 HD
ENDBRANCH  13  20
BRANCH  17  22
ATOM     22  O   UNL     1       6.438   3.040  24.502  0.00  0.00    -0.501 OA
ATOM     23  H   UNL     1       6.088   2.193  24.185  0.00  0.00    +0.292 HD
ENDBRANCH  17  22
ENDBRANCH   2   7
BRANCH   4  24
ATOM     24  O   UNL     1       5.409  -1.606  24.125  0.00  0.00    -0.503 OA
ATOM     25  H   UNL     1       4.723  -0.938  23.935  0.00  0.00    +0.292 HD
ENDBRANCH   4  24
BRANCH   5  26
ATOM     26  O   UNL     1       7.045  -3.263  22.616  0.00  0.00    -0.457 OA
BRANCH  26  27
ATOM     27  C   UNL     1       7.836  -4.137  23.458  0.00  0.00    +0.339 C 
ATOM     28  O   UNL     1       7.118  -5.304  23.851  0.00  0.00    -0.331 OA
ATOM     29  C   UNL     1       6.654  -5.409  25.200  0.00  0.00    +0.179 C 
ATOM     30  C   UNL     1       7.778  -5.066  26.192  0.00  0.00    +0.177 C 
ATOM     31  C   UNL     1       8.235  -3.618  25.996  0.00  0.00    +0.180 C 
ATOM     32  C   UNL     1       8.667  -3.390  24.541  0.00  0.00    +0.214 C 
BRANCH  30  33
ATOM     33  O   UNL     1       8.893  -5.950  25.960  0.00  0.00    -0.386 OA
ATOM     34  H   UNL     1       9.339  -6.089  26.815  0.00  0.00    +0.210 HD
ENDBRANCH  30  33
BRANCH  31  35
ATOM     35  O   UNL     1       7.229  -2.722  26.454  0.00  0.00    -0.386 OA
ATOM     36  H   UNL     1       6.580  -3.208  26.992  0.00  0.00    +0.210 HD
ENDBRANCH  31  35
BRANCH  32  37
ATOM     37  O   UNL     1      10.034  -3.883  24.461  0.00  0.00    -0.383 OA
ATOM     38  H   UNL     1      10.602  -3.089  24.343  0.00  0.00    +0.210 HD
ENDBRANCH  32  37
BRANCH  29  39
ATOM     39  C   UNL     1       5.351  -4.623  25.447  0.00  0.00    +0.190 C 
BRANCH  39  40
ATOM     40  O   UNL     1       4.653  -4.340  24.236  0.00  0.00    -0.392 OA
ATOM     41  H   UNL     1       4.826  -5.062  23.609  0.00  0.00    +0.210 HD
ENDBRANCH  39  40
ENDBRANCH  29  39
ENDBRANCH  26  27
ENDBRANCH   5  26
TORSDOF 12
ENDMDL
MODEL 2
REMARK VINA RESULT:      -7.8      1.478      2.550
REMARK  Name = 
REMARK  12 active torsions:
REMARK  status: ('A' for Active; 'I' for Inactive)
REMARK    1  A    between atoms: C_3  and  O_22
REMARK    2  A    between atoms: C_4  and  O_21
REMARK    3  A    between atoms: C_6  and  C_7
REMARK    4  A    between atoms: C_8  and  O_20
REMARK    5  A    between atoms: C_12  and  O_19
REMARK    6  A    between atoms: C_14  and  O_18
REMARK    7  A    between atoms: O_22  and  C_23
REMARK    8  A    between atoms: C_25  and  O_38
REMARK    9  A    between atoms: C_27  and  O_37
REMARK   10  A    between atoms: C_29  and  O_36
REMARK   11  A    between atoms: C_31  and  C_34
REMARK   12  A    between atoms: C_34  and  O_35
REMARK                            x       y       z     vdW  Elec       q    Type
REMARK                         _______ _______ _______ _____ _____    ______ ____
ROOT
ATOM      1  C   UNL     1       9.117  -0.406  25.121  0.00  0.00    +0.015 A 
ATOM      2  C   UNL     1       8.930   0.284  23.913  0.00  0.00    +0.025 A 
ATOM      3  C   UNL     1       8.651  -0.486  22.775  0.00  0.00    +0.060 A 
ATOM      4  C   UNL     1       8.493  -1.880  22.869  0.00  0.00    +0.159 A 
ATOM      5  C   UNL     1       8.635  -2.552  24.085  0.00  0.00    +0.165 A 
ATOM      6  C   UNL     1       9.028  -1.797  25.190  0.00  0.00    +0.050 A 
ENDROOT
BRANCH   2   7
ATOM      7  C   UNL     1       9.135   1.763  23.915  0.00  0.00    +0.181 A 
ATOM      8  O   UNL     1      10.449   2.097  23.581  0.00  0.00    -0.451 OA
ATOM      9  C   UNL     1      10.841   3.409  23.597  0.00  0.00    +0.147 A 
ATOM     10  C   UNL     1       9.960   4.447  23.820  0.00  0.00    +0.109 A 
ATOM     11  C   UNL     1      10.415   5.775  23.787  0.00  0.00    +0.135 A 
ATOM     12  C   UNL     1      11.763   6.049  23.548  0.00  0.00    +0.091 A 
ATOM     13  C   UNL     1      12.643   4.993  23.347  0.00  0.00    +0.124 A 
ATOM     14  C   UNL     1       8.562   4.126  24.108  0.00  0.00    +0.238 A 
ATOM     15  O   UNL     1       7.754   5.035  24.278  0.00  0.00    -0.283 OA
ATOM     16  C   UNL     1      12.195   3.675  23.368  0.00  0.00    +0.092 A 
ATOM     17  C   UNL     1       8.191   2.677  24.219  0.00  0.00    +0.208 A 
BRANCH  11  18
ATOM     18  O   UNL     1       9.599   6.854  23.984  0.00  0.00    -0.506 OA
ATOM     19  H   UNL     1       9.158   7.060  23.126  0.00  0.00    +0.292 HD
ENDBRANCH  11  18
BRANCH  13  20
ATOM     20  O   UNL     1      13.970   5.212  23.121  0.00  0.00    -0.507 OA
ATOM     21  H   UNL     1      14.092   5.457  22.187  0.00  0.00    +0.292 HD
ENDBRANCH  13  20
BRANCH  17  22
ATOM     22  O   UNL     1       6.917   2.406  24.666  0.00  0.00    -0.501 OA
ATOM     23  H   UNL     1       6.548   3.208  25.068  0.00  0.00    +0.292 HD
ENDBRANCH  17  22
ENDBRANCH   2   7
BRANCH   4  24
ATOM     24  O   UNL     1       8.196  -2.557  21.716  0.00  0.00    -0.503 OA
ATOM     25  H   UNL     1       7.344  -3.002  21.881  0.00  0.00    +0.292 HD
ENDBRANCH   4  24
BRANCH   5  26
ATOM     26  O   UNL     1       8.353  -3.911  24.134  0.00  0.00    -0.457 OA
BRANCH  26  27
ATOM     27  C   UNL     1       7.007  -4.194  24.590  0.00  0.00    +0.339 C 
ATOM     28  O   UNL     1       6.651  -5.563  24.407  0.00  0.00    -0.331 OA
ATOM     29  C   UNL     1       5.730  -5.904  23.368  0.00  0.00    +0.179 C 
ATOM     30  C   UNL     1       4.494  -4.990  23.413  0.00  0.00    +0.177 C 
ATOM     31  C   UNL     1       4.902  -3.534  23.177  0.00  0.00    +0.180 C 
ATOM     32  C   UNL     1       5.964  -3.108  24.199  0.00  0.00    +0.214 C 
BRANCH  30  33
ATOM     33  O   UNL     1       3.874  -5.105  24.708  0.00  0.00    -0.386 OA
ATOM     34  H   UNL     1       3.186  -5.793  24.645  0.00  0.00    +0.210 HD
ENDBRANCH  30  33
BRANCH  31  35
ATOM     35  O   UNL     1       5.289  -3.348  21.820  0.00  0.00    -0.386 OA
ATOM     36  H   UNL     1       5.016  -2.463  21.521  0.00  0.00    +0.210 HD
ENDBRANCH  31  35
BRANCH  32  37
ATOM     37  O   UNL     1       5.225  -2.757  25.402  0.00  0.00    -0.383 OA
ATOM     38  H   UNL     1       5.896  -2.450  26.052  0.00  0.00    +0.210 HD
ENDBRANCH  32  37
BRANCH  29  39
ATOM     39  C   UNL     1       6.396  -5.976  21.980  0.00  0.00    +0.190 C 
BRANCH  39  40
ATOM     40  O   UNL     1       5.457  -6.259  20.944  0.00  0.00    -0.392 OA
ATOM     41  H   UNL     1       5.861  -6.020  20.094  0.00  0.00    +0.210 HD
ENDBRANCH  39  40
ENDBRANCH  29  39
ENDBRANCH  26  27
ENDBRANCH   5  26
TORSDOF 12
ENDMDL
MODEL 3
REMARK VINA RESULT:      -7.4      1.393      2.412
REMARK  Name = 
REMARK  12 active torsions:
REMARK  status: ('A' for Active; 'I' for Inactive)
REMARK    1  A    between atoms: C_3  and  O_22
REMARK    2  A    between atoms: C_4  and  O_21
REMARK    3  A    between atoms: C_6  and  C_7
REMARK    4  A    between atoms: C_8  and  O_20
REMARK    5  A    between atoms: C_12  and  O_19
REMARK    6  A    between atoms: C_14  and  O_18
REMARK    7  A    between atoms: O_22  and  C_23
REMARK    8  A    between atoms: C_25  and  O_38
REMARK    9  A    between atoms: C_27  and  O_37
REMARK   10  A    between atoms: C_29  and  O_36
REMARK   11  A    between atoms: C_31  and  C_34
REMARK   12  A    between atoms: C_34  and  O_35
REMARK                            x       y       z     vdW  Elec       q    Type
REMARK                         _______ _______ _______ _____ _____    ______ ____
ROOT
ATOM      1  C   UNL     1       8.262  -0.246  22.573  0.00  0.00    +0.015 A 
ATOM      2  C   UNL     1       8.674   0.317  23.790  0.00  0.00    +0.025 A 
ATOM      3  C   UNL     1       8.720  -0.534  24.904  0.00  0.00    +0.060 A 
ATOM      4  C   UNL     1       8.438  -1.905  24.776  0.00  0.00    +0.159 A 
ATOM      5  C   UNL     1       8.074  -2.466  23.550  0.00  0.00    +0.165 A 
ATOM      6  C   UNL     1       7.915  -1.594  22.471  0.00  0.00    +0.050 A 
ENDROOT
BRANCH   2   7
ATOM      7  C   UNL     1       8.937   1.786  23.826  0.00  0.00    +0.181 A 
ATOM      8  O   UNL     1      10.267   2.076  23.519  0.00  0.00    -0.451 OA
ATOM      9  C   UNL     1      10.709   3.371  23.569  0.00  0.00    +0.147 A 
ATOM     10  C   UNL     1       9.865   4.438  23.798  0.00  0.00    +0.109 A 
ATOM     11  C   UNL     1      10.372   5.747  23.800  0.00  0.00    +0.135 A 
ATOM     12  C   UNL     1      11.733   5.974  23.588  0.00  0.00    +0.091 A 
ATOM     13  C   UNL     1      12.575   4.889  23.380  0.00  0.00    +0.124 A 
ATOM     14  C   UNL     1       8.451   4.166  24.057  0.00  0.00    +0.238 A 
ATOM     15  O   UNL     1       7.676   5.102  24.232  0.00  0.00    -0.283 OA
ATOM     16  C   UNL     1      12.076   3.589  23.368  0.00  0.00    +0.092 A 
ATOM     17  C   UNL     1       8.023   2.731  24.133  0.00  0.00    +0.208 A 
BRANCH  11  18
ATOM     18  O   UNL     1       9.594   6.853  24.006  0.00  0.00    -0.506 OA
ATOM     19  H   UNL     1       9.054   6.999  23.193  0.00  0.00    +0.292 HD
ENDBRANCH  11  18
BRANCH  13  20
ATOM     20  O   UNL     1      13.913   5.060  23.180  0.00  0.00    -0.507 OA
ATOM     21  H   UNL     1      14.396   4.434  23.747  0.00  0.00    +0.292 HD
ENDBRANCH  13  20
BRANCH  17  22
ATOM     22  O   UNL     1       6.732   2.501  24.553  0.00  0.00    -0.501 OA
ATOM     23  H   UNL     1       6.625   1.554  24.735  0.00  0.00    +0.292 HD
ENDBRANCH  17  22
ENDBRANCH   2   7
BRANCH   4  24
ATOM     24  O   UNL     1       8.530  -2.673  25.906  0.00  0.00    -0.503 OA
ATOM     25  H   UNL     1       7.659  -2.612  26.341  0.00  0.00    +0.292 HD
ENDBRANCH   4  24
BRANCH   5  26
ATOM     26  O   UNL     1       7.921  -3.843  23.464  0.00  0.00    -0.457 OA
BRANCH  26  27
ATOM     27  C   UNL     1       6.614  -4.238  22.978  0.00  0.00    +0.339 C 
ATOM     28  O   UNL     1       5.606  -3.281  23.297  0.00  0.00    -0.331 OA
ATOM     29  C   UNL     1       4.659  -3.590  24.322  0.00  0.00    +0.179 C 
ATOM     30  C   UNL     1       4.070  -4.995  24.116  0.00  0.00    +0.177 C 
ATOM     31  C   UNL     1       5.174  -6.051  24.206  0.00  0.00    +0.180 C 
ATOM     32  C   UNL     1       6.287  -5.744  23.195  0.00  0.00    +0.214 C 
BRANCH  30  33
ATOM     33  O   UNL     1       3.458  -5.059  22.813  0.00  0.00    -0.386 OA
ATOM     34  H   UNL     1       3.894  -5.778  22.320  0.00  0.00    +0.210 HD
ENDBRANCH  30  33
BRANCH  31  35
ATOM     35  O   UNL     1       5.625  -6.175  25.550  0.00  0.00    -0.386 OA
ATOM     36  H   UNL     1       6.595  -6.097  25.578  0.00  0.00    +0.210 HD
ENDBRANCH  31  35
BRANCH  32  37
ATOM     37  O   UNL     1       5.814  -6.276  21.925  0.00  0.00    -0.383 OA
ATOM     38  H   UNL     1       5.474  -7.178  22.120  0.00  0.00    +0.210 HD
ENDBRANCH  32  37
BRANCH  29  39
ATOM     39  C   UNL     1       5.216  -3.355  25.740  0.00  0.00    +0.190 C 
BRANCH  39  40
ATOM     40  O   UNL     1       4.309  -3.781  26.755  0.00  0.00    -0.392 OA
ATOM     41  H   UNL     1       4.826  -4.051  27.532  0.00  0.00    +0.210 HD
ENDBRANCH  39  40
ENDBRANCH  29  39
ENDBRANCH  26  27
ENDBRANCH   5  26
TORSDOF 12
ENDMDL
MODEL 4
REMARK VINA RESULT:      -7.4      2.407      9.309
REMARK  Name = 
REMARK  12 active torsions:
REMARK  status: ('A' for Active; 'I' for Inactive)
REMARK    1  A    between atoms: C_3  and  O_22
REMARK    2  A    between atoms: C_4  and  O_21
REMARK    3  A    between atoms: C_6  and  C_7
REMARK    4  A    between atoms: C_8  and  O_20
REMARK    5  A    between atoms: C_12  and  O_19
REMARK    6  A    between atoms: C_14  and  O_18
REMARK    7  A    between atoms: O_22  and  C_23
REMARK    8  A    between atoms: C_25  and  O_38
REMARK    9  A    between atoms: C_27  and  O_37
REMARK   10  A    between atoms: C_29  and  O_36
REMARK   11  A    between atoms: C_31  and  C_34
REMARK   12  A    between atoms: C_34  and  O_35
REMARK                            x       y       z     vdW  Elec       q    Type
REMARK                         _______ _______ _______ _____ _____    ______ ____
ROOT
ATOM      1  C   UNL     1       8.522  -3.393  24.509  0.00  0.00    +0.015 A 
ATOM      2  C   UNL     1       7.494  -3.208  25.447  0.00  0.00    +0.025 A 
ATOM      3  C   UNL     1       7.576  -2.073  26.267  0.00  0.00    +0.060 A 
ATOM      4  C   UNL     1       8.606  -1.131  26.094  0.00  0.00    +0.159 A 
ATOM      5  C   UNL     1       9.597  -1.301  25.125  0.00  0.00    +0.165 A 
ATOM      6  C   UNL     1       9.578  -2.489  24.393  0.00  0.00    +0.050 A 
ENDROOT
BRANCH   2   7
ATOM      7  C   UNL     1       6.456  -4.274  25.564  0.00  0.00    +0.181 A 
ATOM      8  O   UNL     1       5.511  -4.182  24.540  0.00  0.00    -0.451 OA
ATOM      9  C   UNL     1       4.443  -5.037  24.523  0.00  0.00    +0.147 A 
ATOM     10  C   UNL     1       4.309  -6.080  25.417  0.00  0.00    +0.109 A 
ATOM     11  C   UNL     1       3.208  -6.948  25.325  0.00  0.00    +0.135 A 
ATOM     12  C   UNL     1       2.237  -6.748  24.343  0.00  0.00    +0.091 A 
ATOM     13  C   UNL     1       2.373  -5.682  23.463  0.00  0.00    +0.124 A 
ATOM     14  C   UNL     1       5.321  -6.238  26.460  0.00  0.00    +0.238 A 
ATOM     15  O   UNL     1       5.239  -7.177  27.247  0.00  0.00    -0.283 OA
ATOM     16  C   UNL     1       3.467  -4.824  23.543  0.00  0.00    +0.092 A 
ATOM     17  C   UNL     1       6.405  -5.205  26.539  0.00  0.00    +0.208 A 
BRANCH  11  18
ATOM     18  O   UNL     1       3.017  -8.009  26.166  0.00  0.00    -0.506 OA
ATOM     19  H   UNL     1       2.787  -8.794  25.615  0.00  0.00    +0.292 HD
ENDBRANCH  11  18
BRANCH  13  20
ATOM     20  O   UNL     1       1.444  -5.441  22.495  0.00  0.00    -0.507 OA
ATOM     21  H   UNL     1       1.814  -5.706  21.634  0.00  0.00    +0.292 HD
ENDBRANCH  13  20
BRANCH  17  22
ATOM     22  O   UNL     1       7.238  -5.276  27.633  0.00  0.00    -0.501 OA
ATOM     23  H   UNL     1       7.155  -6.155  28.035  0.00  0.00    +0.292 HD
ENDBRANCH  17  22
ENDBRANCH   2   7
BRANCH   4  24
ATOM     24  O   UNL     1       8.601  -0.038  26.918  0.00  0.00    -0.503 OA
ATOM     25  H   UNL     1       9.224  -0.245  27.639  0.00  0.00    +0.292 HD
ENDBRANCH   4  24
BRANCH   5  26
ATOM     26  O   UNL     1      10.518  -0.281  24.926  0.00  0.00    -0.457 OA
BRANCH  26  27
ATOM     27  C   UNL     1      10.343   0.401  23.660  0.00  0.00    +0.339 C 
ATOM     28  O   UNL     1      10.439   1.817  23.790  0.00  0.00    -0.331 OA
ATOM     29  C   UNL     1       9.246   2.601  23.696  0.00  0.00    +0.179 C 
ATOM     30  C   UNL     1       8.420   2.193  22.465  0.00  0.00    +0.177 C 
ATOM     31  C   UNL     1       7.976   0.733  22.585  0.00  0.00    +0.180 C 
ATOM     32  C   UNL     1       9.196  -0.178  22.783  0.00  0.00    +0.214 C 
BRANCH  30  33
ATOM     33  O   UNL     1       9.232   2.346  21.285  0.00  0.00    -0.386 OA
ATOM     34  H   UNL     1       9.497   3.283  21.231  0.00  0.00    +0.210 HD
ENDBRANCH  30  33
BRANCH  31  35
ATOM     35  O   UNL     1       6.982   0.605  23.595  0.00  0.00    -0.386 OA
ATOM     36  H   UNL     1       6.144   0.986  23.279  0.00  0.00    +0.210 HD
ENDBRANCH  31  35
BRANCH  32  37
ATOM     37  O   UNL     1       9.733  -0.400  21.448  0.00  0.00    -0.383 OA
ATOM     38  H   UNL     1      10.711  -0.346  21.538  0.00  0.00    +0.210 HD
ENDBRANCH  32  37
BRANCH  29  39
ATOM     39  C   UNL     1       8.436   2.616  25.007  0.00  0.00    +0.190 C 
BRANCH  39  40
ATOM     40  O   UNL     1       7.196   3.306  24.868  0.00  0.00    -0.392 OA
ATOM     41  H   UNL     1       6.718   2.925  24.113  0.00  0.00    +0.210 HD
ENDBRANCH  39  40
ENDBRANCH  29  39
ENDBRANCH  26  27
ENDBRANCH   5  26
TORSDOF 12
ENDMDL
MODEL 5
REMARK VINA RESULT:      -7.3      2.147      4.042
REMARK  Name = 
REMARK  12 active torsions:
REMARK  status: ('A' for Active; 'I' for Inactive)
REMARK    1  A    between atoms: C_3  and  O_22
REMARK    2  A    between atoms: C_4  and  O_21
REMARK    3  A    between atoms: C_6  and  C_7
REMARK    4  A    between atoms: C_8  and  O_20
REMARK    5  A    between atoms: C_12  and  O_19
REMARK    6  A    between atoms: C_14  and  O_18
REMARK    7  A    between atoms: O_22  and  C_23
REMARK    8  A    between atoms: C_25  and  O_38
REMARK    9  A    between atoms: C_27  and  O_37
REMARK   10  A    between atoms: C_29  and  O_36
REMARK   11  A    between atoms: C_31  and  C_34
REMARK   12  A    between atoms: C_34  and  O_35
REMARK                            x       y       z     vdW  Elec       q    Type
REMARK                         _______ _______ _______ _____ _____    ______ ____
ROOT
ATOM      1  C   UNL     1       6.294  -2.093  23.036  0.00  0.00    +0.015 A 
ATOM      2  C   UNL     1       7.670  -1.934  23.265  0.00  0.00    +0.025 A 
ATOM      3  C   UNL     1       8.407  -3.092  23.553  0.00  0.00    +0.060 A 
ATOM      4  C   UNL     1       7.797  -4.358  23.535  0.00  0.00    +0.159 A 
ATOM      5  C   UNL     1       6.436  -4.511  23.260  0.00  0.00    +0.165 A 
ATOM      6  C   UNL     1       5.684  -3.347  23.091  0.00  0.00    +0.050 A 
ENDROOT
BRANCH   2   7
ATOM      7  C   UNL     1       8.218  -0.546  23.278  0.00  0.00    +0.181 A 
ATOM      8  O   UNL     1       7.748   0.180  24.373  0.00  0.00    -0.451 OA
ATOM      9  C   UNL     1       8.092   1.498  24.514  0.00  0.00    +0.147 A 
ATOM     10  C   UNL     1       8.991   2.126  23.676  0.00  0.00    +0.109 A 
ATOM     11  C   UNL     1       9.333   3.470  23.894  0.00  0.00    +0.135 A 
ATOM     12  C   UNL     1       8.754   4.181  24.947  0.00  0.00    +0.091 A 
ATOM     13  C   UNL     1       7.835   3.542  25.770  0.00  0.00    +0.124 A 
ATOM     14  C   UNL     1       9.549   1.367  22.557  0.00  0.00    +0.238 A 
ATOM     15  O   UNL     1      10.374   1.897  21.818  0.00  0.00    -0.283 OA
ATOM     16  C   UNL     1       7.499   2.206  25.564  0.00  0.00    +0.092 A 
ATOM     17  C   UNL     1       9.049  -0.030  22.347  0.00  0.00    +0.208 A 
BRANCH  11  18
ATOM     18  O   UNL     1      10.225   4.154  23.114  0.00  0.00    -0.506 OA
ATOM     19  H   UNL     1      11.060   4.256  23.628  0.00  0.00    +0.292 HD
ENDBRANCH  11  18
BRANCH  13  20
ATOM     20  O   UNL     1       7.235   4.198  26.803  0.00  0.00    -0.507 OA
ATOM     21  H   UNL     1       7.785   4.096  27.599  0.00  0.00    +0.292 HD
ENDBRANCH  13  20
BRANCH  17  22
ATOM     22  O   UNL     1       9.455  -0.656  21.190  0.00  0.00    -0.501 OA
ATOM     23  H   UNL     1       9.440  -1.616  21.330  0.00  0.00    +0.292 HD
ENDBRANCH  17  22
ENDBRANCH   2   7
BRANCH   4  24
ATOM     24  O   UNL     1       8.590  -5.441  23.802  0.00  0.00    -0.503 OA
ATOM     25  H   UNL     1       9.421  -5.290  23.312  0.00  0.00    +0.292 HD
ENDBRANCH   4  24
BRANCH   5  26
ATOM     26  O   UNL     1       5.918  -5.794  23.143  0.00  0.00    -0.457 OA
BRANCH  26  27
ATOM     27  C   UNL     1       5.620  -6.403  24.424  0.00  0.00    +0.339 C 
ATOM     28  O   UNL     1       4.513  -7.298  24.352  0.00  0.00    -0.331 OA
ATOM     29  C   UNL     1       3.264  -6.900  24.923  0.00  0.00    +0.179 C 
ATOM     30  C   UNL     1       3.465  -6.349  26.345  0.00  0.00    +0.177 C 
ATOM     31  C   UNL     1       4.349  -5.100  26.310  0.00  0.00    +0.180 C 
ATOM     32  C   UNL     1       5.686  -5.416  25.625  0.00  0.00    +0.214 C 
BRANCH  30  33
ATOM     33  O   UNL     1       4.102  -7.359  27.152  0.00  0.00    -0.386 OA
ATOM     34  H   UNL     1       4.879  -7.681  26.659  0.00  0.00    +0.210 HD
ENDBRANCH  30  33
BRANCH  31  35
ATOM     35  O   UNL     1       3.638  -4.013  25.730  0.00  0.00    -0.386 OA
ATOM     36  H   UNL     1       3.631  -3.261  26.347  0.00  0.00    +0.210 HD
ENDBRANCH  31  35
BRANCH  32  37
ATOM     37  O   UNL     1       6.512  -6.031  26.653  0.00  0.00    -0.383 OA
ATOM     38  H   UNL     1       6.119  -6.916  26.822  0.00  0.00    +0.210 HD
ENDBRANCH  32  37
BRANCH  29  39
ATOM     39  C   UNL     1       2.459  -5.960  24.005  0.00  0.00    +0.190 C 
BRANCH  39  40
ATOM     40  O   UNL     1       2.988  -5.914  22.681  0.00  0.00    -0.392 OA
ATOM     41  H   UNL     1       2.339  -6.316  22.080  0.00  0.00    +0.210 HD
ENDBRANCH  39  40
ENDBRANCH  29  39
ENDBRANCH  26  27
ENDBRANCH   5  26
TORSDOF 12
ENDMDL
MODEL 6
REMARK VINA RESULT:      -7.2      3.318     10.370
REMARK  Name = 
REMARK  12 active torsions:
REMARK  status: ('A' for Active; 'I' for Inactive)
REMARK    1  A    between atoms: C_3  and  O_22
REMARK    2  A    between atoms: C_4  and  O_21
REMARK    3  A    between atoms: C_6  and  C_7
REMARK    4  A    between atoms: C_8  and  O_20
REMARK    5  A    between atoms: C_12  and  O_19
REMARK    6  A    between atoms: C_14  and  O_18
REMARK    7  A    between atoms: O_22  and  C_23
REMARK    8  A    between atoms: C_25  and  O_38
REMARK    9  A    between atoms: C_27  and  O_37
REMARK   10  A    between atoms: C_29  and  O_36
REMARK   11  A    between atoms: C_31  and  C_34
REMARK   12  A    between atoms: C_34  and  O_35
REMARK                            x       y       z     vdW  Elec       q    Type
REMARK                         _______ _______ _______ _____ _____    ______ ____
ROOT
ATOM      1  C   UNL     1       5.013  -3.583  24.013  0.00  0.00    +0.015 A 
ATOM      2  C   UNL     1       5.446  -4.668  24.791  0.00  0.00    +0.025 A 
ATOM      3  C   UNL     1       6.828  -4.797  24.993  0.00  0.00    +0.060 A 
ATOM      4  C   UNL     1       7.722  -3.831  24.498  0.00  0.00    +0.159 A 
ATOM      5  C   UNL     1       7.277  -2.729  23.766  0.00  0.00    +0.165 A 
ATOM      6  C   UNL     1       5.915  -2.669  23.467  0.00  0.00    +0.050 A 
ENDROOT
BRANCH   2   7
ATOM      7  C   UNL     1       4.419  -5.646  25.256  0.00  0.00    +0.181 A 
ATOM      8  O   UNL     1       3.763  -5.193  26.402  0.00  0.00    -0.451 OA
ATOM      9  C   UNL     1       2.834  -5.991  27.013  0.00  0.00    +0.147 A 
ATOM     10  C   UNL     1       2.419  -7.194  26.480  0.00  0.00    +0.109 A 
ATOM     11  C   UNL     1       1.433  -7.951  27.134  0.00  0.00    +0.135 A 
ATOM     12  C   UNL     1       0.882  -7.498  28.334  0.00  0.00    +0.091 A 
ATOM     13  C   UNL     1       1.324  -6.296  28.871  0.00  0.00    +0.124 A 
ATOM     14  C   UNL     1       3.045  -7.661  25.243  0.00  0.00    +0.238 A 
ATOM     15  O   UNL     1       2.669  -8.714  24.734  0.00  0.00    -0.283 OA
ATOM     16  C   UNL     1       2.294  -5.536  28.221  0.00  0.00    +0.092 A 
ATOM     17  C   UNL     1       4.157  -6.834  24.671  0.00  0.00    +0.208 A 
BRANCH  11  18
ATOM     18  O   UNL     1       0.964  -9.144  26.659  0.00  0.00    -0.506 OA
ATOM     19  H   UNL     1       1.220  -9.213  25.709  0.00  0.00    +0.292 HD
ENDBRANCH  11  18
BRANCH  13  20
ATOM     20  O   UNL     1       0.824  -5.819  30.046  0.00  0.00    -0.507 OA
ATOM     21  H   UNL     1       0.214  -5.086  29.851  0.00  0.00    +0.292 HD
ENDBRANCH  13  20
BRANCH  17  22
ATOM     22  O   UNL     1       4.845  -7.384  23.613  0.00  0.00    -0.501 OA
ATOM     23  H   UNL     1       5.761  -7.546  23.885  0.00  0.00    +0.292 HD
ENDBRANCH  17  22
ENDBRANCH   2   7
BRANCH   4  24
ATOM     24  O   UNL     1       9.053  -4.015  24.761  0.00  0.00    -0.503 OA
ATOM     25  H   UNL     1       9.483  -3.160  24.572  0.00  0.00    +0.292 HD
ENDBRANCH   4  24
BRANCH   5  26
ATOM     26  O   UNL     1       8.195  -1.752  23.405  0.00  0.00    -0.457 OA
BRANCH  26  27
ATOM     27  C   UNL     1       8.127  -0.573  24.244  0.00  0.00    +0.339 C 
ATOM     28  O   UNL     1       7.615   0.560  23.546  0.00  0.00    -0.331 OA
ATOM     29  C   UNL     1       8.514   1.607  23.174  0.00  0.00    +0.179 C 
ATOM     30  C   UNL     1       9.396   2.018  24.365  0.00  0.00    +0.177 C 
ATOM     31  C   UNL     1      10.260   0.838  24.818  0.00  0.00    +0.180 C 
ATOM     32  C   UNL     1       9.374  -0.370  25.152  0.00  0.00    +0.214 C 
BRANCH  30  33
ATOM     33  O   UNL     1       8.548   2.430  25.455  0.00  0.00    -0.386 OA
ATOM     34  H   UNL     1       7.724   2.780  25.069  0.00  0.00    +0.210 HD
ENDBRANCH  30  33
BRANCH  31  35
ATOM     35  O   UNL     1      11.270   0.573  23.852  0.00  0.00    -0.386 OA
ATOM     36  H   UNL     1      10.907   0.010  23.146  0.00  0.00    +0.210 HD
ENDBRANCH  31  35
BRANCH  32  37
ATOM     37  O   UNL     1       8.897  -0.137  26.507  0.00  0.00    -0.383 OA
ATOM     38  H   UNL     1       9.646   0.277  26.991  0.00  0.00    +0.210 HD
ENDBRANCH  32  37
BRANCH  29  39
ATOM     39  C   UNL     1       9.313   1.283  21.897  0.00  0.00    +0.190 C 
BRANCH  39  40
ATOM     40  O   UNL     1      10.275   2.291  21.590  0.00  0.00    -0.392 OA
ATOM     41  H   UNL     1       9.804   3.062  21.233  0.00  0.00    +0.210 HD
ENDBRANCH  39  40
ENDBRANCH  29  39
ENDBRANCH  26  27
ENDBRANCH   5  26
TORSDOF 12
ENDMDL
MODEL 7
REMARK VINA RESULT:      -7.2      1.890      3.801
REMARK  Name = 
REMARK  12 active torsions:
REMARK  status: ('A' for Active; 'I' for Inactive)
REMARK    1  A    between atoms: C_3  and  O_22
REMARK    2  A    between atoms: C_4  and  O_21
REMARK    3  A    between atoms: C_6  and  C_7
REMARK    4  A    between atoms: C_8  and  O_20
REMARK    5  A    between atoms: C_12  and  O_19
REMARK    6  A    between atoms: C_14  and  O_18
REMARK    7  A    between atoms: O_22  and  C_23
REMARK    8  A    between atoms: C_25  and  O_38
REMARK    9  A    between atoms: C_27  and  O_37
REMARK   10  A    between atoms: C_29  and  O_36
REMARK   11  A    between atoms: C_31  and  C_34
REMARK   12  A    between atoms: C_34  and  O_35
REMARK                            x       y       z     vdW  Elec       q    Type
REMARK                         _______ _______ _______ _____ _____    ______ ____
ROOT
ATOM      1  C   UNL     1       8.410  -0.520  25.356  0.00  0.00    +0.015 A 
ATOM      2  C   UNL     1       8.484  -0.058  24.033  0.00  0.00    +0.025 A 
ATOM      3  C   UNL     1       8.434  -1.023  23.016  0.00  0.00    +0.060 A 
ATOM      4  C   UNL     1       8.240  -2.382  23.321  0.00  0.00    +0.159 A 
ATOM      5  C   UNL     1       8.120  -2.826  24.640  0.00  0.00    +0.165 A 
ATOM      6  C   UNL     1       8.289  -1.878  25.651  0.00  0.00    +0.050 A 
ENDROOT
BRANCH   2   7
ATOM      7  C   UNL     1       8.706   1.402  23.814  0.00  0.00    +0.181 A 
ATOM      8  O   UNL     1       7.510   2.065  23.534  0.00  0.00    -0.451 OA
ATOM      9  C   UNL     1       7.527   3.401  23.238  0.00  0.00    +0.147 A 
ATOM     10  C   UNL     1       8.672   4.167  23.317  0.00  0.00    +0.109 A 
ATOM     11  C   UNL     1       8.619   5.542  23.038  0.00  0.00    +0.135 A 
ATOM     12  C   UNL     1       7.413   6.136  22.662  0.00  0.00    +0.091 A 
ATOM     13  C   UNL     1       6.272   5.350  22.565  0.00  0.00    +0.124 A 
ATOM     14  C   UNL     1       9.928   3.508  23.674  0.00  0.00    +0.238 A 
ATOM     15  O   UNL     1      10.953   4.175  23.781  0.00  0.00    -0.283 OA
ATOM     16  C   UNL     1       6.317   3.987  22.850  0.00  0.00    +0.092 A 
ATOM     17  C   UNL     1       9.905   2.020  23.858  0.00  0.00    +0.208 A 
BRANCH  11  18
ATOM     18  O   UNL     1       9.709   6.365  23.109  0.00  0.00    -0.506 OA
ATOM     19  H   UNL     1       9.969   6.441  24.058  0.00  0.00    +0.292 HD
ENDBRANCH  11  18
BRANCH  13  20
ATOM     20  O   UNL     1       5.075   5.883  22.191  0.00  0.00    -0.507 OA
ATOM     21  H   UNL     1       4.957   5.746  21.235  0.00  0.00    +0.292 HD
ENDBRANCH  13  20
BRANCH  17  22
ATOM     22  O   UNL     1      11.126   1.405  24.016  0.00  0.00    -0.501 OA
ATOM     23  H   UNL     1      11.344   1.376  24.960  0.00  0.00    +0.292 HD
ENDBRANCH  17  22
ENDBRANCH   2   7
BRANCH   4  24
ATOM     24  O   UNL     1       8.177  -3.258  22.272  0.00  0.00    -0.503 OA
ATOM     25  H   UNL     1       8.210  -4.150  22.667  0.00  0.00    +0.292 HD
ENDBRANCH   4  24
BRANCH   5  26
ATOM     26  O   UNL     1       7.815  -4.161  24.871  0.00  0.00    -0.457 OA
BRANCH  26  27
ATOM     27  C   UNL     1       6.401  -4.388  25.092  0.00  0.00    +0.339 C 
ATOM     28  O   UNL     1       6.026  -5.742  24.846  0.00  0.00    -0.331 OA
ATOM     29  C   UNL     1       5.282  -6.049  23.665  0.00  0.00    +0.179 C 
ATOM     30  C   UNL     1       4.093  -5.087  23.503  0.00  0.00    +0.177 C 
ATOM     31  C   UNL     1       4.593  -3.648  23.345  0.00  0.00    +0.180 C 
ATOM     32  C   UNL     1       5.484  -3.262  24.534  0.00  0.00    +0.214 C 
BRANCH  30  33
ATOM     33  O   UNL     1       3.259  -5.172  24.675  0.00  0.00    -0.386 OA
ATOM     34  H   UNL     1       2.892  -4.284  24.839  0.00  0.00    +0.210 HD
ENDBRANCH  30  33
BRANCH  31  35
ATOM     35  O   UNL     1       5.211  -3.482  22.074  0.00  0.00    -0.386 OA
ATOM     36  H   UNL     1       4.573  -3.694  21.371  0.00  0.00    +0.210 HD
ENDBRANCH  31  35
BRANCH  32  37
ATOM     37  O   UNL     1       4.566  -2.878  25.597  0.00  0.00    -0.383 OA
ATOM     38  H   UNL     1       5.050  -3.027  26.439  0.00  0.00    +0.210 HD
ENDBRANCH  32  37
BRANCH  29  39
ATOM     39  C   UNL     1       6.169  -6.152  22.409  0.00  0.00    +0.190 C 
BRANCH  39  40
ATOM     40  O   UNL     1       5.403  -6.316  21.218  0.00  0.00    -0.392 OA
ATOM     41  H   UNL     1       5.818  -5.790  20.514  0.00  0.00    +0.210 HD
ENDBRANCH  39  40
ENDBRANCH  29  39
ENDBRANCH  26  27
ENDBRANCH   5  26
TORSDOF 12
ENDMDL
MODEL 8
REMARK VINA RESULT:      -7.2      1.356      2.604
REMARK  Name = 
REMARK  12 active torsions:
REMARK  status: ('A' for Active; 'I' for Inactive)
REMARK    1  A    between atoms: C_3  and  O_22
REMARK    2  A    between atoms: C_4  and  O_21
REMARK    3  A    between atoms: C_6  and  C_7
REMARK    4  A    between atoms: C_8  and  O_20
REMARK    5  A    between atoms: C_12  and  O_19
REMARK    6  A    between atoms: C_14  and  O_18
REMARK    7  A    between atoms: O_22  and  C_23
REMARK    8  A    between atoms: C_25  and  O_38
REMARK    9  A    between atoms: C_27  and  O_37
REMARK   10  A    between atoms: C_29  and  O_36
REMARK   11  A    between atoms: C_31  and  C_34
REMARK   12  A    between atoms: C_34  and  O_35
REMARK                            x       y       z     vdW  Elec       q    Type
REMARK                         _______ _______ _______ _____ _____    ______ ____
ROOT
ATOM      1  C   UNL     1       8.871  -0.458  22.340  0.00  0.00    +0.015 A 
ATOM      2  C   UNL     1       8.005   0.402  23.032  0.00  0.00    +0.025 A 
ATOM      3  C   UNL     1       6.788  -0.137  23.474  0.00  0.00    +0.060 A 
ATOM      4  C   UNL     1       6.496  -1.501  23.293  0.00  0.00    +0.159 A 
ATOM      5  C   UNL     1       7.386  -2.360  22.645  0.00  0.00    +0.165 A 
ATOM      6  C   UNL     1       8.541  -1.793  22.103  0.00  0.00    +0.050 A 
ENDROOT
BRANCH   2   7
ATOM      7  C   UNL     1       8.400   1.836  23.158  0.00  0.00    +0.181 A 
ATOM      8  O   UNL     1       7.361   2.688  22.780  0.00  0.00    -0.451 OA
ATOM      9  C   UNL     1       7.563   4.042  22.766  0.00  0.00    +0.147 A 
ATOM     10  C   UNL     1       8.726   4.626  23.225  0.00  0.00    +0.109 A 
ATOM     11  C   UNL     1       8.860   6.024  23.221  0.00  0.00    +0.135 A 
ATOM     12  C   UNL     1       7.826   6.827  22.736  0.00  0.00    +0.091 A 
ATOM     13  C   UNL     1       6.669   6.225  22.256  0.00  0.00    +0.124 A 
ATOM     14  C   UNL     1       9.807   3.757  23.690  0.00  0.00    +0.238 A 
ATOM     15  O   UNL     1      10.838   4.256  24.132  0.00  0.00    -0.283 OA
ATOM     16  C   UNL     1       6.527   4.839  22.268  0.00  0.00    +0.092 A 
ATOM     17  C   UNL     1       9.610   2.276  23.564  0.00  0.00    +0.208 A 
BRANCH  11  18
ATOM     18  O   UNL     1       9.975   6.673  23.673  0.00  0.00    -0.506 OA
ATOM     19  H   UNL     1       9.726   7.173  24.485  0.00  0.00    +0.292 HD
ENDBRANCH  11  18
BRANCH  13  20
ATOM     20  O   UNL     1       5.638   6.967  21.762  0.00  0.00    -0.507 OA
ATOM     21  H   UNL     1       4.935   6.364  21.463  0.00  0.00    +0.292 HD
ENDBRANCH  13  20
BRANCH  17  22
ATOM     22  O   UNL     1      10.705   1.489  23.839  0.00  0.00    -0.501 OA
ATOM     23  H   UNL     1      10.602   0.637  23.386  0.00  0.00    +0.292 HD
ENDBRANCH  17  22
ENDBRANCH   2   7
BRANCH   4  24
ATOM     24  O   UNL     1       5.299  -1.956  23.776  0.00  0.00    -0.503 OA
ATOM     25  H   UNL     1       4.730  -2.089  22.995  0.00  0.00    +0.292 HD
ENDBRANCH   4  24
BRANCH   5  26
ATOM     26  O   UNL     1       7.093  -3.716  22.599  0.00  0.00    -0.457 OA
BRANCH  26  27
ATOM     27  C   UNL     1       7.817  -4.486  23.590  0.00  0.00    +0.339 C 
ATOM     28  O   UNL     1       7.043  -5.566  24.108  0.00  0.00    -0.331 OA
ATOM     29  C   UNL     1       6.521  -5.467  25.436  0.00  0.00    +0.179 C 
ATOM     30  C   UNL     1       7.614  -5.021  26.421  0.00  0.00    +0.177 C 
ATOM     31  C   UNL     1       8.129  -3.628  26.047  0.00  0.00    +0.180 C 
ATOM     32  C   UNL     1       8.628  -3.619  24.596  0.00  0.00    +0.214 C 
BRANCH  30  33
ATOM     33  O   UNL     1       8.706  -5.960  26.365  0.00  0.00    -0.386 OA
ATOM     34  H   UNL     1       9.085  -6.023  27.261  0.00  0.00    +0.210 HD
ENDBRANCH  30  33
BRANCH  31  35
ATOM     35  O   UNL     1       7.137  -2.648  26.330  0.00  0.00    -0.386 OA
ATOM     36  H   UNL     1       6.534  -2.566  25.571  0.00  0.00    +0.210 HD
ENDBRANCH  31  35
BRANCH  32  37
ATOM     37  O   UNL     1       9.980  -4.158  24.648  0.00  0.00    -0.383 OA
ATOM     38  H   UNL     1      10.565  -3.400  24.872  0.00  0.00    +0.210 HD
ENDBRANCH  32  37
BRANCH  29  39
ATOM     39  C   UNL     1       5.237  -4.617  25.511  0.00  0.00    +0.190 C 
BRANCH  39  40
ATOM     40  O   UNL     1       4.546  -4.569  24.265  0.00  0.00    -0.392 OA
ATOM     41  H   UNL     1       4.550  -3.650  23.949  0.00  0.00    +0.210 HD
ENDBRANCH  39  40
ENDBRANCH  29  39
ENDBRANCH  26  27
ENDBRANCH   5  26
TORSDOF 12
ENDMDL
MODEL 9
REMARK VINA RESULT:      -7.1      1.715      2.908
REMARK  Name = 
REMARK  12 active torsions:
REMARK  status: ('A' for Active; 'I' for Inactive)
REMARK    1  A    between atoms: C_3  and  O_22
REMARK    2  A    between atoms: C_4  and  O_21
REMARK    3  A    between atoms: C_6  and  C_7
REMARK    4  A    between atoms: C_8  and  O_20
REMARK    5  A    between atoms: C_12  and  O_19
REMARK    6  A    between atoms: C_14  and  O_18
REMARK    7  A    between atoms: O_22  and  C_23
REMARK    8  A    between atoms: C_25  and  O_38
REMARK    9  A    between atoms: C_27  and  O_37
REMARK   10  A    between atoms: C_29  and  O_36
REMARK   11  A    between atoms: C_31  and  C_34
REMARK   12  A    between atoms: C_34  and  O_35
REMARK                            x       y       z     vdW  Elec       q    Type
REMARK                         _______ _______ _______ _____ _____    ______ ____
ROOT
ATOM      1  C   UNL     1       9.588  -0.465  23.535  0.00  0.00    +0.015 A 
ATOM      2  C   UNL     1       8.505   0.427  23.535  0.00  0.00    +0.025 A 
ATOM      3  C   UNL     1       7.263  -0.077  23.119  0.00  0.00    +0.060 A 
ATOM      4  C   UNL     1       7.110  -1.436  22.793  0.00  0.00    +0.159 A 
ATOM      5  C   UNL     1       8.185  -2.326  22.842  0.00  0.00    +0.165 A 
ATOM      6  C   UNL     1       9.441  -1.795  23.141  0.00  0.00    +0.050 A 
ENDROOT
BRANCH   2   7
ATOM      7  C   UNL     1       8.775   1.853  23.882  0.00  0.00    +0.181 A 
ATOM      8  O   UNL     1       8.061   2.249  25.014  0.00  0.00    -0.451 OA
ATOM      9  C   UNL     1       8.132   3.547  25.443  0.00  0.00    +0.147 A 
ATOM     10  C   UNL     1       8.978   4.475  24.872  0.00  0.00    +0.109 A 
ATOM     11  C   UNL     1       9.033   5.782  25.381  0.00  0.00    +0.135 A 
ATOM     12  C   UNL     1       8.220   6.154  26.453  0.00  0.00    +0.091 A 
ATOM     13  C   UNL     1       7.357   5.215  27.005  0.00  0.00    +0.124 A 
ATOM     14  C   UNL     1       9.787   4.067  23.724  0.00  0.00    +0.238 A 
ATOM     15  O   UNL     1      10.570   4.867  23.219  0.00  0.00    -0.283 OA
ATOM     16  C   UNL     1       7.305   3.914  26.511  0.00  0.00    +0.092 A 
ATOM     17  C   UNL     1       9.587   2.680  23.190  0.00  0.00    +0.208 A 
BRANCH  11  18
ATOM     18  O   UNL     1       9.856   6.750  24.875  0.00  0.00    -0.506 OA
ATOM     19  H   UNL     1      10.786   6.494  25.081  0.00  0.00    +0.292 HD
ENDBRANCH  11  18
BRANCH  13  20
ATOM     20  O   UNL     1       6.537   5.534  28.046  0.00  0.00    -0.507 OA
ATOM     21  H   UNL     1       6.782   6.415  28.378  0.00  0.00    +0.292 HD
ENDBRANCH  13  20
BRANCH  17  22
ATOM     22  O   UNL     1      10.225   2.383  22.007  0.00  0.00    -0.501 OA
ATOM     23  H   UNL     1      11.184   2.403  22.153  0.00  0.00    +0.292 HD
ENDBRANCH  17  22
ENDBRANCH   2   7
BRANCH   4  24
ATOM     24  O   UNL     1       5.861  -1.855  22.421  0.00  0.00    -0.503 OA
ATOM     25  H   UNL     1       5.470  -2.265  23.215  0.00  0.00    +0.292 HD
ENDBRANCH   4  24
BRANCH   5  26
ATOM     26  O   UNL     1       7.945  -3.676  22.621  0.00  0.00    -0.457 OA
BRANCH  26  27
ATOM     27  C   UNL     1       7.807  -4.435  23.847  0.00  0.00    +0.339 C 
ATOM     28  O   UNL     1       7.036  -5.621  23.666  0.00  0.00    -0.331 OA
ATOM     29  C   UNL     1       5.706  -5.667  24.189  0.00  0.00    +0.179 C 
ATOM     30  C   UNL     1       5.676  -5.181  25.648  0.00  0.00    +0.177 C 
ATOM     31  C   UNL     1       6.129  -3.721  25.730  0.00  0.00    +0.180 C 
ATOM     32  C   UNL     1       7.520  -3.561  25.103  0.00  0.00    +0.214 C 
BRANCH  30  33
ATOM     33  O   UNL     1       6.567  -5.999  26.431  0.00  0.00    -0.386 OA
ATOM     34  H   UNL     1       6.620  -5.604  27.321  0.00  0.00    +0.210 HD
ENDBRANCH  30  33
BRANCH  31  35
ATOM     35  O   UNL     1       5.135  -2.869  25.173  0.00  0.00    -0.386 OA
ATOM     36  H   UNL     1       5.353  -2.677  24.244  0.00  0.00    +0.210 HD
ENDBRANCH  31  35
BRANCH  32  37
ATOM     37  O   UNL     1       8.461  -3.962  26.139  0.00  0.00    -0.383 OA
ATOM     38  H   UNL     1       8.761  -4.867  25.896  0.00  0.00    +0.210 HD
ENDBRANCH  32  37
BRANCH  29  39
ATOM     39  C   UNL     1       4.681  -4.959  23.281  0.00  0.00    +0.190 C 
BRANCH  39  40
ATOM     40  O   UNL     1       5.198  -4.709  21.975  0.00  0.00    -0.392 OA
ATOM     41  H   UNL     1       4.915  -5.433  21.392  0.00  0.00    +0.210 HD
ENDBRANCH  39  40
ENDBRANCH  29  39
ENDBRANCH  26  27
ENDBRANCH   5  26
TORSDOF 12
ENDMDL
