MODEL 1
REMARK VINA RESULT:      -6.5      0.000      0.000
REMARK  Name = 
REMARK  14 active torsions:
REMARK  status: ('A' for Active; 'I' for Inactive)
REMARK    1  A    between atoms: C_1  and  C_2
REMARK    2  A    between atoms: C_2  and  C_3
REMARK    3  A    between atoms: C_3  and  C_4
REMARK    4  A    between atoms: C_4  and  C_5
REMARK    5  A    between atoms: C_5  and  C_6
REMARK    6  A    between atoms: C_6  and  C_7
REMARK    7  A    between atoms: C_7  and  C_8
REMARK    8  A    between atoms: C_8  and  O_10
REMARK    9  A    between atoms: O_10  and  C_11
REMARK   10  A    between atoms: C_13  and  O_31
REMARK   11  A    between atoms: C_19  and  O_30
REMARK   12  A    between atoms: C_20  and  C_22
REMARK   13  A    between atoms: C_24  and  O_29
REMARK   14  A    between atoms: C_25  and  O_28
REMARK                            x       y       z     vdW  Elec       q    Type
REMARK                         _______ _______ _______ _____ _____    ______ ____
ROOT
ATOM      1  C   UNL     1       5.066  -3.960  26.794  0.00  0.00    +0.150 A 
ATOM      2  C   UNL     1       5.723  -2.874  26.199  0.00  0.00    +0.110 A 
ATOM      3  C   UNL     1       5.024  -1.675  25.714  0.00  0.00    +0.238 A 
ATOM      4  C   UNL     1       5.849  -0.631  25.047  0.00  0.00    +0.208 A 
ATOM      5  C   UNL     1       7.177  -0.820  24.910  0.00  0.00    +0.181 A 
ATOM      6  O   UNL     1       7.837  -1.928  25.430  0.00  0.00    -0.451 OA
ATOM      7  O   UNL     1       3.817  -1.490  25.826  0.00  0.00    -0.283 OA
ATOM      8  C   UNL     1       7.110  -2.916  26.051  0.00  0.00    +0.147 A 
ATOM      9  C   UNL     1       7.838  -4.012  26.526  0.00  0.00    +0.092 A 
ATOM     10  C   UNL     1       7.176  -5.076  27.120  0.00  0.00    +0.124 A 
ATOM     11  C   UNL     1       5.794  -5.076  27.233  0.00  0.00    +0.092 A 
ENDROOT
BRANCH   5  12
ATOM     12  C   UNL     1       8.089   0.135  24.209  0.00  0.00    +0.025 A 
ATOM     13  C   UNL     1       8.981   0.966  24.918  0.00  0.00    +0.015 A 
ATOM     14  C   UNL     1       9.830   1.866  24.261  0.00  0.00    +0.050 A 
ATOM     15  C   UNL     1       9.771   1.965  22.883  0.00  0.00    +0.158 A 
ATOM     16  C   UNL     1       8.878   1.182  22.159  0.00  0.00    +0.159 A 
ATOM     17  C   UNL     1       8.040   0.272  22.807  0.00  0.00    +0.060 A 
BRANCH  15  18
ATOM     18  O   UNL     1      10.594   2.844  22.242  0.00  0.00    -0.503 OA
ATOM     19  H   UNL     1      11.336   2.295  21.918  0.00  0.00    +0.292 HD
ENDBRANCH  15  18
BRANCH  16  20
ATOM     20  O   UNL     1       8.860   1.348  20.800  0.00  0.00    -0.503 OA
ATOM     21  H   UNL     1       8.096   1.905  20.571  0.00  0.00    +0.292 HD
ENDBRANCH  16  20
ENDBRANCH   5  12
BRANCH   4  22
ATOM     22  O   UNL     1       5.169   0.493  24.611  0.00  0.00    -0.501 OA
ATOM     23  H   UNL     1       4.885   0.280  23.697  0.00  0.00    +0.292 HD
ENDBRANCH   4  22
BRANCH  10  24
ATOM     24  O   UNL     1       7.906  -6.129  27.578  0.00  0.00    -0.507 OA
ATOM     25  H   UNL     1       7.728  -6.246  28.529  0.00  0.00    +0.292 HD
ENDBRANCH  10  24
BRANCH   1  26
ATOM     26  O   UNL     1       3.663  -4.031  26.831  0.00  0.00    -0.425 OA
BRANCH  26  27
ATOM     27  C   UNL     1       3.079  -5.063  26.100  0.00  0.00    +0.312 C 
ATOM     28  O   UNL     1       2.642  -6.114  26.554  0.00  0.00    -0.250 OA
BRANCH  27  29
ATOM     29  C   UNL     1       3.147  -4.739  24.629  0.00  0.00    +0.121 C 
BRANCH  29  30
ATOM     30  C   UNL     1       3.499  -5.968  23.803  0.00  0.00    +0.011 C 
BRANCH  30  31
ATOM     31  C   UNL     1       4.995  -6.271  23.864  0.00  0.00    +0.001 C 
BRANCH  31  32
ATOM     32  C   UNL     1       5.708  -5.746  22.624  0.00  0.00    +0.000 C 
BRANCH  32  33
ATOM     33  C   UNL     1       7.026  -5.073  23.000  0.00  0.00    -0.000 C 
BRANCH  33  35
ATOM     34  C   UNL     1       5.715  -3.069  22.234  0.00  0.00    +0.004 C 
ATOM     35  C   UNL     1       7.100  -3.663  22.421  0.00  0.00    -0.003 C 
ENDBRANCH  33  35
ENDBRANCH  32  33
ENDBRANCH  31  32
ENDBRANCH  30  31
ENDBRANCH  29  30
ENDBRANCH  27  29
ENDBRANCH  26  27
ENDBRANCH   1  26
TORSDOF 13
ENDMDL
MODEL 2
REMARK VINA RESULT:      -6.2      2.197      7.797
REMARK  Name = 
REMARK  14 active torsions:
REMARK  status: ('A' for Active; 'I' for Inactive)
REMARK    1  A    between atoms: C_1  and  C_2
REMARK    2  A    between atoms: C_2  and  C_3
REMARK    3  A    between atoms: C_3  and  C_4
REMARK    4  A    between atoms: C_4  and  C_5
REMARK    5  A    between atoms: C_5  and  C_6
REMARK    6  A    between atoms: C_6  and  C_7
REMARK    7  A    between atoms: C_7  and  C_8
REMARK    8  A    between atoms: C_8  and  O_10
REMARK    9  A    between atoms: O_10  and  C_11
REMARK   10  A    between atoms: C_13  and  O_31
REMARK   11  A    between atoms: C_19  and  O_30
REMARK   12  A    between atoms: C_20  and  C_22
REMARK   13  A    between atoms: C_24  and  O_29
REMARK   14  A    between atoms: C_25  and  O_28
REMARK                            x       y       z     vdW  Elec       q    Type
REMARK                         _______ _______ _______ _____ _____    ______ ____
ROOT
ATOM      1  C   UNL     1       9.339  -0.418  24.964  0.00  0.00    +0.150 A 
ATOM      2  C   UNL     1       8.625  -1.625  25.004  0.00  0.00    +0.110 A 
ATOM      3  C   UNL     1       9.086  -2.857  24.349  0.00  0.00    +0.238 A 
ATOM      4  C   UNL     1       8.191  -4.043  24.425  0.00  0.00    +0.208 A 
ATOM      5  C   UNL     1       7.012  -3.946  25.074  0.00  0.00    +0.181 A 
ATOM      6  O   UNL     1       6.616  -2.795  25.745  0.00  0.00    -0.451 OA
ATOM      7  O   UNL     1      10.152  -2.961  23.751  0.00  0.00    -0.283 OA
ATOM      8  C   UNL     1       7.415  -1.677  25.697  0.00  0.00    +0.147 A 
ATOM      9  C   UNL     1       6.939  -0.550  26.374  0.00  0.00    +0.092 A 
ATOM     10  C   UNL     1       7.659   0.636  26.333  0.00  0.00    +0.124 A 
ATOM     11  C   UNL     1       8.839   0.723  25.610  0.00  0.00    +0.092 A 
ENDROOT
BRANCH   5  12
ATOM     12  C   UNL     1       6.014  -5.055  25.163  0.00  0.00    +0.025 A 
ATOM     13  C   UNL     1       5.833  -5.798  26.349  0.00  0.00    +0.015 A 
ATOM     14  C   UNL     1       4.903  -6.842  26.429  0.00  0.00    +0.050 A 
ATOM     15  C   UNL     1       4.164  -7.175  25.310  0.00  0.00    +0.158 A 
ATOM     16  C   UNL     1       4.344  -6.483  24.117  0.00  0.00    +0.159 A 
ATOM     17  C   UNL     1       5.258  -5.431  24.034  0.00  0.00    +0.060 A 
BRANCH  15  18
ATOM     18  O   UNL     1       3.261  -8.194  25.386  0.00  0.00    -0.503 OA
ATOM     19  H   UNL     1       2.878  -8.117  26.283  0.00  0.00    +0.292 HD
ENDBRANCH  15  18
BRANCH  16  20
ATOM     20  O   UNL     1       3.593  -6.879  23.044  0.00  0.00    -0.503 OA
ATOM     21  H   UNL     1       3.747  -6.252  22.316  0.00  0.00    +0.292 HD
ENDBRANCH  16  20
ENDBRANCH   5  12
BRANCH   4  22
ATOM     22  O   UNL     1       8.654  -5.194  23.811  0.00  0.00    -0.501 OA
ATOM     23  H   UNL     1       9.267  -5.600  24.460  0.00  0.00    +0.292 HD
ENDBRANCH   4  22
BRANCH  10  24
ATOM     24  O   UNL     1       7.178   1.719  27.002  0.00  0.00    -0.507 OA
ATOM     25  H   UNL     1       7.930   2.255  27.314  0.00  0.00    +0.292 HD
ENDBRANCH  10  24
BRANCH   1  26
ATOM     26  O   UNL     1      10.482  -0.275  24.161  0.00  0.00    -0.425 OA
BRANCH  26  27
ATOM     27  C   UNL     1      10.474   0.791  23.263  0.00  0.00    +0.312 C 
ATOM     28  O   UNL     1      10.901   1.919  23.477  0.00  0.00    -0.250 OA
BRANCH  27  29
ATOM     29  C   UNL     1       9.765   0.379  21.998  0.00  0.00    +0.121 C 
BRANCH  29  30
ATOM     30  C   UNL     1       8.754   1.427  21.558  0.00  0.00    +0.011 C 
BRANCH  30  31
ATOM     31  C   UNL     1       7.406   1.224  22.245  0.00  0.00    +0.001 C 
BRANCH  31  32
ATOM     32  C   UNL     1       6.627   2.533  22.315  0.00  0.00    +0.000 C 
BRANCH  32  33
ATOM     33  C   UNL     1       7.547   3.693  22.688  0.00  0.00    -0.000 C 
BRANCH  33  35
ATOM     34  C   UNL     1       8.827   4.363  24.745  0.00  0.00    +0.004 C 
ATOM     35  C   UNL     1       7.467   3.991  24.182  0.00  0.00    -0.003 C 
ENDBRANCH  33  35
ENDBRANCH  32  33
ENDBRANCH  31  32
ENDBRANCH  30  31
ENDBRANCH  29  30
ENDBRANCH  27  29
ENDBRANCH  26  27
ENDBRANCH   1  26
TORSDOF 13
ENDMDL
MODEL 3
REMARK VINA RESULT:      -6.2      1.561      1.798
REMARK  Name = 
REMARK  14 active torsions:
REMARK  status: ('A' for Active; 'I' for Inactive)
REMARK    1  A    between atoms: C_1  and  C_2
REMARK    2  A    between atoms: C_2  and  C_3
REMARK    3  A    between atoms: C_3  and  C_4
REMARK    4  A    between atoms: C_4  and  C_5
REMARK    5  A    between atoms: C_5  and  C_6
REMARK    6  A    between atoms: C_6  and  C_7
REMARK    7  A    between atoms: C_7  and  C_8
REMARK    8  A    between atoms: C_8  and  O_10
REMARK    9  A    between atoms: O_10  and  C_11
REMARK   10  A    between atoms: C_13  and  O_31
REMARK   11  A    between atoms: C_19  and  O_30
REMARK   12  A    between atoms: C_20  and  C_22
REMARK   13  A    between atoms: C_24  and  O_29
REMARK   14  A    between atoms: C_25  and  O_28
REMARK                            x       y       z     vdW  Elec       q    Type
REMARK                         _______ _______ _______ _____ _____    ______ ____
ROOT
ATOM      1  C   UNL     1       7.114  -4.392  26.503  0.00  0.00    +0.150 A 
ATOM      2  C   UNL     1       7.338  -3.055  26.144  0.00  0.00    +0.110 A 
ATOM      3  C   UNL     1       6.412  -1.964  26.478  0.00  0.00    +0.238 A 
ATOM      4  C   UNL     1       6.752  -0.605  25.975  0.00  0.00    +0.208 A 
ATOM      5  C   UNL     1       7.872  -0.428  25.244  0.00  0.00    +0.181 A 
ATOM      6  O   UNL     1       8.775  -1.455  24.990  0.00  0.00    -0.451 OA
ATOM      7  O   UNL     1       5.387  -2.108  27.137  0.00  0.00    -0.283 OA
ATOM      8  C   UNL     1       8.494  -2.725  25.435  0.00  0.00    +0.147 A 
ATOM      9  C   UNL     1       9.435  -3.711  25.120  0.00  0.00    +0.092 A 
ATOM     10  C   UNL     1       9.205  -5.028  25.488  0.00  0.00    +0.124 A 
ATOM     11  C   UNL     1       8.040  -5.386  26.149  0.00  0.00    +0.092 A 
ENDROOT
BRANCH   5  12
ATOM     12  C   UNL     1       8.280   0.878  24.644  0.00  0.00    +0.025 A 
ATOM     13  C   UNL     1       8.173   2.090  25.359  0.00  0.00    +0.015 A 
ATOM     14  C   UNL     1       8.548   3.315  24.793  0.00  0.00    +0.050 A 
ATOM     15  C   UNL     1       9.007   3.343  23.489  0.00  0.00    +0.158 A 
ATOM     16  C   UNL     1       9.093   2.170  22.748  0.00  0.00    +0.159 A 
ATOM     17  C   UNL     1       8.735   0.943  23.311  0.00  0.00    +0.060 A 
BRANCH  15  18
ATOM     18  O   UNL     1       9.369   4.536  22.936  0.00  0.00    -0.503 OA
ATOM     19  H   UNL     1       8.563   5.087  22.988  0.00  0.00    +0.292 HD
ENDBRANCH  15  18
BRANCH  16  20
ATOM     20  O   UNL     1       9.537   2.275  21.458  0.00  0.00    -0.503 OA
ATOM     21  H   UNL     1      10.505   2.184  21.460  0.00  0.00    +0.292 HD
ENDBRANCH  16  20
ENDBRANCH   5  12
BRANCH   4  22
ATOM     22  O   UNL     1       5.871   0.406  26.313  0.00  0.00    -0.501 OA
ATOM     23  H   UNL     1       5.261   0.005  26.968  0.00  0.00    +0.292 HD
ENDBRANCH   4  22
BRANCH  10  24
ATOM     24  O   UNL     1      10.136  -5.970  25.174  0.00  0.00    -0.507 OA
ATOM     25  H   UNL     1      10.779  -6.033  25.903  0.00  0.00    +0.292 HD
ENDBRANCH  10  24
BRANCH   1  26
ATOM     26  O   UNL     1       5.901  -4.796  27.084  0.00  0.00    -0.425 OA
BRANCH  26  27
ATOM     27  C   UNL     1       5.252  -5.868  26.473  0.00  0.00    +0.312 C 
ATOM     28  O   UNL     1       5.196  -7.016  26.898  0.00  0.00    -0.250 OA
BRANCH  27  29
ATOM     29  C   UNL     1       4.698  -5.429  25.142  0.00  0.00    +0.121 C 
BRANCH  29  30
ATOM     30  C   UNL     1       4.792  -6.539  24.105  0.00  0.00    +0.011 C 
BRANCH  30  31
ATOM     31  C   UNL     1       5.079  -5.979  22.714  0.00  0.00    +0.001 C 
BRANCH  31  32
ATOM     32  C   UNL     1       6.573  -6.006  22.414  0.00  0.00    +0.000 C 
BRANCH  32  33
ATOM     33  C   UNL     1       7.133  -4.588  22.318  0.00  0.00    -0.000 C 
BRANCH  33  35
ATOM     34  C   UNL     1       6.042  -2.360  22.721  0.00  0.00    +0.004 C 
ATOM     35  C   UNL     1       6.056  -3.609  21.858  0.00  0.00    -0.003 C 
ENDBRANCH  33  35
ENDBRANCH  32  33
ENDBRANCH  31  32
ENDBRANCH  30  31
ENDBRANCH  29  30
ENDBRANCH  27  29
ENDBRANCH  26  27
ENDBRANCH   1  26
TORSDOF 13
ENDMDL
MODEL 4
REMARK VINA RESULT:      -6.1      1.734      2.909
REMARK  Name = 
REMARK  14 active torsions:
REMARK  status: ('A' for Active; 'I' for Inactive)
REMARK    1  A    between atoms: C_1  and  C_2
REMARK    2  A    between atoms: C_2  and  C_3
REMARK    3  A    between atoms: C_3  and  C_4
REMARK    4  A    between atoms: C_4  and  C_5
REMARK    5  A    between atoms: C_5  and  C_6
REMARK    6  A    between atoms: C_6  and  C_7
REMARK    7  A    between atoms: C_7  and  C_8
REMARK    8  A    between atoms: C_8  and  O_10
REMARK    9  A    between atoms: O_10  and  C_11
REMARK   10  A    between atoms: C_13  and  O_31
REMARK   11  A    between atoms: C_19  and  O_30
REMARK   12  A    between atoms: C_20  and  C_22
REMARK   13  A    between atoms: C_24  and  O_29
REMARK   14  A    between atoms: C_25  and  O_28
REMARK                            x       y       z     vdW  Elec       q    Type
REMARK                         _______ _______ _______ _____ _____    ______ ____
ROOT
ATOM      1  C   UNL     1       4.534  -4.571  23.669  0.00  0.00    +0.150 A 
ATOM      2  C   UNL     1       5.429  -3.503  23.820  0.00  0.00    +0.110 A 
ATOM      3  C   UNL     1       5.152  -2.330  24.661  0.00  0.00    +0.238 A 
ATOM      4  C   UNL     1       6.171  -1.245  24.673  0.00  0.00    +0.208 A 
ATOM      5  C   UNL     1       7.286  -1.373  23.925  0.00  0.00    +0.181 A 
ATOM      6  O   UNL     1       7.569  -2.515  23.185  0.00  0.00    -0.451 OA
ATOM      7  O   UNL     1       4.141  -2.195  25.343  0.00  0.00    -0.283 OA
ATOM      8  C   UNL     1       6.651  -3.538  23.146  0.00  0.00    +0.147 A 
ATOM      9  C   UNL     1       6.992  -4.643  22.360  0.00  0.00    +0.092 A 
ATOM     10  C   UNL     1       6.100  -5.697  22.226  0.00  0.00    +0.124 A 
ATOM     11  C   UNL     1       4.861  -5.660  22.847  0.00  0.00    +0.092 A 
ENDROOT
BRANCH   5  12
ATOM     12  C   UNL     1       8.346  -0.324  23.820  0.00  0.00    +0.025 A 
ATOM     13  C   UNL     1       9.230  -0.052  24.885  0.00  0.00    +0.015 A 
ATOM     14  C   UNL     1      10.217   0.937  24.788  0.00  0.00    +0.050 A 
ATOM     15  C   UNL     1      10.310   1.687  23.630  0.00  0.00    +0.158 A 
ATOM     16  C   UNL     1       9.431   1.464  22.576  0.00  0.00    +0.159 A 
ATOM     17  C   UNL     1       8.454   0.470  22.660  0.00  0.00    +0.060 A 
BRANCH  15  18
ATOM     18  O   UNL     1      11.269   2.652  23.536  0.00  0.00    -0.503 OA
ATOM     19  H   UNL     1      11.591   2.770  24.452  0.00  0.00    +0.292 HD
ENDBRANCH  15  18
BRANCH  16  20
ATOM     20  O   UNL     1       9.567   2.257  21.469  0.00  0.00    -0.503 OA
ATOM     21  H   UNL     1       9.866   3.136  21.758  0.00  0.00    +0.292 HD
ENDBRANCH  16  20
ENDBRANCH   5  12
BRANCH   4  22
ATOM     22  O   UNL     1       5.891  -0.158  25.482  0.00  0.00    -0.501 OA
ATOM     23  H   UNL     1       4.954   0.064  25.296  0.00  0.00    +0.292 HD
ENDBRANCH   4  22
BRANCH  10  24
ATOM     24  O   UNL     1       6.455  -6.764  21.459  0.00  0.00    -0.507 OA
ATOM     25  H   UNL     1       5.814  -6.856  20.731  0.00  0.00    +0.292 HD
ENDBRANCH  10  24
BRANCH   1  26
ATOM     26  O   UNL     1       3.236  -4.515  24.206  0.00  0.00    -0.425 OA
BRANCH  26  27
ATOM     27  C   UNL     1       2.827  -5.625  24.942  0.00  0.00    +0.312 C 
ATOM     28  O   UNL     1       2.041  -6.489  24.571  0.00  0.00    -0.250 OA
BRANCH  27  29
ATOM     29  C   UNL     1       3.425  -5.561  26.325  0.00  0.00    +0.121 C 
BRANCH  29  30
ATOM     30  C   UNL     1       4.560  -6.561  26.488  0.00  0.00    +0.011 C 
BRANCH  30  31
ATOM     31  C   UNL     1       5.720  -5.963  27.281  0.00  0.00    +0.001 C 
BRANCH  31  32
ATOM     32  C   UNL     1       6.862  -5.559  26.357  0.00  0.00    +0.000 C 
BRANCH  32  33
ATOM     33  C   UNL     1       7.507  -4.257  26.827  0.00  0.00    -0.000 C 
BRANCH  33  35
ATOM     34  C   UNL     1       9.252  -5.241  25.308  0.00  0.00    +0.004 C 
ATOM     35  C   UNL     1       8.841  -4.027  26.122  0.00  0.00    -0.003 C 
ENDBRANCH  33  35
ENDBRANCH  32  33
ENDBRANCH  31  32
ENDBRANCH  30  31
ENDBRANCH  29  30
ENDBRANCH  27  29
ENDBRANCH  26  27
ENDBRANCH   1  26
TORSDOF 13
ENDMDL
MODEL 5
REMARK VINA RESULT:      -6.1      1.474      2.809
REMARK  Name = 
REMARK  14 active torsions:
REMARK  status: ('A' for Active; 'I' for Inactive)
REMARK    1  A    between atoms: C_1  and  C_2
REMARK    2  A    between atoms: C_2  and  C_3
REMARK    3  A    between atoms: C_3  and  C_4
REMARK    4  A    between atoms: C_4  and  C_5
REMARK    5  A    between atoms: C_5  and  C_6
REMARK    6  A    between atoms: C_6  and  C_7
REMARK    7  A    between atoms: C_7  and  C_8
REMARK    8  A    between atoms: C_8  and  O_10
REMARK    9  A    between atoms: O_10  and  C_11
REMARK   10  A    between atoms: C_13  and  O_31
REMARK   11  A    between atoms: C_19  and  O_30
REMARK   12  A    between atoms: C_20  and  C_22
REMARK   13  A    between atoms: C_24  and  O_29
REMARK   14  A    between atoms: C_25  and  O_28
REMARK                            x       y       z     vdW  Elec       q    Type
REMARK                         _______ _______ _______ _____ _____    ______ ____
ROOT
ATOM      1  C   UNL     1       6.144  -4.194  27.379  0.00  0.00    +0.150 A 
ATOM      2  C   UNL     1       6.849  -3.378  26.483  0.00  0.00    +0.110 A 
ATOM      3  C   UNL     1       7.995  -3.849  25.693  0.00  0.00    +0.238 A 
ATOM      4  C   UNL     1       8.683  -2.851  24.830  0.00  0.00    +0.208 A 
ATOM      5  C   UNL     1       8.242  -1.576  24.807  0.00  0.00    +0.181 A 
ATOM      6  O   UNL     1       7.117  -1.157  25.508  0.00  0.00    -0.451 OA
ATOM      7  O   UNL     1       8.412  -5.003  25.705  0.00  0.00    -0.283 OA
ATOM      8  C   UNL     1       6.456  -2.049  26.319  0.00  0.00    +0.147 A 
ATOM      9  C   UNL     1       5.349  -1.549  27.013  0.00  0.00    +0.092 A 
ATOM     10  C   UNL     1       4.656  -2.369  27.890  0.00  0.00    +0.124 A 
ATOM     11  C   UNL     1       5.059  -3.678  28.105  0.00  0.00    +0.092 A 
ENDROOT
BRANCH   5  12
ATOM     12  C   UNL     1       8.890  -0.482  24.022  0.00  0.00    +0.025 A 
ATOM     13  C   UNL     1       9.921   0.312  24.566  0.00  0.00    +0.015 A 
ATOM     14  C   UNL     1      10.522   1.343  23.833  0.00  0.00    +0.050 A 
ATOM     15  C   UNL     1      10.075   1.609  22.552  0.00  0.00    +0.158 A 
ATOM     16  C   UNL     1       9.039   0.864  22.000  0.00  0.00    +0.159 A 
ATOM     17  C   UNL     1       8.445  -0.174  22.720  0.00  0.00    +0.060 A 
BRANCH  15  18
ATOM     18  O   UNL     1      10.658   2.614  21.838  0.00  0.00    -0.503 OA
ATOM     19  H   UNL     1      11.587   2.626  22.142  0.00  0.00    +0.292 HD
ENDBRANCH  15  18
BRANCH  16  20
ATOM     20  O   UNL     1       8.634   1.196  20.735  0.00  0.00    -0.503 OA
ATOM     21  H   UNL     1       9.144   1.971  20.445  0.00  0.00    +0.292 HD
ENDBRANCH  16  20
ENDBRANCH   5  12
BRANCH   4  22
ATOM     22  O   UNL     1       9.751  -3.323  24.087  0.00  0.00    -0.501 OA
ATOM     23  H   UNL     1      10.532  -2.835  24.425  0.00  0.00    +0.292 HD
ENDBRANCH   4  22
BRANCH  10  24
ATOM     24  O   UNL     1       3.580  -1.862  28.552  0.00  0.00    -0.507 OA
ATOM     25  H   UNL     1       2.785  -1.984  28.001  0.00  0.00    +0.292 HD
ENDBRANCH  10  24
BRANCH   1  26
ATOM     26  O   UNL     1       6.590  -5.490  27.689  0.00  0.00    -0.425 OA
BRANCH  26  27
ATOM     27  C   UNL     1       5.661  -6.516  27.524  0.00  0.00    +0.312 C 
ATOM     28  O   UNL     1       5.282  -7.294  28.391  0.00  0.00    -0.250 OA
BRANCH  27  29
ATOM     29  C   UNL     1       5.251  -6.596  26.075  0.00  0.00    +0.121 C 
BRANCH  29  30
ATOM     30  C   UNL     1       3.766  -6.315  25.900  0.00  0.00    +0.011 C 
BRANCH  30  31
ATOM     31  C   UNL     1       3.526  -5.194  24.891  0.00  0.00    +0.001 C 
BRANCH  31  32
ATOM     32  C   UNL     1       4.752  -4.980  24.012  0.00  0.00    +0.000 C 
BRANCH  32  33
ATOM     33  C   UNL     1       4.800  -3.548  23.485  0.00  0.00    -0.000 C 
BRANCH  33  35
ATOM     34  C   UNL     1       6.716  -4.619  22.259  0.00  0.00    +0.004 C 
ATOM     35  C   UNL     1       5.767  -3.434  22.310  0.00  0.00    -0.003 C 
ENDBRANCH  33  35
ENDBRANCH  32  33
ENDBRANCH  31  32
ENDBRANCH  30  31
ENDBRANCH  29  30
ENDBRANCH  27  29
ENDBRANCH  26  27
ENDBRANCH   1  26
TORSDOF 13
ENDMDL
MODEL 6
REMARK VINA RESULT:      -6.0      2.414      8.314
REMARK  Name = 
REMARK  14 active torsions:
REMARK  status: ('A' for Active; 'I' for Inactive)
REMARK    1  A    between atoms: C_1  and  C_2
REMARK    2  A    between atoms: C_2  and  C_3
REMARK    3  A    between atoms: C_3  and  C_4
REMARK    4  A    between atoms: C_4  and  C_5
REMARK    5  A    between atoms: C_5  and  C_6
REMARK    6  A    between atoms: C_6  and  C_7
REMARK    7  A    between atoms: C_7  and  C_8
REMARK    8  A    between atoms: C_8  and  O_10
REMARK    9  A    between atoms: O_10  and  C_11
REMARK   10  A    between atoms: C_13  and  O_31
REMARK   11  A    between atoms: C_19  and  O_30
REMARK   12  A    between atoms: C_20  and  C_22
REMARK   13  A    between atoms: C_24  and  O_29
REMARK   14  A    between atoms: C_25  and  O_28
REMARK                            x       y       z     vdW  Elec       q    Type
REMARK                         _______ _______ _______ _____ _____    ______ ____
ROOT
ATOM      1  C   UNL     1       9.244  -0.464  24.441  0.00  0.00    +0.150 A 
ATOM      2  C   UNL     1       8.533  -1.668  24.547  0.00  0.00    +0.110 A 
ATOM      3  C   UNL     1       8.871  -2.874  23.778  0.00  0.00    +0.238 A 
ATOM      4  C   UNL     1       7.986  -4.059  23.949  0.00  0.00    +0.208 A 
ATOM      5  C   UNL     1       6.927  -3.984  24.780  0.00  0.00    +0.181 A 
ATOM      6  O   UNL     1       6.655  -2.859  25.551  0.00  0.00    -0.451 OA
ATOM      7  O   UNL     1       9.827  -2.959  23.014  0.00  0.00    -0.283 OA
ATOM      8  C   UNL     1       7.447  -1.744  25.420  0.00  0.00    +0.147 A 
ATOM      9  C   UNL     1       7.097  -0.642  26.208  0.00  0.00    +0.092 A 
ATOM     10  C   UNL     1       7.814   0.540  26.100  0.00  0.00    +0.124 A 
ATOM     11  C   UNL     1       8.865   0.652  25.203  0.00  0.00    +0.092 A 
ENDROOT
BRANCH   5  12
ATOM     12  C   UNL     1       5.944  -5.091  24.983  0.00  0.00    +0.025 A 
ATOM     13  C   UNL     1       5.852  -5.788  26.206  0.00  0.00    +0.015 A 
ATOM     14  C   UNL     1       4.936  -6.830  26.393  0.00  0.00    +0.050 A 
ATOM     15  C   UNL     1       4.120  -7.208  25.343  0.00  0.00    +0.158 A 
ATOM     16  C   UNL     1       4.210  -6.562  24.115  0.00  0.00    +0.159 A 
ATOM     17  C   UNL     1       5.110  -5.511  23.927  0.00  0.00    +0.060 A 
BRANCH  15  18
ATOM     18  O   UNL     1       3.230  -8.226  25.523  0.00  0.00    -0.503 OA
ATOM     19  H   UNL     1       3.329  -8.784  24.726  0.00  0.00    +0.292 HD
ENDBRANCH  15  18
BRANCH  16  20
ATOM     20  O   UNL     1       3.386  -7.001  23.114  0.00  0.00    -0.503 OA
ATOM     21  H   UNL     1       3.478  -6.398  22.357  0.00  0.00    +0.292 HD
ENDBRANCH  16  20
ENDBRANCH   5  12
BRANCH   4  22
ATOM     22  O   UNL     1       8.333  -5.186  23.224  0.00  0.00    -0.501 OA
ATOM     23  H   UNL     1       9.247  -5.016  22.910  0.00  0.00    +0.292 HD
ENDBRANCH   4  22
BRANCH  10  24
ATOM     24  O   UNL     1       7.458   1.597  26.880  0.00  0.00    -0.507 OA
ATOM     25  H   UNL     1       6.866   2.180  26.370  0.00  0.00    +0.292 HD
ENDBRANCH  10  24
BRANCH   1  26
ATOM     26  O   UNL     1      10.247  -0.293  23.473  0.00  0.00    -0.425 OA
BRANCH  26  27
ATOM     27  C   UNL     1       9.844   0.268  22.262  0.00  0.00    +0.312 C 
ATOM     28  O   UNL     1       9.364  -0.336  21.310  0.00  0.00    -0.250 OA
BRANCH  27  29
ATOM     29  C   UNL     1      10.177   1.738  22.252  0.00  0.00    +0.121 C 
BRANCH  29  30
ATOM     30  C   UNL     1       8.919   2.595  22.281  0.00  0.00    +0.011 C 
BRANCH  30  31
ATOM     31  C   UNL     1       9.034   3.720  23.307  0.00  0.00    +0.001 C 
BRANCH  31  32
ATOM     32  C   UNL     1      10.476   3.887  23.774  0.00  0.00    +0.000 C 
BRANCH  32  33
ATOM     33  C   UNL     1      10.962   5.315  23.536  0.00  0.00    -0.000 C 
BRANCH  33  35
ATOM     34  C   UNL     1      13.110   5.579  22.256  0.00  0.00    +0.004 C 
ATOM     35  C   UNL     1      12.483   5.392  23.627  0.00  0.00    -0.003 C 
ENDBRANCH  33  35
ENDBRANCH  32  33
ENDBRANCH  31  32
ENDBRANCH  30  31
ENDBRANCH  29  30
ENDBRANCH  27  29
ENDBRANCH  26  27
ENDBRANCH   1  26
TORSDOF 13
ENDMDL
MODEL 7
REMARK VINA RESULT:      -5.8      2.382      7.930
REMARK  Name = 
REMARK  14 active torsions:
REMARK  status: ('A' for Active; 'I' for Inactive)
REMARK    1  A    between atoms: C_1  and  C_2
REMARK    2  A    between atoms: C_2  and  C_3
REMARK    3  A    between atoms: C_3  and  C_4
REMARK    4  A    between atoms: C_4  and  C_5
REMARK    5  A    between atoms: C_5  and  C_6
REMARK    6  A    between atoms: C_6  and  C_7
REMARK    7  A    between atoms: C_7  and  C_8
REMARK    8  A    between atoms: C_8  and  O_10
REMARK    9  A    between atoms: O_10  and  C_11
REMARK   10  A    between atoms: C_13  and  O_31
REMARK   11  A    between atoms: C_19  and  O_30
REMARK   12  A    between atoms: C_20  and  C_22
REMARK   13  A    between atoms: C_24  and  O_29
REMARK   14  A    between atoms: C_25  and  O_28
REMARK                            x       y       z     vdW  Elec       q    Type
REMARK                         _______ _______ _______ _____ _____    ______ ____
ROOT
ATOM      1  C   UNL     1       9.142  -1.050  24.202  0.00  0.00    +0.150 A 
ATOM      2  C   UNL     1       8.300  -2.171  24.185  0.00  0.00    +0.110 A 
ATOM      3  C   UNL     1       7.948  -2.897  22.956  0.00  0.00    +0.238 A 
ATOM      4  C   UNL     1       6.992  -4.030  23.086  0.00  0.00    +0.208 A 
ATOM      5  C   UNL     1       6.490  -4.341  24.299  0.00  0.00    +0.181 A 
ATOM      6  O   UNL     1       6.879  -3.688  25.463  0.00  0.00    -0.451 OA
ATOM      7  O   UNL     1       8.392  -2.626  21.845  0.00  0.00    -0.283 OA
ATOM      8  C   UNL     1       7.758  -2.635  25.384  0.00  0.00    +0.147 A 
ATOM      9  C   UNL     1       8.083  -2.011  26.594  0.00  0.00    +0.092 A 
ATOM     10  C   UNL     1       8.925  -0.908  26.598  0.00  0.00    +0.124 A 
ATOM     11  C   UNL     1       9.434  -0.402  25.412  0.00  0.00    +0.092 A 
ENDROOT
BRANCH   5  12
ATOM     12  C   UNL     1       5.483  -5.420  24.535  0.00  0.00    +0.025 A 
ATOM     13  C   UNL     1       5.448  -6.153  25.739  0.00  0.00    +0.015 A 
ATOM     14  C   UNL     1       4.510  -7.169  25.956  0.00  0.00    +0.050 A 
ATOM     15  C   UNL     1       3.612  -7.484  24.954  0.00  0.00    +0.158 A 
ATOM     16  C   UNL     1       3.642  -6.801  23.743  0.00  0.00    +0.159 A 
ATOM     17  C   UNL     1       4.566  -5.776  23.525  0.00  0.00    +0.060 A 
BRANCH  15  18
ATOM     18  O   UNL     1       2.699  -8.476  25.163  0.00  0.00    -0.503 OA
ATOM     19  H   UNL     1       3.087  -9.263  24.730  0.00  0.00    +0.292 HD
ENDBRANCH  15  18
BRANCH  16  20
ATOM     20  O   UNL     1       2.737  -7.178  22.788  0.00  0.00    -0.503 OA
ATOM     21  H   UNL     1       3.111  -6.969  21.914  0.00  0.00    +0.292 HD
ENDBRANCH  16  20
ENDBRANCH   5  12
BRANCH   4  22
ATOM     22  O   UNL     1       6.688  -4.705  21.917  0.00  0.00    -0.501 OA
ATOM     23  H   UNL     1       6.538  -5.635  22.191  0.00  0.00    +0.292 HD
ENDBRANCH   4  22
BRANCH  10  24
ATOM     24  O   UNL     1       9.230  -0.320  27.786  0.00  0.00    -0.507 OA
ATOM     25  H   UNL     1       8.805  -0.823  28.505  0.00  0.00    +0.292 HD
ENDBRANCH  10  24
BRANCH   1  26
ATOM     26  O   UNL     1       9.591  -0.458  23.010  0.00  0.00    -0.425 OA
BRANCH  26  27
ATOM     27  C   UNL     1       8.868   0.645  22.560  0.00  0.00    +0.312 C 
ATOM     28  O   UNL     1       7.648   0.729  22.487  0.00  0.00    -0.250 OA
BRANCH  27  29
ATOM     29  C   UNL     1       9.821   1.709  22.077  0.00  0.00    +0.121 C 
BRANCH  29  30
ATOM     30  C   UNL     1      10.469   2.447  23.239  0.00  0.00    +0.011 C 
BRANCH  30  31
ATOM     31  C   UNL     1       9.422   3.110  24.132  0.00  0.00    +0.001 C 
BRANCH  31  32
ATOM     32  C   UNL     1       9.212   4.567  23.736  0.00  0.00    +0.000 C 
BRANCH  32  33
ATOM     33  C   UNL     1       7.725   4.881  23.594  0.00  0.00    -0.000 C 
BRANCH  33  35
ATOM     34  C   UNL     1       5.798   3.695  22.498  0.00  0.00    +0.004 C 
ATOM     35  C   UNL     1       7.171   4.310  22.291  0.00  0.00    -0.003 C 
ENDBRANCH  33  35
ENDBRANCH  32  33
ENDBRANCH  31  32
ENDBRANCH  30  31
ENDBRANCH  29  30
ENDBRANCH  27  29
ENDBRANCH  26  27
ENDBRANCH   1  26
TORSDOF 13
ENDMDL
MODEL 8
REMARK VINA RESULT:      -5.7      2.014      7.143
REMARK  Name = 
REMARK  14 active torsions:
REMARK  status: ('A' for Active; 'I' for Inactive)
REMARK    1  A    between atoms: C_1  and  C_2
REMARK    2  A    between atoms: C_2  and  C_3
REMARK    3  A    between atoms: C_3  and  C_4
REMARK    4  A    between atoms: C_4  and  C_5
REMARK    5  A    between atoms: C_5  and  C_6
REMARK    6  A    between atoms: C_6  and  C_7
REMARK    7  A    between atoms: C_7  and  C_8
REMARK    8  A    between atoms: C_8  and  O_10
REMARK    9  A    between atoms: O_10  and  C_11
REMARK   10  A    between atoms: C_13  and  O_31
REMARK   11  A    between atoms: C_19  and  O_30
REMARK   12  A    between atoms: C_20  and  C_22
REMARK   13  A    between atoms: C_24  and  O_29
REMARK   14  A    between atoms: C_25  and  O_28
REMARK                            x       y       z     vdW  Elec       q    Type
REMARK                         _______ _______ _______ _____ _____    ______ ____
ROOT
ATOM      1  C   UNL     1       7.653  -0.073  23.349  0.00  0.00    +0.150 A 
ATOM      2  C   UNL     1       6.835  -1.178  23.621  0.00  0.00    +0.110 A 
ATOM      3  C   UNL     1       5.626  -1.102  24.454  0.00  0.00    +0.238 A 
ATOM      4  C   UNL     1       4.893  -2.372  24.706  0.00  0.00    +0.208 A 
ATOM      5  C   UNL     1       5.356  -3.524  24.176  0.00  0.00    +0.181 A 
ATOM      6  O   UNL     1       6.463  -3.573  23.336  0.00  0.00    -0.451 OA
ATOM      7  O   UNL     1       5.194  -0.065  24.947  0.00  0.00    -0.283 OA
ATOM      8  C   UNL     1       7.168  -2.421  23.082  0.00  0.00    +0.147 A 
ATOM      9  C   UNL     1       8.285  -2.554  22.249  0.00  0.00    +0.092 A 
ATOM     10  C   UNL     1       9.081  -1.450  21.981  0.00  0.00    +0.124 A 
ATOM     11  C   UNL     1       8.795  -0.216  22.547  0.00  0.00    +0.092 A 
ENDROOT
BRANCH   5  12
ATOM     12  C   UNL     1       4.732  -4.861  24.411  0.00  0.00    +0.025 A 
ATOM     13  C   UNL     1       5.027  -5.628  25.557  0.00  0.00    +0.015 A 
ATOM     14  C   UNL     1       4.448  -6.885  25.772  0.00  0.00    +0.050 A 
ATOM     15  C   UNL     1       3.588  -7.403  24.822  0.00  0.00    +0.158 A 
ATOM     16  C   UNL     1       3.302  -6.685  23.666  0.00  0.00    +0.159 A 
ATOM     17  C   UNL     1       3.864  -5.424  23.453  0.00  0.00    +0.060 A 
BRANCH  15  18
ATOM     18  O   UNL     1       3.026  -8.628  25.029  0.00  0.00    -0.503 OA
ATOM     19  H   UNL     1       3.693  -9.121  25.547  0.00  0.00    +0.292 HD
ENDBRANCH  15  18
BRANCH  16  20
ATOM     20  O   UNL     1       2.457  -7.267  22.760  0.00  0.00    -0.503 OA
ATOM     21  H   UNL     1       2.405  -6.690  21.978  0.00  0.00    +0.292 HD
ENDBRANCH  16  20
ENDBRANCH   5  12
BRANCH   4  22
ATOM     22  O   UNL     1       3.752  -2.272  25.483  0.00  0.00    -0.501 OA
ATOM     23  H   UNL     1       3.977  -1.623  26.183  0.00  0.00    +0.292 HD
ENDBRANCH   4  22
BRANCH  10  24
ATOM     24  O   UNL     1      10.160  -1.601  21.166  0.00  0.00    -0.507 OA
ATOM     25  H   UNL     1      10.831  -2.137  21.627  0.00  0.00    +0.292 HD
ENDBRANCH  10  24
BRANCH   1  26
ATOM     26  O   UNL     1       7.444   1.162  23.985  0.00  0.00    -0.425 OA
BRANCH  26  27
ATOM     27  C   UNL     1       8.438   1.575  24.870  0.00  0.00    +0.312 C 
ATOM     28  O   UNL     1       9.403   2.278  24.596  0.00  0.00    -0.250 OA
BRANCH  27  29
ATOM     29  C   UNL     1       8.205   0.943  26.219  0.00  0.00    +0.121 C 
BRANCH  29  30
ATOM     30  C   UNL     1       9.076  -0.289  26.416  0.00  0.00    +0.011 C 
BRANCH  30  31
ATOM     31  C   UNL     1       8.252  -1.483  26.895  0.00  0.00    +0.001 C 
BRANCH  31  32
ATOM     32  C   UNL     1       8.716  -2.770  26.224  0.00  0.00    +0.000 C 
BRANCH  32  33
ATOM     33  C   UNL     1       7.910  -3.966  26.726  0.00  0.00    -0.000 C 
BRANCH  33  35
ATOM     34  C   UNL     1       9.033  -5.262  24.888  0.00  0.00    +0.004 C 
ATOM     35  C   UNL     1       8.588  -5.278  26.340  0.00  0.00    -0.003 C 
ENDBRANCH  33  35
ENDBRANCH  32  33
ENDBRANCH  31  32
ENDBRANCH  30  31
ENDBRANCH  29  30
ENDBRANCH  27  29
ENDBRANCH  26  27
ENDBRANCH   1  26
TORSDOF 13
ENDMDL
MODEL 9
REMARK VINA RESULT:      -5.7      2.484      8.349
REMARK  Name = 
REMARK  14 active torsions:
REMARK  status: ('A' for Active; 'I' for Inactive)
REMARK    1  A    between atoms: C_1  and  C_2
REMARK    2  A    between atoms: C_2  and  C_3
REMARK    3  A    between atoms: C_3  and  C_4
REMARK    4  A    between atoms: C_4  and  C_5
REMARK    5  A    between atoms: C_5  and  C_6
REMARK    6  A    between atoms: C_6  and  C_7
REMARK    7  A    between atoms: C_7  and  C_8
REMARK    8  A    between atoms: C_8  and  O_10
REMARK    9  A    between atoms: O_10  and  C_11
REMARK   10  A    between atoms: C_13  and  O_31
REMARK   11  A    between atoms: C_19  and  O_30
REMARK   12  A    between atoms: C_20  and  C_22
REMARK   13  A    between atoms: C_24  and  O_29
REMARK   14  A    between atoms: C_25  and  O_28
REMARK                            x       y       z     vdW  Elec       q    Type
REMARK                         _______ _______ _______ _____ _____    ______ ____
ROOT
ATOM      1  C   UNL     1       7.658   0.219  23.057  0.00  0.00    +0.150 A 
ATOM      2  C   UNL     1       7.115  -0.828  23.815  0.00  0.00    +0.110 A 
ATOM      3  C   UNL     1       5.905  -0.686  24.637  0.00  0.00    +0.238 A 
ATOM      4  C   UNL     1       5.483  -1.868  25.437  0.00  0.00    +0.208 A 
ATOM      5  C   UNL     1       6.213  -3.001  25.384  0.00  0.00    +0.181 A 
ATOM      6  O   UNL     1       7.319  -3.145  24.554  0.00  0.00    -0.451 OA
ATOM      7  O   UNL     1       5.232   0.338  24.700  0.00  0.00    -0.283 OA
ATOM      8  C   UNL     1       7.741  -2.075  23.801  0.00  0.00    +0.147 A 
ATOM      9  C   UNL     1       8.875  -2.287  23.010  0.00  0.00    +0.092 A 
ATOM     10  C   UNL     1       9.397  -1.245  22.258  0.00  0.00    +0.124 A 
ATOM     11  C   UNL     1       8.819   0.015  22.296  0.00  0.00    +0.092 A 
ENDROOT
BRANCH   5  12
ATOM     12  C   UNL     1       5.914  -4.225  26.187  0.00  0.00    +0.025 A 
ATOM     13  C   UNL     1       6.416  -4.397  27.494  0.00  0.00    +0.015 A 
ATOM     14  C   UNL     1       6.142  -5.549  28.243  0.00  0.00    +0.050 A 
ATOM     15  C   UNL     1       5.385  -6.557  27.677  0.00  0.00    +0.158 A 
ATOM     16  C   UNL     1       4.903  -6.430  26.379  0.00  0.00    +0.159 A 
ATOM     17  C   UNL     1       5.160  -5.279  25.632  0.00  0.00    +0.060 A 
BRANCH  15  18
ATOM     18  O   UNL     1       5.120  -7.680  28.404  0.00  0.00    -0.503 OA
ATOM     19  H   UNL     1       4.911  -8.363  27.736  0.00  0.00    +0.292 HD
ENDBRANCH  15  18
BRANCH  16  20
ATOM     20  O   UNL     1       4.177  -7.476  25.875  0.00  0.00    -0.503 OA
ATOM     21  H   UNL     1       3.460  -7.678  26.500  0.00  0.00    +0.292 HD
ENDBRANCH  16  20
ENDBRANCH   5  12
BRANCH   4  22
ATOM     22  O   UNL     1       4.334  -1.712  26.192  0.00  0.00    -0.501 OA
ATOM     23  H   UNL     1       3.742  -2.441  25.909  0.00  0.00    +0.292 HD
ENDBRANCH   4  22
BRANCH  10  24
ATOM     24  O   UNL     1      10.499  -1.475  21.493  0.00  0.00    -0.507 OA
ATOM     25  H   UNL     1      10.874  -2.342  21.733  0.00  0.00    +0.292 HD
ENDBRANCH  10  24
BRANCH   1  26
ATOM     26  O   UNL     1       7.153   1.526  23.153  0.00  0.00    -0.425 OA
BRANCH  26  27
ATOM     27  C   UNL     1       7.979   2.461  23.773  0.00  0.00    +0.312 C 
ATOM     28  O   UNL     1       8.379   2.417  24.930  0.00  0.00    -0.250 OA
BRANCH  27  29
ATOM     29  C   UNL     1       8.239   3.608  22.829  0.00  0.00    +0.121 C 
BRANCH  29  30
ATOM     30  C   UNL     1       7.898   4.946  23.468  0.00  0.00    +0.011 C 
BRANCH  30  31
ATOM     31  C   UNL     1       9.089   5.901  23.434  0.00  0.00    +0.001 C 
BRANCH  31  32
ATOM     32  C   UNL     1      10.218   5.395  24.323  0.00  0.00    +0.000 C 
BRANCH  32  33
ATOM     33  C   UNL     1      11.546   6.042  23.937  0.00  0.00    -0.000 C 
BRANCH  33  35
ATOM     34  C   UNL     1      13.144   5.563  22.056  0.00  0.00    +0.004 C 
ATOM     35  C   UNL     1      12.489   5.017  23.313  0.00  0.00    -0.003 C 
ENDBRANCH  33  35
ENDBRANCH  32  33
ENDBRANCH  31  32
ENDBRANCH  30  31
ENDBRANCH  29  30
ENDBRANCH  27  29
ENDBRANCH  26  27
ENDBRANCH   1  26
TORSDOF 13
ENDMDL
