MODEL 1
REMARK VINA RESULT:      -7.5      0.000      0.000
REMARK  Name = 
REMARK  19 active torsions:
REMARK  status: ('A' for Active; 'I' for Inactive)
REMARK    1  A    between atoms: C_1  and  C_2
REMARK    2  A    between atoms: C_3  and  O_52
REMARK    3  A    between atoms: C_5  and  O_51
REMARK    4  A    between atoms: C_6  and  O_50
REMARK    5  A    between atoms: C_8  and  O_11
REMARK    6  A    between atoms: O_11  and  C_12
REMARK    7  A    between atoms: C_12  and  C_13
REMARK    8  A    between atoms: C_14  and  O_49
REMARK    9  A    between atoms: C_16  and  O_48
REMARK   10  A    between atoms: C_18  and  O_44
REMARK   11  A    between atoms: C_19  and  O_22
REMARK   12  A    between atoms: O_22  and  C_23
REMARK   13  A    between atoms: C_24  and  C_36
REMARK   14  A    between atoms: C_28  and  O_35
REMARK   15  A    between atoms: C_30  and  O_34
REMARK   16  A    between atoms: C_38  and  O_43
REMARK   17  A    between atoms: C_39  and  O_42
REMARK   18  A    between atoms: O_44  and  C_45
REMARK   19  A    between atoms: C_45  and  C_47
REMARK                            x       y       z     vdW  Elec       q    Type
REMARK                         _______ _______ _______ _____ _____    ______ ____
ROOT
ATOM      1  C   UNL     1       4.711   0.244  26.236  0.00  0.00    +0.179 C 
ATOM      2  O   UNL     1       5.354   1.042  25.218  0.00  0.00    -0.330 OA
ATOM      3  C   UNL     1       6.612   1.675  25.518  0.00  0.00    +0.352 C 
ATOM      4  C   UNL     1       6.693   2.357  26.917  0.00  0.00    +0.275 C 
ATOM      5  C   UNL     1       6.196   1.347  27.963  0.00  0.00    +0.192 C 
ATOM      6  C   UNL     1       4.781   0.884  27.632  0.00  0.00    +0.178 C 
ENDROOT
BRANCH   6   7
ATOM      7  O   UNL     1       4.294   0.031  28.674  0.00  0.00    -0.386 OA
ATOM      8  H   UNL     1       4.079  -0.826  28.263  0.00  0.00    +0.210 HD
ENDBRANCH   6   7
BRANCH   5   9
ATOM      9  O   UNL     1       6.197   1.915  29.281  0.00  0.00    -0.385 OA
ATOM     10  H   UNL     1       6.949   1.484  29.738  0.00  0.00    +0.210 HD
ENDBRANCH   5   9
BRANCH   4  11
ATOM     11  O   UNL     1       5.921   3.596  26.994  0.00  0.00    -0.452 OA
BRANCH  11  12
ATOM     12  C   UNL     1       6.509   4.620  27.682  0.00  0.00    +0.304 C 
ATOM     13  C   UNL     1       5.831   5.942  27.461  0.00  0.00    +0.136 C 
ATOM     14  O   UNL     1       7.515   4.524  28.394  0.00  0.00    -0.251 OA
ENDBRANCH  11  12
ENDBRANCH   4  11
BRANCH   3  15
ATOM     15  O   UNL     1       6.901   2.679  24.513  0.00  0.00    -0.452 OA
BRANCH  15  16
ATOM     16  C   UNL     1       8.190   3.070  24.153  0.00  0.00    +0.214 A 
ATOM     17  C   UNL     1       8.707   4.471  24.312  0.00  0.00    +0.238 A 
ATOM     18  O   UNL     1       7.988   5.388  24.682  0.00  0.00    -0.283 OA
ATOM     19  C   UNL     1      10.138   4.726  24.012  0.00  0.00    +0.109 A 
ATOM     20  C   UNL     1      10.882   3.695  23.451  0.00  0.00    +0.147 A 
ATOM     21  C   UNL     1      12.232   3.881  23.123  0.00  0.00    +0.092 A 
ATOM     22  C   UNL     1      12.829   5.111  23.356  0.00  0.00    +0.124 A 
ATOM     23  C   UNL     1      12.108   6.152  23.921  0.00  0.00    +0.091 A 
ATOM     24  O   UNL     1      10.352   2.458  23.202  0.00  0.00    -0.451 OA
ATOM     25  C   UNL     1      10.768   5.958  24.259  0.00  0.00    +0.135 A 
ATOM     26  C   UNL     1       9.067   2.172  23.639  0.00  0.00    +0.181 A 
BRANCH  26  27
ATOM     27  C   UNL     1       8.877   0.707  23.732  0.00  0.00    +0.025 A 
ATOM     28  C   UNL     1       9.713   0.070  24.658  0.00  0.00    +0.015 A 
ATOM     29  C   UNL     1       9.933  -1.303  24.602  0.00  0.00    +0.050 A 
ATOM     30  C   UNL     1       9.170  -2.073  23.737  0.00  0.00    +0.158 A 
ATOM     31  C   UNL     1       8.235  -1.473  22.891  0.00  0.00    +0.159 A 
ATOM     32  C   UNL     1       8.130  -0.074  22.830  0.00  0.00    +0.060 A 
BRANCH  30  33
ATOM     33  O   UNL     1       9.329  -3.429  23.734  0.00  0.00    -0.503 OA
ATOM     34  H   UNL     1      10.115  -3.630  24.266  0.00  0.00    +0.292 HD
ENDBRANCH  30  33
BRANCH  31  35
ATOM     35  O   UNL     1       7.424  -2.291  22.150  0.00  0.00    -0.503 OA
ATOM     36  H   UNL     1       7.457  -3.194  22.495  0.00  0.00    +0.292 HD
ENDBRANCH  31  35
ENDBRANCH  26  27
BRANCH  25  37
ATOM     37  O   UNL     1      10.098   6.998  24.845  0.00  0.00    -0.506 OA
ATOM     38  H   UNL     1       9.278   7.209  24.368  0.00  0.00    +0.292 HD
ENDBRANCH  25  37
BRANCH  22  39
ATOM     39  O   UNL     1      14.135   5.354  23.050  0.00  0.00    -0.507 OA
ATOM     40  H   UNL     1      14.309   6.307  23.117  0.00  0.00    +0.292 HD
ENDBRANCH  22  39
ENDBRANCH  15  16
ENDBRANCH   3  15
BRANCH   1  41
ATOM     41  C   UNL     1       4.832  -1.335  26.108  0.00  0.00    +0.197 C 
BRANCH  41  42
ATOM     42  O   UNL     1       4.517  -1.961  24.856  0.00  0.00    -0.346 OA
BRANCH  42  46
ATOM     43  C   UNL     1       6.463  -5.709  26.203  0.00  0.00    +0.041 C 
ATOM     44  C   UNL     1       6.821  -4.927  24.936  0.00  0.00    +0.149 C 
ATOM     45  O   UNL     1       6.339  -3.565  24.948  0.00  0.00    -0.343 OA
ATOM     46  C   UNL     1       4.933  -3.367  24.723  0.00  0.00    +0.282 C 
ATOM     47  C   UNL     1       4.454  -4.082  23.417  0.00  0.00    +0.201 C 
ATOM     48  C   UNL     1       4.895  -5.565  23.427  0.00  0.00    +0.179 C 
ATOM     49  C   UNL     1       6.403  -5.696  23.671  0.00  0.00    +0.174 C 
BRANCH  49  50
ATOM     50  O   UNL     1       7.094  -5.190  22.516  0.00  0.00    -0.387 OA
ATOM     51  H   UNL     1       6.412  -4.787  21.937  0.00  0.00    +0.210 HD
ENDBRANCH  49  50
BRANCH  48  52
ATOM     52  O   UNL     1       4.568  -6.176  22.166  0.00  0.00    -0.386 OA
ATOM     53  H   UNL     1       5.351  -6.031  21.592  0.00  0.00    +0.210 HD
ENDBRANCH  48  52
BRANCH  47  54
ATOM     54  O   UNL     1       5.002  -3.472  22.229  0.00  0.00    -0.384 OA
ATOM     55  H   UNL     1       4.423  -3.776  21.501  0.00  0.00    +0.210 HD
ENDBRANCH  47  54
ENDBRANCH  42  46
ENDBRANCH  41  42
ENDBRANCH   1  41
TORSDOF 17
ENDMDL
MODEL 2
REMARK VINA RESULT:      -7.4      2.368      8.355
REMARK  Name = 
REMARK  19 active torsions:
REMARK  status: ('A' for Active; 'I' for Inactive)
REMARK    1  A    between atoms: C_1  and  C_2
REMARK    2  A    between atoms: C_3  and  O_52
REMARK    3  A    between atoms: C_5  and  O_51
REMARK    4  A    between atoms: C_6  and  O_50
REMARK    5  A    between atoms: C_8  and  O_11
REMARK    6  A    between atoms: O_11  and  C_12
REMARK    7  A    between atoms: C_12  and  C_13
REMARK    8  A    between atoms: C_14  and  O_49
REMARK    9  A    between atoms: C_16  and  O_48
REMARK   10  A    between atoms: C_18  and  O_44
REMARK   11  A    between atoms: C_19  and  O_22
REMARK   12  A    between atoms: O_22  and  C_23
REMARK   13  A    between atoms: C_24  and  C_36
REMARK   14  A    between atoms: C_28  and  O_35
REMARK   15  A    between atoms: C_30  and  O_34
REMARK   16  A    between atoms: C_38  and  O_43
REMARK   17  A    between atoms: C_39  and  O_42
REMARK   18  A    between atoms: O_44  and  C_45
REMARK   19  A    between atoms: C_45  and  C_47
REMARK                            x       y       z     vdW  Elec       q    Type
REMARK                         _______ _______ _______ _____ _____    ______ ____
ROOT
ATOM      1  C   UNL     1       8.936  -0.294  22.329  0.00  0.00    +0.179 C 
ATOM      2  O   UNL     1       7.640  -0.390  22.958  0.00  0.00    -0.330 OA
ATOM      3  C   UNL     1       7.519  -1.109  24.200  0.00  0.00    +0.352 C 
ATOM      4  C   UNL     1       8.288  -2.463  24.259  0.00  0.00    +0.275 C 
ATOM      5  C   UNL     1       9.725  -2.210  23.780  0.00  0.00    +0.192 C 
ATOM      6  C   UNL     1       9.726  -1.611  22.377  0.00  0.00    +0.178 C 
ENDROOT
BRANCH   6   7
ATOM      7  O   UNL     1      11.072  -1.485  21.905  0.00  0.00    -0.386 OA
ATOM      8  H   UNL     1      11.026  -1.382  20.938  0.00  0.00    +0.210 HD
ENDBRANCH   6   7
BRANCH   5   9
ATOM      9  O   UNL     1      10.493  -3.423  23.763  0.00  0.00    -0.385 OA
ATOM     10  H   UNL     1      11.424  -3.131  23.845  0.00  0.00    +0.210 HD
ENDBRANCH   5   9
BRANCH   4  11
ATOM     11  O   UNL     1       7.658  -3.513  23.460  0.00  0.00    -0.452 OA
BRANCH  11  12
ATOM     12  C   UNL     1       7.611  -4.751  24.036  0.00  0.00    +0.304 C 
ATOM     13  C   UNL     1       6.351  -5.501  23.714  0.00  0.00    +0.136 C 
ATOM     14  O   UNL     1       8.474  -5.232  24.779  0.00  0.00    -0.251 OA
ENDBRANCH  11  12
ENDBRANCH   4  11
BRANCH   3  15
ATOM     15  O   UNL     1       6.120  -1.376  24.471  0.00  0.00    -0.452 OA
BRANCH  15  16
ATOM     16  C   UNL     1       5.430  -0.864  25.569  0.00  0.00    +0.214 A 
ATOM     17  C   UNL     1       4.847   0.520  25.611  0.00  0.00    +0.238 A 
ATOM     18  O   UNL     1       5.029   1.326  24.709  0.00  0.00    -0.283 OA
ATOM     19  C   UNL     1       4.024   0.897  26.787  0.00  0.00    +0.109 A 
ATOM     20  C   UNL     1       3.968   0.010  27.856  0.00  0.00    +0.147 A 
ATOM     21  C   UNL     1       3.228   0.319  29.006  0.00  0.00    +0.092 A 
ATOM     22  C   UNL     1       2.549   1.526  29.078  0.00  0.00    +0.124 A 
ATOM     23  C   UNL     1       2.586   2.423  28.021  0.00  0.00    +0.091 A 
ATOM     24  O   UNL     1       4.610  -1.199  27.843  0.00  0.00    -0.451 OA
ATOM     25  C   UNL     1       3.313   2.105  26.873  0.00  0.00    +0.135 A 
ATOM     26  C   UNL     1       5.236  -1.619  26.679  0.00  0.00    +0.181 A 
BRANCH  26  27
ATOM     27  C   UNL     1       5.416  -3.089  26.702  0.00  0.00    +0.025 A 
ATOM     28  C   UNL     1       4.260  -3.820  26.394  0.00  0.00    +0.015 A 
ATOM     29  C   UNL     1       4.150  -5.165  26.734  0.00  0.00    +0.050 A 
ATOM     30  C   UNL     1       5.267  -5.833  27.211  0.00  0.00    +0.158 A 
ATOM     31  C   UNL     1       6.471  -5.153  27.406  0.00  0.00    +0.159 A 
ATOM     32  C   UNL     1       6.537  -3.762  27.220  0.00  0.00    +0.060 A 
BRANCH  30  33
ATOM     33  O   UNL     1       5.184  -7.171  27.472  0.00  0.00    -0.503 OA
ATOM     34  H   UNL     1       5.624  -7.636  26.744  0.00  0.00    +0.292 HD
ENDBRANCH  30  33
BRANCH  31  35
ATOM     35  O   UNL     1       7.571  -5.887  27.759  0.00  0.00    -0.503 OA
ATOM     36  H   UNL     1       7.887  -6.401  27.004  0.00  0.00    +0.292 HD
ENDBRANCH  31  35
ENDBRANCH  26  27
BRANCH  25  37
ATOM     37  O   UNL     1       3.299   3.001  25.837  0.00  0.00    -0.506 OA
ATOM     38  H   UNL     1       2.976   2.593  25.017  0.00  0.00    +0.292 HD
ENDBRANCH  25  37
BRANCH  22  39
ATOM     39  O   UNL     1       1.820   1.885  30.173  0.00  0.00    -0.507 OA
ATOM     40  H   UNL     1       0.880   1.934  29.930  0.00  0.00    +0.292 HD
ENDBRANCH  22  39
ENDBRANCH  15  16
ENDBRANCH   3  15
BRANCH   1  41
ATOM     41  C   UNL     1       9.721   1.079  22.485  0.00  0.00    +0.197 C 
BRANCH  41  42
ATOM     42  O   UNL     1       9.748   1.728  23.765  0.00  0.00    -0.346 OA
BRANCH  42  46
ATOM     43  C   UNL     1       9.146   5.840  25.308  0.00  0.00    +0.041 C 
ATOM     44  C   UNL     1       8.100   4.721  25.328  0.00  0.00    +0.149 C 
ATOM     45  O   UNL     1       8.668   3.403  25.153  0.00  0.00    -0.343 OA
ATOM     46  C   UNL     1       9.090   3.043  23.827  0.00  0.00    +0.282 C 
ATOM     47  C   UNL     1       7.948   3.266  22.782  0.00  0.00    +0.201 C 
ATOM     48  C   UNL     1       7.384   4.701  22.903  0.00  0.00    +0.179 C 
ATOM     49  C   UNL     1       6.957   5.011  24.342  0.00  0.00    +0.174 C 
BRANCH  49  50
ATOM     50  O   UNL     1       5.801   4.214  24.652  0.00  0.00    -0.387 OA
ATOM     51  H   UNL     1       6.124   3.443  25.167  0.00  0.00    +0.210 HD
ENDBRANCH  49  50
BRANCH  48  52
ATOM     52  O   UNL     1       6.249   4.851  22.032  0.00  0.00    -0.386 OA
ATOM     53  H   UNL     1       6.622   5.002  21.136  0.00  0.00    +0.210 HD
ENDBRANCH  48  52
BRANCH  47  54
ATOM     54  O   UNL     1       6.849   2.348  22.970  0.00  0.00    -0.384 OA
ATOM     55  H   UNL     1       6.164   2.870  23.434  0.00  0.00    +0.210 HD
ENDBRANCH  47  54
ENDBRANCH  42  46
ENDBRANCH  41  42
ENDBRANCH   1  41
TORSDOF 17
ENDMDL
MODEL 3
REMARK VINA RESULT:      -7.3      2.344      4.405
REMARK  Name = 
REMARK  19 active torsions:
REMARK  status: ('A' for Active; 'I' for Inactive)
REMARK    1  A    between atoms: C_1  and  C_2
REMARK    2  A    between atoms: C_3  and  O_52
REMARK    3  A    between atoms: C_5  and  O_51
REMARK    4  A    between atoms: C_6  and  O_50
REMARK    5  A    between atoms: C_8  and  O_11
REMARK    6  A    between atoms: O_11  and  C_12
REMARK    7  A    between atoms: C_12  and  C_13
REMARK    8  A    between atoms: C_14  and  O_49
REMARK    9  A    between atoms: C_16  and  O_48
REMARK   10  A    between atoms: C_18  and  O_44
REMARK   11  A    between atoms: C_19  and  O_22
REMARK   12  A    between atoms: O_22  and  C_23
REMARK   13  A    between atoms: C_24  and  C_36
REMARK   14  A    between atoms: C_28  and  O_35
REMARK   15  A    between atoms: C_30  and  O_34
REMARK   16  A    between atoms: C_38  and  O_43
REMARK   17  A    between atoms: C_39  and  O_42
REMARK   18  A    between atoms: O_44  and  C_45
REMARK   19  A    between atoms: C_45  and  C_47
REMARK                            x       y       z     vdW  Elec       q    Type
REMARK                         _______ _______ _______ _____ _____    ______ ____
ROOT
ATOM      1  C   UNL     1       4.341  -4.353  25.946  0.00  0.00    +0.179 C 
ATOM      2  O   UNL     1       4.642  -3.258  25.054  0.00  0.00    -0.330 OA
ATOM      3  C   UNL     1       5.297  -2.089  25.581  0.00  0.00    +0.352 C 
ATOM      4  C   UNL     1       4.746  -1.581  26.947  0.00  0.00    +0.275 C 
ATOM      5  C   UNL     1       4.672  -2.782  27.901  0.00  0.00    +0.192 C 
ATOM      6  C   UNL     1       3.803  -3.887  27.308  0.00  0.00    +0.178 C 
ENDROOT
BRANCH   6   7
ATOM      7  O   UNL     1       3.657  -4.950  28.256  0.00  0.00    -0.386 OA
ATOM      8  H   UNL     1       4.151  -5.713  27.907  0.00  0.00    +0.210 HD
ENDBRANCH   6   7
BRANCH   5   9
ATOM      9  O   UNL     1       4.131  -2.407  29.176  0.00  0.00    -0.385 OA
ATOM     10  H   UNL     1       3.881  -3.253  29.601  0.00  0.00    +0.210 HD
ENDBRANCH   5   9
BRANCH   4  11
ATOM     11  O   UNL     1       3.439  -0.937  26.833  0.00  0.00    -0.452 OA
BRANCH  11  12
ATOM     12  C   UNL     1       3.296   0.242  27.508  0.00  0.00    +0.304 C 
ATOM     13  C   UNL     1       2.091   1.026  27.075  0.00  0.00    +0.136 C 
ATOM     14  O   UNL     1       4.071   0.676  28.369  0.00  0.00    -0.251 OA
ENDBRANCH  11  12
ENDBRANCH   4  11
BRANCH   3  15
ATOM     15  O   UNL     1       5.194  -1.003  24.625  0.00  0.00    -0.452 OA
BRANCH  15  16
ATOM     16  C   UNL     1       6.278  -0.235  24.202  0.00  0.00    +0.214 A 
ATOM     17  C   UNL     1       6.555   1.155  24.701  0.00  0.00    +0.238 A 
ATOM     18  O   UNL     1       5.782   1.740  25.446  0.00  0.00    -0.283 OA
ATOM     19  C   UNL     1       7.812   1.814  24.270  0.00  0.00    +0.109 A 
ATOM     20  C   UNL     1       8.586   1.178  23.307  0.00  0.00    +0.147 A 
ATOM     21  C   UNL     1       9.773   1.762  22.840  0.00  0.00    +0.092 A 
ATOM     22  C   UNL     1      10.174   2.991  23.343  0.00  0.00    +0.124 A 
ATOM     23  C   UNL     1       9.420   3.640  24.309  0.00  0.00    +0.091 A 
ATOM     24  O   UNL     1       8.247  -0.037  22.776  0.00  0.00    -0.451 OA
ATOM     25  C   UNL     1       8.247   3.048  24.781  0.00  0.00    +0.135 A 
ATOM     26  C   UNL     1       7.166  -0.727  23.303  0.00  0.00    +0.181 A 
BRANCH  26  27
ATOM     27  C   UNL     1       7.269  -2.166  22.967  0.00  0.00    +0.025 A 
ATOM     28  C   UNL     1       6.332  -2.611  22.026  0.00  0.00    +0.015 A 
ATOM     29  C   UNL     1       6.043  -3.965  21.887  0.00  0.00    +0.050 A 
ATOM     30  C   UNL     1       6.826  -4.894  22.555  0.00  0.00    +0.158 A 
ATOM     31  C   UNL     1       7.854  -4.476  23.402  0.00  0.00    +0.159 A 
ATOM     32  C   UNL     1       8.039  -3.110  23.671  0.00  0.00    +0.060 A 
BRANCH  30  33
ATOM     33  O   UNL     1       6.595  -6.226  22.359  0.00  0.00    -0.503 OA
ATOM     34  H   UNL     1       5.636  -6.344  22.269  0.00  0.00    +0.292 HD
ENDBRANCH  30  33
BRANCH  31  35
ATOM     35  O   UNL     1       8.673  -5.435  23.936  0.00  0.00    -0.503 OA
ATOM     36  H   UNL     1       8.190  -6.266  24.039  0.00  0.00    +0.292 HD
ENDBRANCH  31  35
ENDBRANCH  26  27
BRANCH  25  37
ATOM     37  O   UNL     1       7.548   3.703  25.759  0.00  0.00    -0.506 OA
ATOM     38  H   UNL     1       8.105   3.890  26.533  0.00  0.00    +0.292 HD
ENDBRANCH  25  37
BRANCH  22  39
ATOM     39  O   UNL     1      11.312   3.610  22.922  0.00  0.00    -0.507 OA
ATOM     40  H   UNL     1      11.116   4.138  22.131  0.00  0.00    +0.292 HD
ENDBRANCH  22  39
ENDBRANCH  15  16
ENDBRANCH   3  15
BRANCH   1  41
ATOM     41  C   UNL     1       5.296  -5.622  25.890  0.00  0.00    +0.197 C 
BRANCH  41  42
ATOM     42  O   UNL     1       4.999  -6.682  24.970  0.00  0.00    -0.346 OA
BRANCH  42  46
ATOM     43  C   UNL     1       0.988  -8.426  25.693  0.00  0.00    +0.041 C 
ATOM     44  C   UNL     1       1.815  -8.598  24.415  0.00  0.00    +0.149 C 
ATOM     45  O   UNL     1       3.215  -8.287  24.594  0.00  0.00    -0.343 OA
ATOM     46  C   UNL     1       3.570  -6.898  24.686  0.00  0.00    +0.282 C 
ATOM     47  C   UNL     1       2.999  -6.078  23.484  0.00  0.00    +0.201 C 
ATOM     48  C   UNL     1       1.482  -6.339  23.330  0.00  0.00    +0.179 C 
ATOM     49  C   UNL     1       1.182  -7.839  23.237  0.00  0.00    +0.174 C 
BRANCH  49  50
ATOM     50  O   UNL     1       1.693  -8.326  21.984  0.00  0.00    -0.387 OA
ATOM     51  H   UNL     1       2.632  -8.565  22.139  0.00  0.00    +0.210 HD
ENDBRANCH  49  50
BRANCH  48  52
ATOM     52  O   UNL     1       0.996  -5.687  22.143  0.00  0.00    -0.386 OA
ATOM     53  H   UNL     1       0.730  -6.411  21.535  0.00  0.00    +0.210 HD
ENDBRANCH  48  52
BRANCH  47  54
ATOM     54  O   UNL     1       3.631  -6.431  22.234  0.00  0.00    -0.384 OA
ATOM     55  H   UNL     1       4.584  -6.494  22.444  0.00  0.00    +0.210 HD
ENDBRANCH  47  54
ENDBRANCH  42  46
ENDBRANCH  41  42
ENDBRANCH   1  41
TORSDOF 17
ENDMDL
MODEL 4
REMARK VINA RESULT:      -7.2      2.297      6.651
REMARK  Name = 
REMARK  19 active torsions:
REMARK  status: ('A' for Active; 'I' for Inactive)
REMARK    1  A    between atoms: C_1  and  C_2
REMARK    2  A    between atoms: C_3  and  O_52
REMARK    3  A    between atoms: C_5  and  O_51
REMARK    4  A    between atoms: C_6  and  O_50
REMARK    5  A    between atoms: C_8  and  O_11
REMARK    6  A    between atoms: O_11  and  C_12
REMARK    7  A    between atoms: C_12  and  C_13
REMARK    8  A    between atoms: C_14  and  O_49
REMARK    9  A    between atoms: C_16  and  O_48
REMARK   10  A    between atoms: C_18  and  O_44
REMARK   11  A    between atoms: C_19  and  O_22
REMARK   12  A    between atoms: O_22  and  C_23
REMARK   13  A    between atoms: C_24  and  C_36
REMARK   14  A    between atoms: C_28  and  O_35
REMARK   15  A    between atoms: C_30  and  O_34
REMARK   16  A    between atoms: C_38  and  O_43
REMARK   17  A    between atoms: C_39  and  O_42
REMARK   18  A    between atoms: O_44  and  C_45
REMARK   19  A    between atoms: C_45  and  C_47
REMARK                            x       y       z     vdW  Elec       q    Type
REMARK                         _______ _______ _______ _____ _____    ______ ____
ROOT
ATOM      1  C   UNL     1       8.699  -3.963  26.631  0.00  0.00    +0.179 C 
ATOM      2  O   UNL     1       8.143  -2.665  26.933  0.00  0.00    -0.330 OA
ATOM      3  C   UNL     1       7.708  -1.823  25.849  0.00  0.00    +0.352 C 
ATOM      4  C   UNL     1       8.677  -1.762  24.629  0.00  0.00    +0.275 C 
ATOM      5  C   UNL     1       9.036  -3.204  24.241  0.00  0.00    +0.192 C 
ATOM      6  C   UNL     1       9.653  -3.941  25.427  0.00  0.00    +0.178 C 
ENDROOT
BRANCH   6   7
ATOM      7  O   UNL     1      10.082  -5.244  25.017  0.00  0.00    -0.386 OA
ATOM      8  H   UNL     1       9.286  -5.732  24.739  0.00  0.00    +0.210 HD
ENDBRANCH   6   7
BRANCH   5   9
ATOM      9  O   UNL     1       9.965  -3.237  23.147  0.00  0.00    -0.385 OA
ATOM     10  H   UNL     1       9.562  -2.667  22.460  0.00  0.00    +0.210 HD
ENDBRANCH   5   9
BRANCH   4  11
ATOM     11  O   UNL     1       9.886  -0.986  24.898  0.00  0.00    -0.452 OA
BRANCH  11  12
ATOM     12  C   UNL     1      10.299  -0.161  23.891  0.00  0.00    +0.304 C 
ATOM     13  C   UNL     1      11.075   1.026  24.384  0.00  0.00    +0.136 C 
ATOM     14  O   UNL     1      10.053  -0.314  22.689  0.00  0.00    -0.251 OA
ENDBRANCH  11  12
ENDBRANCH   4  11
BRANCH   3  15
ATOM     15  O   UNL     1       7.514  -0.470  26.334  0.00  0.00    -0.452 OA
BRANCH  15  16
ATOM     16  C   UNL     1       6.285   0.188  26.328  0.00  0.00    +0.214 A 
ATOM     17  C   UNL     1       5.137  -0.191  27.220  0.00  0.00    +0.238 A 
ATOM     18  O   UNL     1       5.180  -1.174  27.948  0.00  0.00    -0.283 OA
ATOM     19  C   UNL     1       3.929   0.671  27.209  0.00  0.00    +0.109 A 
ATOM     20  C   UNL     1       3.860   1.687  26.263  0.00  0.00    +0.147 A 
ATOM     21  C   UNL     1       2.735   2.519  26.185  0.00  0.00    +0.092 A 
ATOM     22  C   UNL     1       1.677   2.322  27.061  0.00  0.00    +0.124 A 
ATOM     23  C   UNL     1       1.727   1.319  28.017  0.00  0.00    +0.091 A 
ATOM     24  O   UNL     1       4.873   1.935  25.376  0.00  0.00    -0.451 OA
ATOM     25  C   UNL     1       2.855   0.502  28.100  0.00  0.00    +0.135 A 
ATOM     26  C   UNL     1       6.066   1.240  25.501  0.00  0.00    +0.181 A 
BRANCH  26  27
ATOM     27  C   UNL     1       7.155   1.975  24.818  0.00  0.00    +0.025 A 
ATOM     28  C   UNL     1       7.759   2.972  25.595  0.00  0.00    +0.015 A 
ATOM     29  C   UNL     1       8.511   3.984  25.006  0.00  0.00    +0.050 A 
ATOM     30  C   UNL     1       8.819   3.897  23.657  0.00  0.00    +0.158 A 
ATOM     31  C   UNL     1       8.334   2.840  22.885  0.00  0.00    +0.159 A 
ATOM     32  C   UNL     1       7.440   1.909  23.441  0.00  0.00    +0.060 A 
BRANCH  30  33
ATOM     33  O   UNL     1       9.622   4.848  23.092  0.00  0.00    -0.503 OA
ATOM     34  H   UNL     1      10.215   4.396  22.473  0.00  0.00    +0.292 HD
ENDBRANCH  30  33
BRANCH  31  35
ATOM     35  O   UNL     1       8.771   2.736  21.592  0.00  0.00    -0.503 OA
ATOM     36  H   UNL     1       9.732   2.836  21.556  0.00  0.00    +0.292 HD
ENDBRANCH  31  35
ENDBRANCH  26  27
BRANCH  25  37
ATOM     37  O   UNL     1       2.883  -0.456  29.078  0.00  0.00    -0.506 OA
ATOM     38  H   UNL     1       2.415  -0.162  29.878  0.00  0.00    +0.292 HD
ENDBRANCH  25  37
BRANCH  22  39
ATOM     39  O   UNL     1       0.554   3.094  27.027  0.00  0.00    -0.507 OA
ATOM     40  H   UNL     1      -0.225   2.534  27.179  0.00  0.00    +0.292 HD
ENDBRANCH  22  39
ENDBRANCH  15  16
ENDBRANCH   3  15
BRANCH   1  41
ATOM     41  C   UNL     1       7.759  -5.226  26.845  0.00  0.00    +0.197 C 
BRANCH  41  42
ATOM     42  O   UNL     1       7.216  -5.896  25.697  0.00  0.00    -0.346 OA
BRANCH  42  46
ATOM     43  C   UNL     1       3.156  -4.118  25.591  0.00  0.00    +0.041 C 
ATOM     44  C   UNL     1       3.633  -5.299  24.739  0.00  0.00    +0.149 C 
ATOM     45  O   UNL     1       4.829  -5.929  25.252  0.00  0.00    -0.343 OA
ATOM     46  C   UNL     1       6.070  -5.232  25.054  0.00  0.00    +0.282 C 
ATOM     47  C   UNL     1       6.281  -4.848  23.553  0.00  0.00    +0.201 C 
ATOM     48  C   UNL     1       5.038  -4.100  23.013  0.00  0.00    +0.179 C 
ATOM     49  C   UNL     1       3.756  -4.903  23.259  0.00  0.00    +0.174 C 
BRANCH  49  50
ATOM     50  O   UNL     1       3.785  -6.071  22.420  0.00  0.00    -0.387 OA
ATOM     51  H   UNL     1       2.933  -6.537  22.559  0.00  0.00    +0.210 HD
ENDBRANCH  49  50
BRANCH  48  52
ATOM     52  O   UNL     1       5.187  -3.872  21.600  0.00  0.00    -0.386 OA
ATOM     53  H   UNL     1       5.287  -4.762  21.198  0.00  0.00    +0.210 HD
ENDBRANCH  48  52
BRANCH  47  54
ATOM     54  O   UNL     1       6.490  -6.006  22.717  0.00  0.00    -0.384 OA
ATOM     55  H   UNL     1       5.628  -6.468  22.709  0.00  0.00    +0.210 HD
ENDBRANCH  47  54
ENDBRANCH  42  46
ENDBRANCH  41  42
ENDBRANCH   1  41
TORSDOF 17
ENDMDL
MODEL 5
REMARK VINA RESULT:      -7.2      1.693      2.253
REMARK  Name = 
REMARK  19 active torsions:
REMARK  status: ('A' for Active; 'I' for Inactive)
REMARK    1  A    between atoms: C_1  and  C_2
REMARK    2  A    between atoms: C_3  and  O_52
REMARK    3  A    between atoms: C_5  and  O_51
REMARK    4  A    between atoms: C_6  and  O_50
REMARK    5  A    between atoms: C_8  and  O_11
REMARK    6  A    between atoms: O_11  and  C_12
REMARK    7  A    between atoms: C_12  and  C_13
REMARK    8  A    between atoms: C_14  and  O_49
REMARK    9  A    between atoms: C_16  and  O_48
REMARK   10  A    between atoms: C_18  and  O_44
REMARK   11  A    between atoms: C_19  and  O_22
REMARK   12  A    between atoms: O_22  and  C_23
REMARK   13  A    between atoms: C_24  and  C_36
REMARK   14  A    between atoms: C_28  and  O_35
REMARK   15  A    between atoms: C_30  and  O_34
REMARK   16  A    between atoms: C_38  and  O_43
REMARK   17  A    between atoms: C_39  and  O_42
REMARK   18  A    between atoms: O_44  and  C_45
REMARK   19  A    between atoms: C_45  and  C_47
REMARK                            x       y       z     vdW  Elec       q    Type
REMARK                         _______ _______ _______ _____ _____    ______ ____
ROOT
ATOM      1  C   UNL     1       5.348  -1.335  25.693  0.00  0.00    +0.179 C 
ATOM      2  O   UNL     1       6.035  -0.504  24.732  0.00  0.00    -0.330 OA
ATOM      3  C   UNL     1       6.355   0.854  25.087  0.00  0.00    +0.352 C 
ATOM      4  C   UNL     1       5.216   1.635  25.811  0.00  0.00    +0.275 C 
ATOM      5  C   UNL     1       4.700   0.757  26.961  0.00  0.00    +0.192 C 
ATOM      6  C   UNL     1       4.224  -0.593  26.432  0.00  0.00    +0.178 C 
ENDROOT
BRANCH   6   7
ATOM      7  O   UNL     1       3.646  -1.354  27.499  0.00  0.00    -0.386 OA
ATOM      8  H   UNL     1       3.133  -0.733  28.047  0.00  0.00    +0.210 HD
ENDBRANCH   6   7
BRANCH   5   9
ATOM      9  O   UNL     1       3.615   1.387  27.656  0.00  0.00    -0.385 OA
ATOM     10  H   UNL     1       3.814   1.255  28.605  0.00  0.00    +0.210 HD
ENDBRANCH   5   9
BRANCH   4  11
ATOM     11  O   UNL     1       4.121   2.007  24.918  0.00  0.00    -0.452 OA
BRANCH  11  12
ATOM     12  C   UNL     1       3.797   3.334  24.895  0.00  0.00    +0.304 C 
ATOM     13  C   UNL     1       3.734   3.900  23.506  0.00  0.00    +0.136 C 
ATOM     14  O   UNL     1       3.602   4.044  25.889  0.00  0.00    -0.251 OA
ENDBRANCH  11  12
ENDBRANCH   4  11
BRANCH   3  15
ATOM     15  O   UNL     1       6.717   1.595  23.894  0.00  0.00    -0.452 OA
BRANCH  15  16
ATOM     16  C   UNL     1       7.936   2.249  23.726  0.00  0.00    +0.214 A 
ATOM     17  C   UNL     1       8.132   3.717  23.979  0.00  0.00    +0.238 A 
ATOM     18  O   UNL     1       7.198   4.456  24.260  0.00  0.00    -0.283 OA
ATOM     19  C   UNL     1       9.508   4.265  23.889  0.00  0.00    +0.109 A 
ATOM     20  C   UNL     1      10.514   3.428  23.422  0.00  0.00    +0.147 A 
ATOM     21  C   UNL     1      11.831   3.893  23.290  0.00  0.00    +0.092 A 
ATOM     22  C   UNL     1      12.129   5.206  23.626  0.00  0.00    +0.124 A 
ATOM     23  C   UNL     1      11.141   6.056  24.100  0.00  0.00    +0.091 A 
ATOM     24  O   UNL     1      10.286   2.122  23.080  0.00  0.00    -0.451 OA
ATOM     25  C   UNL     1       9.835   5.585  24.243  0.00  0.00    +0.135 A 
ATOM     26  C   UNL     1       9.038   1.568  23.327  0.00  0.00    +0.181 A 
BRANCH  26  27
ATOM     27  C   UNL     1       9.139   0.091  23.367  0.00  0.00    +0.025 A 
ATOM     28  C   UNL     1       8.730  -0.551  22.191  0.00  0.00    +0.015 A 
ATOM     29  C   UNL     1       8.403  -1.904  22.188  0.00  0.00    +0.050 A 
ATOM     30  C   UNL     1       8.665  -2.663  23.318  0.00  0.00    +0.158 A 
ATOM     31  C   UNL     1       9.194  -2.068  24.465  0.00  0.00    +0.159 A 
ATOM     32  C   UNL     1       9.370  -0.676  24.524  0.00  0.00    +0.060 A 
BRANCH  30  33
ATOM     33  O   UNL     1       8.418  -4.006  23.292  0.00  0.00    -0.503 OA
ATOM     34  H   UNL     1       7.595  -4.140  22.797  0.00  0.00    +0.292 HD
ENDBRANCH  30  33
BRANCH  31  35
ATOM     35  O   UNL     1       9.549  -2.885  25.505  0.00  0.00    -0.503 OA
ATOM     36  H   UNL     1       9.997  -3.674  25.171  0.00  0.00    +0.292 HD
ENDBRANCH  31  35
ENDBRANCH  26  27
BRANCH  25  37
ATOM     37  O   UNL     1       8.895   6.444  24.745  0.00  0.00    -0.506 OA
ATOM     38  H   UNL     1       8.978   6.540  25.709  0.00  0.00    +0.292 HD
ENDBRANCH  25  37
BRANCH  22  39
ATOM     39  O   UNL     1      13.387   5.716  23.511  0.00  0.00    -0.507 OA
ATOM     40  H   UNL     1      13.446   6.244  22.697  0.00  0.00    +0.292 HD
ENDBRANCH  22  39
ENDBRANCH  15  16
ENDBRANCH   3  15
BRANCH   1  41
ATOM     41  C   UNL     1       6.218  -2.401  26.488  0.00  0.00    +0.197 C 
BRANCH  41  42
ATOM     42  O   UNL     1       6.517  -3.661  25.869  0.00  0.00    -0.346 OA
BRANCH  42  46
ATOM     43  C   UNL     1       3.484  -6.629  27.154  0.00  0.00    +0.041 C 
ATOM     44  C   UNL     1       4.522  -6.840  26.047  0.00  0.00    +0.149 C 
ATOM     45  O   UNL     1       5.625  -5.907  26.111  0.00  0.00    -0.343 OA
ATOM     46  C   UNL     1       5.369  -4.562  25.673  0.00  0.00    +0.282 C 
ATOM     47  C   UNL     1       4.740  -4.534  24.242  0.00  0.00    +0.201 C 
ATOM     48  C   UNL     1       3.508  -5.468  24.181  0.00  0.00    +0.179 C 
ATOM     49  C   UNL     1       3.856  -6.881  24.662  0.00  0.00    +0.174 C 
BRANCH  49  50
ATOM     50  O   UNL     1       4.732  -7.485  23.694  0.00  0.00    -0.387 OA
ATOM     51  H   UNL     1       4.857  -8.418  23.974  0.00  0.00    +0.210 HD
ENDBRANCH  49  50
BRANCH  48  52
ATOM     52  O   UNL     1       3.019  -5.538  22.830  0.00  0.00    -0.386 OA
ATOM     53  H   UNL     1       2.051  -5.685  22.907  0.00  0.00    +0.210 HD
ENDBRANCH  48  52
BRANCH  47  54
ATOM     54  O   UNL     1       5.669  -4.973  23.227  0.00  0.00    -0.384 OA
ATOM     55  H   UNL     1       6.224  -5.645  23.670  0.00  0.00    +0.210 HD
ENDBRANCH  47  54
ENDBRANCH  42  46
ENDBRANCH  41  42
ENDBRANCH   1  41
TORSDOF 17
ENDMDL
MODEL 6
REMARK VINA RESULT:      -7.1      1.789      2.485
REMARK  Name = 
REMARK  19 active torsions:
REMARK  status: ('A' for Active; 'I' for Inactive)
REMARK    1  A    between atoms: C_1  and  C_2
REMARK    2  A    between atoms: C_3  and  O_52
REMARK    3  A    between atoms: C_5  and  O_51
REMARK    4  A    between atoms: C_6  and  O_50
REMARK    5  A    between atoms: C_8  and  O_11
REMARK    6  A    between atoms: O_11  and  C_12
REMARK    7  A    between atoms: C_12  and  C_13
REMARK    8  A    between atoms: C_14  and  O_49
REMARK    9  A    between atoms: C_16  and  O_48
REMARK   10  A    between atoms: C_18  and  O_44
REMARK   11  A    between atoms: C_19  and  O_22
REMARK   12  A    between atoms: O_22  and  C_23
REMARK   13  A    between atoms: C_24  and  C_36
REMARK   14  A    between atoms: C_28  and  O_35
REMARK   15  A    between atoms: C_30  and  O_34
REMARK   16  A    between atoms: C_38  and  O_43
REMARK   17  A    between atoms: C_39  and  O_42
REMARK   18  A    between atoms: O_44  and  C_45
REMARK   19  A    between atoms: C_45  and  C_47
REMARK                            x       y       z     vdW  Elec       q    Type
REMARK                         _______ _______ _______ _____ _____    ______ ____
ROOT
ATOM      1  C   UNL     1       4.903   0.080  26.339  0.00  0.00    +0.179 C 
ATOM      2  O   UNL     1       5.727   0.599  25.273  0.00  0.00    -0.330 OA
ATOM      3  C   UNL     1       6.122   1.984  25.308  0.00  0.00    +0.352 C 
ATOM      4  C   UNL     1       4.992   2.984  25.699  0.00  0.00    +0.275 C 
ATOM      5  C   UNL     1       4.319   2.458  26.976  0.00  0.00    +0.192 C 
ATOM      6  C   UNL     1       3.784   1.046  26.757  0.00  0.00    +0.178 C 
ENDROOT
BRANCH   6   7
ATOM      7  O   UNL     1       3.064   0.615  27.918  0.00  0.00    -0.386 OA
ATOM      8  H   UNL     1       2.798   1.417  28.402  0.00  0.00    +0.210 HD
ENDBRANCH   6   7
BRANCH   5   9
ATOM      9  O   UNL     1       3.232   3.303  27.382  0.00  0.00    -0.385 OA
ATOM     10  H   UNL     1       3.080   3.080  28.323  0.00  0.00    +0.210 HD
ENDBRANCH   5   9
BRANCH   4  11
ATOM     11  O   UNL     1       4.004   3.174  24.639  0.00  0.00    -0.452 OA
BRANCH  11  12
ATOM     12  C   UNL     1       3.729   4.471  24.309  0.00  0.00    +0.304 C 
ATOM     13  C   UNL     1       4.310   4.877  22.986  0.00  0.00    +0.136 C 
ATOM     14  O   UNL     1       3.101   5.274  25.010  0.00  0.00    -0.251 OA
ENDBRANCH  11  12
ENDBRANCH   4  11
BRANCH   3  15
ATOM     15  O   UNL     1       6.635   2.375  24.009  0.00  0.00    -0.452 OA
BRANCH  15  16
ATOM     16  C   UNL     1       7.945   2.796  23.786  0.00  0.00    +0.214 A 
ATOM     17  C   UNL     1       8.394   4.223  23.933  0.00  0.00    +0.238 A 
ATOM     18  O   UNL     1       7.605   5.128  24.166  0.00  0.00    -0.283 OA
ATOM     19  C   UNL     1       9.842   4.517  23.794  0.00  0.00    +0.109 A 
ATOM     20  C   UNL     1      10.681   3.489  23.381  0.00  0.00    +0.147 A 
ATOM     21  C   UNL     1      12.054   3.711  23.207  0.00  0.00    +0.092 A 
ATOM     22  C   UNL     1      12.579   4.973  23.446  0.00  0.00    +0.124 A 
ATOM     23  C   UNL     1      11.761   6.011  23.865  0.00  0.00    +0.091 A 
ATOM     24  O   UNL     1      10.225   2.222  23.135  0.00  0.00    -0.451 OA
ATOM     25  C   UNL     1      10.397   5.782  24.050  0.00  0.00    +0.135 A 
ATOM     26  C   UNL     1       8.906   1.909  23.429  0.00  0.00    +0.181 A 
BRANCH  26  27
ATOM     27  C   UNL     1       8.753   0.444  23.574  0.00  0.00    +0.025 A 
ATOM     28  C   UNL     1       9.432  -0.105  24.670  0.00  0.00    +0.015 A 
ATOM     29  C   UNL     1       9.705  -1.468  24.736  0.00  0.00    +0.050 A 
ATOM     30  C   UNL     1       9.136  -2.316  23.798  0.00  0.00    +0.158 A 
ATOM     31  C   UNL     1       8.347  -1.804  22.766  0.00  0.00    +0.159 A 
ATOM     32  C   UNL     1       8.206  -0.416  22.603  0.00  0.00    +0.060 A 
BRANCH  30  33
ATOM     33  O   UNL     1       9.340  -3.662  23.905  0.00  0.00    -0.503 OA
ATOM     34  H   UNL     1       8.636  -4.018  24.470  0.00  0.00    +0.292 HD
ENDBRANCH  30  33
BRANCH  31  35
ATOM     35  O   UNL     1       7.711  -2.695  21.944  0.00  0.00    -0.503 OA
ATOM     36  H   UNL     1       6.771  -2.744  22.169  0.00  0.00    +0.292 HD
ENDBRANCH  31  35
ENDBRANCH  26  27
BRANCH  25  37
ATOM     37  O   UNL     1       9.627   6.823  24.497  0.00  0.00    -0.506 OA
ATOM     38  H   UNL     1       9.157   6.594  25.316  0.00  0.00    +0.292 HD
ENDBRANCH  25  37
BRANCH  22  39
ATOM     39  O   UNL     1      13.904   5.249  23.287  0.00  0.00    -0.507 OA
ATOM     40  H   UNL     1      14.027   6.212  23.238  0.00  0.00    +0.292 HD
ENDBRANCH  22  39
ENDBRANCH  15  16
ENDBRANCH   3  15
BRANCH   1  41
ATOM     41  C   UNL     1       5.622  -0.793  27.456  0.00  0.00    +0.197 C 
BRANCH  41  42
ATOM     42  O   UNL     1       5.151  -2.124  27.713  0.00  0.00    -0.346 OA
BRANCH  42  46
ATOM     43  C   UNL     1       5.070  -4.226  23.811  0.00  0.00    +0.041 C 
ATOM     44  C   UNL     1       4.786  -4.867  25.173  0.00  0.00    +0.149 C 
ATOM     45  O   UNL     1       4.476  -3.905  26.206  0.00  0.00    -0.343 OA
ATOM     46  C   UNL     1       5.574  -3.149  26.744  0.00  0.00    +0.282 C 
ATOM     47  C   UNL     1       6.732  -4.081  27.226  0.00  0.00    +0.201 C 
ATOM     48  C   UNL     1       7.129  -5.066  26.100  0.00  0.00    +0.179 C 
ATOM     49  C   UNL     1       5.911  -5.834  25.577  0.00  0.00    +0.174 C 
BRANCH  49  50
ATOM     50  O   UNL     1       5.465  -6.731  26.609  0.00  0.00    -0.387 OA
ATOM     51  H   UNL     1       4.720  -6.284  27.065  0.00  0.00    +0.210 HD
ENDBRANCH  49  50
BRANCH  48  52
ATOM     52  O   UNL     1       8.100  -6.004  26.597  0.00  0.00    -0.386 OA
ATOM     53  H   UNL     1       8.833  -5.459  26.958  0.00  0.00    +0.210 HD
ENDBRANCH  48  52
BRANCH  47  54
ATOM     54  O   UNL     1       6.359  -4.866  28.379  0.00  0.00    -0.384 OA
ATOM     55  H   UNL     1       5.457  -5.189  28.180  0.00  0.00    +0.210 HD
ENDBRANCH  47  54
ENDBRANCH  42  46
ENDBRANCH  41  42
ENDBRANCH   1  41
TORSDOF 17
ENDMDL
MODEL 7
REMARK VINA RESULT:      -7.1      2.389      6.669
REMARK  Name = 
REMARK  19 active torsions:
REMARK  status: ('A' for Active; 'I' for Inactive)
REMARK    1  A    between atoms: C_1  and  C_2
REMARK    2  A    between atoms: C_3  and  O_52
REMARK    3  A    between atoms: C_5  and  O_51
REMARK    4  A    between atoms: C_6  and  O_50
REMARK    5  A    between atoms: C_8  and  O_11
REMARK    6  A    between atoms: O_11  and  C_12
REMARK    7  A    between atoms: C_12  and  C_13
REMARK    8  A    between atoms: C_14  and  O_49
REMARK    9  A    between atoms: C_16  and  O_48
REMARK   10  A    between atoms: C_18  and  O_44
REMARK   11  A    between atoms: C_19  and  O_22
REMARK   12  A    between atoms: O_22  and  C_23
REMARK   13  A    between atoms: C_24  and  C_36
REMARK   14  A    between atoms: C_28  and  O_35
REMARK   15  A    between atoms: C_30  and  O_34
REMARK   16  A    between atoms: C_38  and  O_43
REMARK   17  A    between atoms: C_39  and  O_42
REMARK   18  A    between atoms: O_44  and  C_45
REMARK   19  A    between atoms: C_45  and  C_47
REMARK                            x       y       z     vdW  Elec       q    Type
REMARK                         _______ _______ _______ _____ _____    ______ ____
ROOT
ATOM      1  C   UNL     1       8.442  -4.019  26.466  0.00  0.00    +0.179 C 
ATOM      2  O   UNL     1       7.931  -2.714  26.814  0.00  0.00    -0.330 OA
ATOM      3  C   UNL     1       7.569  -1.802  25.760  0.00  0.00    +0.352 C 
ATOM      4  C   UNL     1       8.579  -1.726  24.575  0.00  0.00    +0.275 C 
ATOM      5  C   UNL     1       8.889  -3.162  24.128  0.00  0.00    +0.192 C 
ATOM      6  C   UNL     1       9.435  -3.981  25.294  0.00  0.00    +0.178 C 
ENDROOT
BRANCH   6   7
ATOM      7  O   UNL     1       9.821  -5.281  24.833  0.00  0.00    -0.386 OA
ATOM      8  H   UNL     1       9.375  -5.425  23.979  0.00  0.00    +0.210 HD
ENDBRANCH   6   7
BRANCH   5   9
ATOM      9  O   UNL     1       9.851  -3.183  23.062  0.00  0.00    -0.385 OA
ATOM     10  H   UNL     1       9.444  -3.741  22.369  0.00  0.00    +0.210 HD
ENDBRANCH   5   9
BRANCH   4  11
ATOM     11  O   UNL     1       9.811  -1.018  24.919  0.00  0.00    -0.452 OA
BRANCH  11  12
ATOM     12  C   UNL     1      10.302  -0.179  23.959  0.00  0.00    +0.304 C 
ATOM     13  C   UNL     1      11.090   0.966  24.525  0.00  0.00    +0.136 C 
ATOM     14  O   UNL     1      10.113  -0.291  22.742  0.00  0.00    -0.251 OA
ENDBRANCH  11  12
ENDBRANCH   4  11
BRANCH   3  15
ATOM     15  O   UNL     1       7.416  -0.467  26.305  0.00  0.00    -0.452 OA
BRANCH  15  16
ATOM     16  C   UNL     1       6.215   0.241  26.301  0.00  0.00    +0.214 A 
ATOM     17  C   UNL     1       5.054  -0.092  27.195  0.00  0.00    +0.238 A 
ATOM     18  O   UNL     1       5.058  -1.077  27.921  0.00  0.00    -0.283 OA
ATOM     19  C   UNL     1       3.882   0.819  27.187  0.00  0.00    +0.109 A 
ATOM     20  C   UNL     1       3.854   1.837  26.241  0.00  0.00    +0.147 A 
ATOM     21  C   UNL     1       2.763   2.715  26.166  0.00  0.00    +0.092 A 
ATOM     22  C   UNL     1       1.699   2.560  27.042  0.00  0.00    +0.124 A 
ATOM     23  C   UNL     1       1.710   1.555  27.997  0.00  0.00    +0.091 A 
ATOM     24  O   UNL     1       4.874   2.045  25.353  0.00  0.00    -0.451 OA
ATOM     25  C   UNL     1       2.804   0.692  28.078  0.00  0.00    +0.135 A 
ATOM     26  C   UNL     1       6.039   1.301  25.476  0.00  0.00    +0.181 A 
BRANCH  26  27
ATOM     27  C   UNL     1       7.156   1.992  24.792  0.00  0.00    +0.025 A 
ATOM     28  C   UNL     1       7.794   2.970  25.565  0.00  0.00    +0.015 A 
ATOM     29  C   UNL     1       8.584   3.951  24.972  0.00  0.00    +0.050 A 
ATOM     30  C   UNL     1       8.893   3.845  23.625  0.00  0.00    +0.158 A 
ATOM     31  C   UNL     1       8.370   2.802  22.858  0.00  0.00    +0.159 A 
ATOM     32  C   UNL     1       7.442   1.907  23.416  0.00  0.00    +0.060 A 
BRANCH  30  33
ATOM     33  O   UNL     1       9.731   4.762  23.058  0.00  0.00    -0.503 OA
ATOM     34  H   UNL     1       9.788   5.517  23.665  0.00  0.00    +0.292 HD
ENDBRANCH  30  33
BRANCH  31  35
ATOM     35  O   UNL     1       8.807   2.675  21.567  0.00  0.00    -0.503 OA
ATOM     36  H   UNL     1       8.890   3.547  21.155  0.00  0.00    +0.292 HD
ENDBRANCH  31  35
ENDBRANCH  26  27
BRANCH  25  37
ATOM     37  O   UNL     1       2.793  -0.267  29.055  0.00  0.00    -0.506 OA
ATOM     38  H   UNL     1       3.166  -1.106  28.737  0.00  0.00    +0.292 HD
ENDBRANCH  25  37
BRANCH  22  39
ATOM     39  O   UNL     1       0.609   3.377  27.011  0.00  0.00    -0.507 OA
ATOM     40  H   UNL     1       0.900   4.302  27.077  0.00  0.00    +0.292 HD
ENDBRANCH  22  39
ENDBRANCH  15  16
ENDBRANCH   3  15
BRANCH   1  41
ATOM     41  C   UNL     1       7.442  -5.249  26.587  0.00  0.00    +0.197 C 
BRANCH  41  42
ATOM     42  O   UNL     1       6.874  -5.808  25.395  0.00  0.00    -0.346 OA
BRANCH  42  46
ATOM     43  C   UNL     1       2.829  -6.181  27.171  0.00  0.00    +0.041 C 
ATOM     44  C   UNL     1       3.425  -7.115  26.114  0.00  0.00    +0.149 C 
ATOM     45  O   UNL     1       4.865  -7.024  26.016  0.00  0.00    -0.343 OA
ATOM     46  C   UNL     1       5.403  -5.866  25.356  0.00  0.00    +0.282 C 
ATOM     47  C   UNL     1       4.766  -5.662  23.943  0.00  0.00    +0.201 C 
ATOM     48  C   UNL     1       3.222  -5.677  24.044  0.00  0.00    +0.179 C 
ATOM     49  C   UNL     1       2.724  -6.939  24.757  0.00  0.00    +0.174 C 
BRANCH  49  50
ATOM     50  O   UNL     1       2.974  -8.070  23.904  0.00  0.00    -0.387 OA
ATOM     51  H   UNL     1       2.106  -8.338  23.533  0.00  0.00    +0.210 HD
ENDBRANCH  49  50
BRANCH  48  52
ATOM     52  O   UNL     1       2.650  -5.625  22.725  0.00  0.00    -0.386 OA
ATOM     53  H   UNL     1       1.765  -6.043  22.805  0.00  0.00    +0.210 HD
ENDBRANCH  48  52
BRANCH  47  54
ATOM     54  O   UNL     1       5.152  -6.700  23.016  0.00  0.00    -0.384 OA
ATOM     55  H   UNL     1       4.393  -7.317  23.000  0.00  0.00    +0.210 HD
ENDBRANCH  47  54
ENDBRANCH  42  46
ENDBRANCH  41  42
ENDBRANCH   1  41
TORSDOF 17
ENDMDL
MODEL 8
REMARK VINA RESULT:      -7.1      2.376      6.512
REMARK  Name = 
REMARK  19 active torsions:
REMARK  status: ('A' for Active; 'I' for Inactive)
REMARK    1  A    between atoms: C_1  and  C_2
REMARK    2  A    between atoms: C_3  and  O_52
REMARK    3  A    between atoms: C_5  and  O_51
REMARK    4  A    between atoms: C_6  and  O_50
REMARK    5  A    between atoms: C_8  and  O_11
REMARK    6  A    between atoms: O_11  and  C_12
REMARK    7  A    between atoms: C_12  and  C_13
REMARK    8  A    between atoms: C_14  and  O_49
REMARK    9  A    between atoms: C_16  and  O_48
REMARK   10  A    between atoms: C_18  and  O_44
REMARK   11  A    between atoms: C_19  and  O_22
REMARK   12  A    between atoms: O_22  and  C_23
REMARK   13  A    between atoms: C_24  and  C_36
REMARK   14  A    between atoms: C_28  and  O_35
REMARK   15  A    between atoms: C_30  and  O_34
REMARK   16  A    between atoms: C_38  and  O_43
REMARK   17  A    between atoms: C_39  and  O_42
REMARK   18  A    between atoms: O_44  and  C_45
REMARK   19  A    between atoms: C_45  and  C_47
REMARK                            x       y       z     vdW  Elec       q    Type
REMARK                         _______ _______ _______ _____ _____    ______ ____
ROOT
ATOM      1  C   UNL     1       6.054  -4.833  25.395  0.00  0.00    +0.179 C 
ATOM      2  O   UNL     1       6.390  -3.533  25.927  0.00  0.00    -0.330 OA
ATOM      3  C   UNL     1       6.377  -2.394  25.045  0.00  0.00    +0.352 C 
ATOM      4  C   UNL     1       7.031  -2.630  23.650  0.00  0.00    +0.275 C 
ATOM      5  C   UNL     1       6.441  -3.923  23.066  0.00  0.00    +0.192 C 
ATOM      6  C   UNL     1       6.676  -5.095  24.015  0.00  0.00    +0.178 C 
ENDROOT
BRANCH   6   7
ATOM      7  O   UNL     1       6.219  -6.308  23.407  0.00  0.00    -0.386 OA
ATOM      8  H   UNL     1       5.607  -6.057  22.693  0.00  0.00    +0.210 HD
ENDBRANCH   6   7
BRANCH   5   9
ATOM      9  O   UNL     1       7.026  -4.238  21.794  0.00  0.00    -0.385 OA
ATOM     10  H   UNL     1       7.627  -4.990  21.974  0.00  0.00    +0.210 HD
ENDBRANCH   5   9
BRANCH   4  11
ATOM     11  O   UNL     1       8.489  -2.711  23.708  0.00  0.00    -0.452 OA
BRANCH  11  12
ATOM     12  C   UNL     1       9.162  -1.989  22.764  0.00  0.00    +0.304 C 
ATOM     13  C   UNL     1      10.429  -1.376  23.287  0.00  0.00    +0.136 C 
ATOM     14  O   UNL     1       8.790  -1.802  21.600  0.00  0.00    -0.251 OA
ENDBRANCH  11  12
ENDBRANCH   4  11
BRANCH   3  15
ATOM     15  O   UNL     1       7.061  -1.283  25.677  0.00  0.00    -0.452 OA
BRANCH  15  16
ATOM     16  C   UNL     1       6.435  -0.093  26.045  0.00  0.00    +0.214 A 
ATOM     17  C   UNL     1       5.561   0.045  27.260  0.00  0.00    +0.238 A 
ATOM     18  O   UNL     1       5.266  -0.917  27.956  0.00  0.00    -0.283 OA
ATOM     19  C   UNL     1       5.061   1.397  27.611  0.00  0.00    +0.109 A 
ATOM     20  C   UNL     1       5.292   2.433  26.714  0.00  0.00    +0.147 A 
ATOM     21  C   UNL     1       4.823   3.727  26.977  0.00  0.00    +0.092 A 
ATOM     22  C   UNL     1       4.114   3.974  28.144  0.00  0.00    +0.124 A 
ATOM     23  C   UNL     1       3.877   2.957  29.055  0.00  0.00    +0.091 A 
ATOM     24  O   UNL     1       5.989   2.255  25.550  0.00  0.00    -0.451 OA
ATOM     25  C   UNL     1       4.358   1.672  28.797  0.00  0.00    +0.135 A 
ATOM     26  C   UNL     1       6.600   1.033  25.307  0.00  0.00    +0.181 A 
BRANCH  26  27
ATOM     27  C   UNL     1       7.676   1.194  24.302  0.00  0.00    +0.025 A 
ATOM     28  C   UNL     1       8.879   1.694  24.816  0.00  0.00    +0.015 A 
ATOM     29  C   UNL     1       9.840   2.253  23.977  0.00  0.00    +0.050 A 
ATOM     30  C   UNL     1       9.683   2.143  22.604  0.00  0.00    +0.158 A 
ATOM     31  C   UNL     1       8.548   1.532  22.067  0.00  0.00    +0.159 A 
ATOM     32  C   UNL     1       7.502   1.115  22.908  0.00  0.00    +0.060 A 
BRANCH  30  33
ATOM     33  O   UNL     1      10.661   2.621  21.780  0.00  0.00    -0.503 OA
ATOM     34  H   UNL     1      10.995   3.443  22.173  0.00  0.00    +0.292 HD
ENDBRANCH  30  33
BRANCH  31  35
ATOM     35  O   UNL     1       8.505   1.339  20.713  0.00  0.00    -0.503 OA
ATOM     36  H   UNL     1       9.391   1.428  20.334  0.00  0.00    +0.292 HD
ENDBRANCH  31  35
ENDBRANCH  26  27
BRANCH  25  37
ATOM     37  O   UNL     1       4.133   0.702  29.736  0.00  0.00    -0.506 OA
ATOM     38  H   UNL     1       4.665  -0.093  29.563  0.00  0.00    +0.292 HD
ENDBRANCH  25  37
BRANCH  22  39
ATOM     39  O   UNL     1       3.627   5.209  28.449  0.00  0.00    -0.507 OA
ATOM     40  H   UNL     1       4.217   5.637  29.092  0.00  0.00    +0.292 HD
ENDBRANCH  22  39
ENDBRANCH  15  16
ENDBRANCH   3  15
BRANCH   1  41
ATOM     41  C   UNL     1       4.598  -5.391  25.702  0.00  0.00    +0.197 C 
BRANCH  41  42
ATOM     42  O   UNL     1       4.312  -6.774  25.450  0.00  0.00    -0.346 OA
BRANCH  42  46
ATOM     43  C   UNL     1       0.443  -8.918  25.149  0.00  0.00    +0.041 C 
ATOM     44  C   UNL     1       1.499  -8.829  24.043  0.00  0.00    +0.149 C 
ATOM     45  O   UNL     1       2.804  -8.440  24.527  0.00  0.00    -0.343 OA
ATOM     46  C   UNL     1       2.988  -7.056  24.871  0.00  0.00    +0.282 C 
ATOM     47  C   UNL     1       2.559  -6.112  23.701  0.00  0.00    +0.201 C 
ATOM     48  C   UNL     1       1.129  -6.465  23.226  0.00  0.00    +0.179 C 
ATOM     49  C   UNL     1       1.011  -7.953  22.877  0.00  0.00    +0.174 C 
BRANCH  49  50
ATOM     50  O   UNL     1       1.786  -8.203  21.692  0.00  0.00    -0.387 OA
ATOM     51  H   UNL     1       1.254  -7.876  20.936  0.00  0.00    +0.210 HD
ENDBRANCH  49  50
BRANCH  48  52
ATOM     52  O   UNL     1       0.798  -5.682  22.065  0.00  0.00    -0.386 OA
ATOM     53  H   UNL     1      -0.027  -5.202  22.298  0.00  0.00    +0.210 HD
ENDBRANCH  48  52
BRANCH  47  54
ATOM     54  O   UNL     1       3.437  -6.221  22.561  0.00  0.00    -0.384 OA
ATOM     55  H   UNL     1       4.223  -6.699  22.894  0.00  0.00    +0.210 HD
ENDBRANCH  47  54
ENDBRANCH  42  46
ENDBRANCH  41  42
ENDBRANCH   1  41
TORSDOF 17
ENDMDL
MODEL 9
REMARK VINA RESULT:      -7.1      2.501      5.481
REMARK  Name = 
REMARK  19 active torsions:
REMARK  status: ('A' for Active; 'I' for Inactive)
REMARK    1  A    between atoms: C_1  and  C_2
REMARK    2  A    between atoms: C_3  and  O_52
REMARK    3  A    between atoms: C_5  and  O_51
REMARK    4  A    between atoms: C_6  and  O_50
REMARK    5  A    between atoms: C_8  and  O_11
REMARK    6  A    between atoms: O_11  and  C_12
REMARK    7  A    between atoms: C_12  and  C_13
REMARK    8  A    between atoms: C_14  and  O_49
REMARK    9  A    between atoms: C_16  and  O_48
REMARK   10  A    between atoms: C_18  and  O_44
REMARK   11  A    between atoms: C_19  and  O_22
REMARK   12  A    between atoms: O_22  and  C_23
REMARK   13  A    between atoms: C_24  and  C_36
REMARK   14  A    between atoms: C_28  and  O_35
REMARK   15  A    between atoms: C_30  and  O_34
REMARK   16  A    between atoms: C_38  and  O_43
REMARK   17  A    between atoms: C_39  and  O_42
REMARK   18  A    between atoms: O_44  and  C_45
REMARK   19  A    between atoms: C_45  and  C_47
REMARK                            x       y       z     vdW  Elec       q    Type
REMARK                         _______ _______ _______ _____ _____    ______ ____
ROOT
ATOM      1  C   UNL     1       8.802  -4.031  26.326  0.00  0.00    +0.179 C 
ATOM      2  O   UNL     1       8.658  -2.649  26.721  0.00  0.00    -0.330 OA
ATOM      3  C   UNL     1       7.998  -1.733  25.826  0.00  0.00    +0.352 C 
ATOM      4  C   UNL     1       8.407  -1.863  24.327  0.00  0.00    +0.275 C 
ATOM      5  C   UNL     1       8.313  -3.346  23.940  0.00  0.00    +0.192 C 
ATOM      6  C   UNL     1       9.195  -4.195  24.850  0.00  0.00    +0.178 C 
ENDROOT
BRANCH   6   7
ATOM      7  O   UNL     1       9.181  -5.556  24.405  0.00  0.00    -0.386 OA
ATOM      8  H   UNL     1       9.829  -5.626  23.682  0.00  0.00    +0.210 HD
ENDBRANCH   6   7
BRANCH   5   9
ATOM      9  O   UNL     1       8.716  -3.559  22.580  0.00  0.00    -0.385 OA
ATOM     10  H   UNL     1       9.627  -3.915  22.641  0.00  0.00    +0.210 HD
ENDBRANCH   5   9
BRANCH   4  11
ATOM     11  O   UNL     1       9.745  -1.345  24.053  0.00  0.00    -0.452 OA
BRANCH  11  12
ATOM     12  C   UNL     1      10.059  -1.177  22.734  0.00  0.00    +0.304 C 
ATOM     13  C   UNL     1       9.179  -0.177  22.042  0.00  0.00    +0.136 C 
ATOM     14  O   UNL     1      10.943  -1.788  22.122  0.00  0.00    -0.251 OA
ENDBRANCH  11  12
ENDBRANCH   4  11
BRANCH   3  15
ATOM     15  O   UNL     1       8.262  -0.371  26.246  0.00  0.00    -0.452 OA
BRANCH  15  16
ATOM     16  C   UNL     1       7.675   0.750  25.660  0.00  0.00    +0.214 A 
ATOM     17  C   UNL     1       8.439   1.757  24.848  0.00  0.00    +0.238 A 
ATOM     18  O   UNL     1       9.655   1.705  24.730  0.00  0.00    -0.283 OA
ATOM     19  C   UNL     1       7.674   2.833  24.171  0.00  0.00    +0.109 A 
ATOM     20  C   UNL     1       6.318   2.947  24.452  0.00  0.00    +0.147 A 
ATOM     21  C   UNL     1       5.545   3.958  23.863  0.00  0.00    +0.092 A 
ATOM     22  C   UNL     1       6.145   4.858  22.995  0.00  0.00    +0.124 A 
ATOM     23  C   UNL     1       7.495   4.760  22.696  0.00  0.00    +0.091 A 
ATOM     24  O   UNL     1       5.667   2.087  25.294  0.00  0.00    -0.451 OA
ATOM     25  C   UNL     1       8.258   3.743  23.273  0.00  0.00    +0.135 A 
ATOM     26  C   UNL     1       6.346   0.983  25.790  0.00  0.00    +0.181 A 
BRANCH  26  27
ATOM     27  C   UNL     1       5.381  -0.047  26.238  0.00  0.00    +0.025 A 
ATOM     28  C   UNL     1       5.237  -0.142  27.628  0.00  0.00    +0.015 A 
ATOM     29  C   UNL     1       4.684  -1.276  28.217  0.00  0.00    +0.050 A 
ATOM     30  C   UNL     1       4.099  -2.237  27.408  0.00  0.00    +0.158 A 
ATOM     31  C   UNL     1       4.116  -2.102  26.018  0.00  0.00    +0.159 A 
ATOM     32  C   UNL     1       4.818  -1.043  25.419  0.00  0.00    +0.060 A 
BRANCH  30  33
ATOM     33  O   UNL     1       3.486  -3.313  27.986  0.00  0.00    -0.503 OA
ATOM     34  H   UNL     1       2.773  -3.595  27.391  0.00  0.00    +0.292 HD
ENDBRANCH  30  33
BRANCH  31  35
ATOM     35  O   UNL     1       3.416  -3.015  25.277  0.00  0.00    -0.503 OA
ATOM     36  H   UNL     1       3.451  -3.885  25.699  0.00  0.00    +0.292 HD
ENDBRANCH  31  35
ENDBRANCH  26  27
BRANCH  25  37
ATOM     37  O   UNL     1       9.580   3.658  22.928  0.00  0.00    -0.506 OA
ATOM     38  H   UNL     1      10.127   3.373  23.678  0.00  0.00    +0.292 HD
ENDBRANCH  25  37
BRANCH  22  39
ATOM     39  O   UNL     1       5.448   5.866  22.399  0.00  0.00    -0.507 OA
ATOM     40  H   UNL     1       5.956   6.204  21.642  0.00  0.00    +0.292 HD
ENDBRANCH  22  39
ENDBRANCH  15  16
ENDBRANCH   3  15
BRANCH   1  41
ATOM     41  C   UNL     1       7.804  -5.082  26.978  0.00  0.00    +0.197 C 
BRANCH  41  42
ATOM     42  O   UNL     1       6.392  -4.922  26.779  0.00  0.00    -0.346 OA
BRANCH  42  46
ATOM     43  C   UNL     1       6.199  -6.092  22.506  0.00  0.00    +0.041 C 
ATOM     44  C   UNL     1       5.089  -5.376  23.284  0.00  0.00    +0.149 C 
ATOM     45  O   UNL     1       5.553  -4.757  24.505  0.00  0.00    -0.343 OA
ATOM     46  C   UNL     1       5.828  -5.627  25.615  0.00  0.00    +0.282 C 
ATOM     47  C   UNL     1       4.613  -6.560  25.929  0.00  0.00    +0.201 C 
ATOM     48  C   UNL     1       4.156  -7.292  24.644  0.00  0.00    +0.179 C 
ATOM     49  C   UNL     1       3.882  -6.302  23.507  0.00  0.00    +0.174 C 
BRANCH  49  50
ATOM     50  O   UNL     1       2.711  -5.539  23.844  0.00  0.00    -0.387 OA
ATOM     51  H   UNL     1       2.038  -6.182  24.156  0.00  0.00    +0.210 HD
ENDBRANCH  49  50
BRANCH  48  52
ATOM     52  O   UNL     1       2.958  -8.042  24.915  0.00  0.00    -0.386 OA
ATOM     53  H   UNL     1       3.209  -8.986  24.814  0.00  0.00    +0.210 HD
ENDBRANCH  48  52
BRANCH  47  54
ATOM     54  O   UNL     1       3.479  -5.827  26.440  0.00  0.00    -0.384 OA
ATOM     55  H   UNL     1       2.808  -6.511  26.639  0.00  0.00    +0.210 HD
ENDBRANCH  47  54
ENDBRANCH  42  46
ENDBRANCH  41  42
ENDBRANCH   1  41
TORSDOF 17
ENDMDL
