MODEL 1
REMARK VINA RESULT:      -7.1      0.000      0.000
REMARK  Name = 
REMARK  23 active torsions:
REMARK  status: ('A' for Active; 'I' for Inactive)
REMARK    1  A    between atoms: C_1  and  C_2
REMARK    2  A    between atoms: C_3  and  O_63
REMARK    3  A    between atoms: C_5  and  O_62
REMARK    4  A    between atoms: C_7  and  O_61
REMARK    5  A    between atoms: C_8  and  O_11
REMARK    6  A    between atoms: O_11  and  C_12
REMARK    7  A    between atoms: C_12  and  C_13
REMARK    8  A    between atoms: C_14  and  O_60
REMARK    9  A    between atoms: C_16  and  O_59
REMARK   10  A    between atoms: C_17  and  O_58
REMARK   11  A    between atoms: C_18  and  O_21
REMARK   12  A    between atoms: O_21  and  C_22
REMARK   13  A    between atoms: C_23  and  C_50
REMARK   14  A    between atoms: C_27  and  O_34
REMARK   15  A    between atoms: C_29  and  O_33
REMARK   16  A    between atoms: O_34  and  C_35
REMARK   17  A    between atoms: C_37  and  O_49
REMARK   18  A    between atoms: C_38  and  O_48
REMARK   19  A    between atoms: C_40  and  O_47
REMARK   20  A    between atoms: C_42  and  C_44
REMARK   21  A    between atoms: C_44  and  O_46
REMARK   22  A    between atoms: C_52  and  O_57
REMARK   23  A    between atoms: C_53  and  O_56
REMARK                            x       y       z     vdW  Elec       q    Type
REMARK                         _______ _______ _______ _____ _____    ______ ____
ROOT
ATOM      1  C   UNL     1       5.774   2.475  25.868  0.00  0.00    +0.214 A 
ATOM      2  C   UNL     1       6.620   1.554  26.704  0.00  0.00    +0.238 A 
ATOM      3  O   UNL     1       7.525   1.997  27.404  0.00  0.00    -0.283 OA
ATOM      4  C   UNL     1       6.245   0.108  26.646  0.00  0.00    +0.109 A 
ATOM      5  C   UNL     1       4.956  -0.200  26.259  0.00  0.00    +0.147 A 
ATOM      6  C   UNL     1       4.481  -1.515  26.134  0.00  0.00    +0.093 A 
ATOM      7  C   UNL     1       5.325  -2.595  26.365  0.00  0.00    +0.131 A 
ATOM      8  C   UNL     1       6.635  -2.307  26.788  0.00  0.00    +0.092 A 
ATOM      9  O   UNL     1       4.055   0.776  25.971  0.00  0.00    -0.451 OA
ATOM     10  C   UNL     1       7.078  -0.973  26.953  0.00  0.00    +0.135 A 
ATOM     11  C   UNL     1       4.540   2.001  25.545  0.00  0.00    +0.181 A 
ENDROOT
BRANCH  11  12
ATOM     12  C   UNL     1       3.526   2.658  24.680  0.00  0.00    +0.025 A 
ATOM     13  C   UNL     1       2.314   3.109  25.213  0.00  0.00    +0.015 A 
ATOM     14  C   UNL     1       1.387   3.791  24.424  0.00  0.00    +0.050 A 
ATOM     15  C   UNL     1       1.736   4.177  23.135  0.00  0.00    +0.158 A 
ATOM     16  C   UNL     1       2.985   3.845  22.627  0.00  0.00    +0.159 A 
ATOM     17  C   UNL     1       3.846   3.034  23.358  0.00  0.00    +0.060 A 
BRANCH  16  18
ATOM     18  O   UNL     1       3.471   4.448  21.501  0.00  0.00    -0.503 OA
ATOM     19  H   UNL     1       4.084   3.828  21.079  0.00  0.00    +0.292 HD
ENDBRANCH  16  18
BRANCH  15  20
ATOM     20  O   UNL     1       0.886   4.944  22.396  0.00  0.00    -0.503 OA
ATOM     21  H   UNL     1       1.014   4.697  21.465  0.00  0.00    +0.292 HD
ENDBRANCH  15  20
ENDBRANCH  11  12
BRANCH  10  22
ATOM     22  O   UNL     1       8.363  -0.760  27.361  0.00  0.00    -0.506 OA
ATOM     23  H   UNL     1       8.580  -1.419  28.042  0.00  0.00    +0.292 HD
ENDBRANCH  10  22
BRANCH   7  24
ATOM     24  O   UNL     1       4.987  -3.924  26.193  0.00  0.00    -0.461 OA
BRANCH  24  25
ATOM     25  C   UNL     1       5.982  -4.771  25.568  0.00  0.00    +0.340 C 
ATOM     26  O   UNL     1       6.321  -4.278  24.260  0.00  0.00    -0.322 OA
ATOM     27  C   UNL     1       5.206  -4.413  23.358  0.00  0.00    +0.261 C 
ATOM     28  C   UNL     1       4.857  -5.887  23.104  0.00  0.00    +0.185 C 
ATOM     29  C   UNL     1       4.485  -6.553  24.442  0.00  0.00    +0.180 C 
ATOM     30  C   UNL     1       5.580  -6.272  25.490  0.00  0.00    +0.214 C 
BRANCH  29  31
ATOM     31  O   UNL     1       3.208  -6.143  24.940  0.00  0.00    -0.386 OA
ATOM     32  H   UNL     1       2.506  -6.325  24.293  0.00  0.00    +0.210 HD
ENDBRANCH  29  31
BRANCH  30  33
ATOM     33  O   UNL     1       5.251  -6.813  26.772  0.00  0.00    -0.383 OA
ATOM     34  H   UNL     1       4.761  -6.122  27.257  0.00  0.00    +0.210 HD
ENDBRANCH  30  33
BRANCH  28  35
ATOM     35  O   UNL     1       5.999  -6.555  22.552  0.00  0.00    -0.386 OA
ATOM     36  H   UNL     1       6.746  -6.442  23.171  0.00  0.00    +0.210 HD
ENDBRANCH  28  35
BRANCH  27  37
ATOM     37  C   UNL     1       5.509  -3.724  22.041  0.00  0.00    +0.337 C 
ATOM     38  O   UNL     1       5.628  -4.318  20.974  0.00  0.00    -0.248 OA
BRANCH  37  39
ATOM     39  O   UNL     1       5.561  -2.373  22.154  0.00  0.00    -0.479 OA
ATOM     40  H   UNL     1       4.760  -2.067  22.595  0.00  0.00    +0.295 HD
ENDBRANCH  37  39
ENDBRANCH  27  37
ENDBRANCH  24  25
ENDBRANCH   7  24
BRANCH   1  41
ATOM     41  O   UNL     1       6.168   3.768  25.560  0.00  0.00    -0.453 OA
BRANCH  41  44
ATOM     42  C   UNL     1       9.660   4.816  24.537  0.00  0.00    +0.179 C 
ATOM     43  O   UNL     1       8.571   4.193  25.267  0.00  0.00    -0.331 OA
ATOM     44  C   UNL     1       7.264   4.138  24.677  0.00  0.00    +0.340 C 
ATOM     45  C   UNL     1       6.832   5.360  23.822  0.00  0.00    +0.214 C 
ATOM     46  C   UNL     1       7.945   5.676  22.827  0.00  0.00    +0.180 C 
ATOM     47  C   UNL     1       9.223   6.004  23.616  0.00  0.00    +0.177 C 
BRANCH  47  48
ATOM     48  O   UNL     1      10.261   6.369  22.700  0.00  0.00    -0.386 OA
ATOM     49  H   UNL     1       9.997   7.196  22.262  0.00  0.00    +0.210 HD
ENDBRANCH  47  48
BRANCH  46  50
ATOM     50  O   UNL     1       7.550   6.778  21.992  0.00  0.00    -0.386 OA
ATOM     51  H   UNL     1       7.013   6.401  21.269  0.00  0.00    +0.210 HD
ENDBRANCH  46  50
BRANCH  45  52
ATOM     52  O   UNL     1       6.562   6.562  24.570  0.00  0.00    -0.383 OA
ATOM     53  H   UNL     1       6.234   6.294  25.468  0.00  0.00    +0.210 HD
ENDBRANCH  45  52
BRANCH  42  54
ATOM     54  C   UNL     1      10.655   3.861  23.771  0.00  0.00    +0.197 C 
BRANCH  54  55
ATOM     55  O   UNL     1      10.609   2.441  23.974  0.00  0.00    -0.346 OA
BRANCH  55  59
ATOM     56  C   UNL     1       6.769   1.262  22.184  0.00  0.00    +0.041 C 
ATOM     57  C   UNL     1       7.529   0.452  23.234  0.00  0.00    +0.149 C 
ATOM     58  O   UNL     1       8.465   1.299  23.952  0.00  0.00    -0.343 OA
ATOM     59  C   UNL     1       9.656   1.652  23.228  0.00  0.00    +0.282 C 
ATOM     60  C   UNL     1      10.377   0.325  22.830  0.00  0.00    +0.201 C 
ATOM     61  C   UNL     1       9.464  -0.467  21.881  0.00  0.00    +0.179 C 
ATOM     62  C   UNL     1       8.149  -0.811  22.588  0.00  0.00    +0.174 C 
BRANCH  62  63
ATOM     63  O   UNL     1       8.354  -1.835  23.571  0.00  0.00    -0.387 OA
ATOM     64  H   UNL     1       8.572  -2.657  23.077  0.00  0.00    +0.210 HD
ENDBRANCH  62  63
BRANCH  61  65
ATOM     65  O   UNL     1      10.121  -1.643  21.387  0.00  0.00    -0.386 OA
ATOM     66  H   UNL     1       9.457  -2.184  20.919  0.00  0.00    +0.210 HD
ENDBRANCH  61  65
BRANCH  60  67
ATOM     67  O   UNL     1      10.631  -0.485  24.010  0.00  0.00    -0.384 OA
ATOM     68  H   UNL     1      11.009   0.124  24.674  0.00  0.00    +0.210 HD
ENDBRANCH  60  67
ENDBRANCH  55  59
ENDBRANCH  54  55
ENDBRANCH  42  54
ENDBRANCH  41  44
ENDBRANCH   1  41
TORSDOF 22
ENDMDL
MODEL 2
REMARK VINA RESULT:      -6.9      2.122      8.866
REMARK  Name = 
REMARK  23 active torsions:
REMARK  status: ('A' for Active; 'I' for Inactive)
REMARK    1  A    between atoms: C_1  and  C_2
REMARK    2  A    between atoms: C_3  and  O_63
REMARK    3  A    between atoms: C_5  and  O_62
REMARK    4  A    between atoms: C_7  and  O_61
REMARK    5  A    between atoms: C_8  and  O_11
REMARK    6  A    between atoms: O_11  and  C_12
REMARK    7  A    between atoms: C_12  and  C_13
REMARK    8  A    between atoms: C_14  and  O_60
REMARK    9  A    between atoms: C_16  and  O_59
REMARK   10  A    between atoms: C_17  and  O_58
REMARK   11  A    between atoms: C_18  and  O_21
REMARK   12  A    between atoms: O_21  and  C_22
REMARK   13  A    between atoms: C_23  and  C_50
REMARK   14  A    between atoms: C_27  and  O_34
REMARK   15  A    between atoms: C_29  and  O_33
REMARK   16  A    between atoms: O_34  and  C_35
REMARK   17  A    between atoms: C_37  and  O_49
REMARK   18  A    between atoms: C_38  and  O_48
REMARK   19  A    between atoms: C_40  and  O_47
REMARK   20  A    between atoms: C_42  and  C_44
REMARK   21  A    between atoms: C_44  and  O_46
REMARK   22  A    between atoms: C_52  and  O_57
REMARK   23  A    between atoms: C_53  and  O_56
REMARK                            x       y       z     vdW  Elec       q    Type
REMARK                         _______ _______ _______ _____ _____    ______ ____
ROOT
ATOM      1  C   UNL     1       4.401  -1.867  26.413  0.00  0.00    +0.214 A 
ATOM      2  C   UNL     1       3.511  -0.688  26.692  0.00  0.00    +0.238 A 
ATOM      3  O   UNL     1       2.298  -0.831  26.811  0.00  0.00    -0.283 OA
ATOM      4  C   UNL     1       4.212   0.623  26.851  0.00  0.00    +0.109 A 
ATOM      5  C   UNL     1       5.548   0.591  27.198  0.00  0.00    +0.147 A 
ATOM      6  C   UNL     1       6.333   1.744  27.351  0.00  0.00    +0.093 A 
ATOM      7  C   UNL     1       5.793   3.003  27.116  0.00  0.00    +0.131 A 
ATOM      8  C   UNL     1       4.426   3.063  26.790  0.00  0.00    +0.092 A 
ATOM      9  O   UNL     1       6.191  -0.586  27.415  0.00  0.00    -0.451 OA
ATOM     10  C   UNL     1       3.642   1.889  26.686  0.00  0.00    +0.135 A 
ATOM     11  C   UNL     1       5.700  -1.719  26.787  0.00  0.00    +0.181 A 
ENDROOT
BRANCH  11  12
ATOM     12  C   UNL     1       6.810  -2.684  26.575  0.00  0.00    +0.025 A 
ATOM     13  C   UNL     1       8.066  -2.247  26.140  0.00  0.00    +0.015 A 
ATOM     14  C   UNL     1       9.134  -3.135  26.007  0.00  0.00    +0.050 A 
ATOM     15  C   UNL     1       9.003  -4.438  26.471  0.00  0.00    +0.158 A 
ATOM     16  C   UNL     1       7.800  -4.861  27.021  0.00  0.00    +0.159 A 
ATOM     17  C   UNL     1       6.691  -4.022  27.010  0.00  0.00    +0.060 A 
BRANCH  16  18
ATOM     18  O   UNL     1       7.724  -6.018  27.744  0.00  0.00    -0.503 OA
ATOM     19  H   UNL     1       7.278  -5.811  28.578  0.00  0.00    +0.292 HD
ENDBRANCH  16  18
BRANCH  15  20
ATOM     20  O   UNL     1      10.074  -5.281  26.454  0.00  0.00    -0.503 OA
ATOM     21  H   UNL     1       9.733  -6.180  26.596  0.00  0.00    +0.292 HD
ENDBRANCH  15  20
ENDBRANCH  11  12
BRANCH  10  22
ATOM     22  O   UNL     1       2.323   2.015  26.361  0.00  0.00    -0.506 OA
ATOM     23  H   UNL     1       1.914   1.133  26.395  0.00  0.00    +0.292 HD
ENDBRANCH  10  22
BRANCH   7  24
ATOM     24  O   UNL     1       6.492   4.194  27.158  0.00  0.00    -0.461 OA
BRANCH  24  25
ATOM     25  C   UNL     1       6.341   5.076  26.019  0.00  0.00    +0.340 C 
ATOM     26  O   UNL     1       7.062   4.568  24.883  0.00  0.00    -0.322 OA
ATOM     27  C   UNL     1       8.484   4.621  25.115  0.00  0.00    +0.261 C 
ATOM     28  C   UNL     1       8.985   6.067  25.237  0.00  0.00    +0.185 C 
ATOM     29  C   UNL     1       8.273   6.747  26.422  0.00  0.00    +0.180 C 
ATOM     30  C   UNL     1       6.749   6.551  26.299  0.00  0.00    +0.214 C 
BRANCH  29  31
ATOM     31  O   UNL     1       8.730   6.283  27.696  0.00  0.00    -0.386 OA
ATOM     32  H   UNL     1       9.593   6.669  27.918  0.00  0.00    +0.210 HD
ENDBRANCH  29  31
BRANCH  30  33
ATOM     33  O   UNL     1       6.043   7.106  27.412  0.00  0.00    -0.383 OA
ATOM     34  H   UNL     1       6.703   7.550  27.978  0.00  0.00    +0.210 HD
ENDBRANCH  30  33
BRANCH  28  35
ATOM     35  O   UNL     1       8.672   6.780  24.034  0.00  0.00    -0.386 OA
ATOM     36  H   UNL     1       9.309   6.511  23.345  0.00  0.00    +0.210 HD
ENDBRANCH  28  35
BRANCH  27  37
ATOM     37  C   UNL     1       9.225   3.915  23.995  0.00  0.00    +0.337 C 
ATOM     38  O   UNL     1      10.210   3.206  24.172  0.00  0.00    -0.248 OA
BRANCH  37  39
ATOM     39  O   UNL     1       8.640   4.090  22.784  0.00  0.00    -0.479 OA
ATOM     40  H   UNL     1       9.050   3.488  22.151  0.00  0.00    +0.295 HD
ENDBRANCH  37  39
ENDBRANCH  27  37
ENDBRANCH  24  25
ENDBRANCH   7  24
BRANCH   1  41
ATOM     41  O   UNL     1       3.908  -3.071  25.933  0.00  0.00    -0.453 OA
BRANCH  41  44
ATOM     42  C   UNL     1       5.593  -4.258  22.756  0.00  0.00    +0.179 C 
ATOM     43  O   UNL     1       5.141  -3.394  23.831  0.00  0.00    -0.331 OA
ATOM     44  C   UNL     1       4.600  -3.976  25.027  0.00  0.00    +0.340 C 
ATOM     45  C   UNL     1       3.750  -5.263  24.853  0.00  0.00    +0.214 C 
ATOM     46  C   UNL     1       4.529  -6.248  23.987  0.00  0.00    +0.180 C 
ATOM     47  C   UNL     1       4.787  -5.594  22.620  0.00  0.00    +0.177 C 
BRANCH  47  48
ATOM     48  O   UNL     1       5.459  -6.529  21.770  0.00  0.00    -0.386 OA
ATOM     49  H   UNL     1       5.566  -7.360  22.263  0.00  0.00    +0.210 HD
ENDBRANCH  47  48
BRANCH  46  50
ATOM     50  O   UNL     1       3.781  -7.469  23.847  0.00  0.00    -0.386 OA
ATOM     51  H   UNL     1       4.321  -8.174  24.253  0.00  0.00    +0.210 HD
ENDBRANCH  46  50
BRANCH  45  52
ATOM     52  O   UNL     1       2.462  -5.065  24.237  0.00  0.00    -0.383 OA
ATOM     53  H   UNL     1       2.277  -4.089  24.226  0.00  0.00    +0.210 HD
ENDBRANCH  45  52
BRANCH  42  54
ATOM     54  C   UNL     1       7.143  -4.537  22.657  0.00  0.00    +0.197 C 
BRANCH  54  55
ATOM     55  O   UNL     1       8.032  -3.544  22.125  0.00  0.00    -0.346 OA
BRANCH  55  59
ATOM     56  C   UNL     1       6.402   0.180  23.801  0.00  0.00    +0.041 C 
ATOM     57  C   UNL     1       7.198   0.083  22.500  0.00  0.00    +0.149 C 
ATOM     58  O   UNL     1       7.173  -1.277  21.988  0.00  0.00    -0.343 OA
ATOM     59  C   UNL     1       8.016  -2.211  22.682  0.00  0.00    +0.282 C 
ATOM     60  C   UNL     1       9.479  -1.671  22.610  0.00  0.00    +0.201 C 
ATOM     61  C   UNL     1       9.547  -0.329  23.356  0.00  0.00    +0.179 C 
ATOM     62  C   UNL     1       8.611   0.686  22.691  0.00  0.00    +0.174 C 
BRANCH  62  63
ATOM     63  O   UNL     1       9.149   1.126  21.436  0.00  0.00    -0.387 OA
ATOM     64  H   UNL     1      10.119   0.972  21.480  0.00  0.00    +0.210 HD
ENDBRANCH  62  63
BRANCH  61  65
ATOM     65  O   UNL     1      10.893   0.161  23.426  0.00  0.00    -0.386 OA
ATOM     66  H   UNL     1      10.937   0.817  24.147  0.00  0.00    +0.210 HD
ENDBRANCH  61  65
BRANCH  60  67
ATOM     67  O   UNL     1       9.868  -1.451  21.227  0.00  0.00    -0.384 OA
ATOM     68  H   UNL     1       9.318  -2.058  20.696  0.00  0.00    +0.210 HD
ENDBRANCH  60  67
ENDBRANCH  55  59
ENDBRANCH  54  55
ENDBRANCH  42  54
ENDBRANCH  41  44
ENDBRANCH   1  41
TORSDOF 22
ENDMDL
MODEL 3
REMARK VINA RESULT:      -6.7      2.349      9.557
REMARK  Name = 
REMARK  23 active torsions:
REMARK  status: ('A' for Active; 'I' for Inactive)
REMARK    1  A    between atoms: C_1  and  C_2
REMARK    2  A    between atoms: C_3  and  O_63
REMARK    3  A    between atoms: C_5  and  O_62
REMARK    4  A    between atoms: C_7  and  O_61
REMARK    5  A    between atoms: C_8  and  O_11
REMARK    6  A    between atoms: O_11  and  C_12
REMARK    7  A    between atoms: C_12  and  C_13
REMARK    8  A    between atoms: C_14  and  O_60
REMARK    9  A    between atoms: C_16  and  O_59
REMARK   10  A    between atoms: C_17  and  O_58
REMARK   11  A    between atoms: C_18  and  O_21
REMARK   12  A    between atoms: O_21  and  C_22
REMARK   13  A    between atoms: C_23  and  C_50
REMARK   14  A    between atoms: C_27  and  O_34
REMARK   15  A    between atoms: C_29  and  O_33
REMARK   16  A    between atoms: O_34  and  C_35
REMARK   17  A    between atoms: C_37  and  O_49
REMARK   18  A    between atoms: C_38  and  O_48
REMARK   19  A    between atoms: C_40  and  O_47
REMARK   20  A    between atoms: C_42  and  C_44
REMARK   21  A    between atoms: C_44  and  O_46
REMARK   22  A    between atoms: C_52  and  O_57
REMARK   23  A    between atoms: C_53  and  O_56
REMARK                            x       y       z     vdW  Elec       q    Type
REMARK                         _______ _______ _______ _____ _____    ______ ____
ROOT
ATOM      1  C   UNL     1       5.328  -2.024  27.655  0.00  0.00    +0.214 A 
ATOM      2  C   UNL     1       4.543  -0.764  27.898  0.00  0.00    +0.238 A 
ATOM      3  O   UNL     1       3.694  -0.714  28.782  0.00  0.00    -0.283 OA
ATOM      4  C   UNL     1       4.906   0.396  27.029  0.00  0.00    +0.109 A 
ATOM      5  C   UNL     1       6.162   0.392  26.454  0.00  0.00    +0.147 A 
ATOM      6  C   UNL     1       6.621   1.402  25.595  0.00  0.00    +0.093 A 
ATOM      7  C   UNL     1       5.792   2.463  25.245  0.00  0.00    +0.131 A 
ATOM      8  C   UNL     1       4.519   2.505  25.840  0.00  0.00    +0.092 A 
ATOM      9  O   UNL     1       7.043  -0.614  26.695  0.00  0.00    -0.451 OA
ATOM     10  C   UNL     1       4.094   1.498  26.741  0.00  0.00    +0.135 A 
ATOM     11  C   UNL     1       6.532  -1.853  27.047  0.00  0.00    +0.181 A 
ENDROOT
BRANCH  11  12
ATOM     12  C   UNL     1       7.482  -2.914  26.624  0.00  0.00    +0.025 A 
ATOM     13  C   UNL     1       7.230  -4.259  26.916  0.00  0.00    +0.015 A 
ATOM     14  C   UNL     1       8.079  -5.268  26.461  0.00  0.00    +0.050 A 
ATOM     15  C   UNL     1       9.095  -4.957  25.565  0.00  0.00    +0.158 A 
ATOM     16  C   UNL     1       9.287  -3.642  25.164  0.00  0.00    +0.159 A 
ATOM     17  C   UNL     1       8.541  -2.618  25.738  0.00  0.00    +0.060 A 
BRANCH  16  18
ATOM     18  O   UNL     1      10.065  -3.341  24.081  0.00  0.00    -0.503 OA
ATOM     19  H   UNL     1      10.508  -4.157  23.806  0.00  0.00    +0.292 HD
ENDBRANCH  16  18
BRANCH  15  20
ATOM     20  O   UNL     1       9.856  -5.949  25.022  0.00  0.00    -0.503 OA
ATOM     21  H   UNL     1      10.452  -5.532  24.377  0.00  0.00    +0.292 HD
ENDBRANCH  15  20
ENDBRANCH  11  12
BRANCH  10  22
ATOM     22  O   UNL     1       2.844   1.594  27.281  0.00  0.00    -0.506 OA
ATOM     23  H   UNL     1       2.194   1.491  26.565  0.00  0.00    +0.292 HD
ENDBRANCH  10  22
BRANCH   7  24
ATOM     24  O   UNL     1       6.111   3.464  24.347  0.00  0.00    -0.461 OA
BRANCH  24  25
ATOM     25  C   UNL     1       7.439   3.423  23.773  0.00  0.00    +0.340 C 
ATOM     26  O   UNL     1       8.373   4.141  24.599  0.00  0.00    -0.322 OA
ATOM     27  C   UNL     1       8.086   5.554  24.587  0.00  0.00    +0.261 C 
ATOM     28  C   UNL     1       8.300   6.163  23.194  0.00  0.00    +0.185 C 
ATOM     29  C   UNL     1       7.363   5.466  22.191  0.00  0.00    +0.180 C 
ATOM     30  C   UNL     1       7.514   3.936  22.307  0.00  0.00    +0.214 C 
BRANCH  29  31
ATOM     31  O   UNL     1       5.990   5.840  22.348  0.00  0.00    -0.386 OA
ATOM     32  H   UNL     1       5.727   5.813  23.283  0.00  0.00    +0.210 HD
ENDBRANCH  29  31
BRANCH  30  33
ATOM     33  O   UNL     1       6.614   3.238  21.442  0.00  0.00    -0.383 OA
ATOM     34  H   UNL     1       7.147   2.864  20.716  0.00  0.00    +0.210 HD
ENDBRANCH  30  33
BRANCH  28  35
ATOM     35  O   UNL     1       9.658   5.950  22.788  0.00  0.00    -0.386 OA
ATOM     36  H   UNL     1       9.985   6.771  22.373  0.00  0.00    +0.210 HD
ENDBRANCH  28  35
BRANCH  27  37
ATOM     37  C   UNL     1       8.953   6.275  25.601  0.00  0.00    +0.337 C 
ATOM     38  O   UNL     1       9.851   7.054  25.297  0.00  0.00    -0.248 OA
BRANCH  37  39
ATOM     39  O   UNL     1       8.584   6.024  26.882  0.00  0.00    -0.479 OA
ATOM     40  H   UNL     1       8.085   5.199  26.905  0.00  0.00    +0.295 HD
ENDBRANCH  37  39
ENDBRANCH  27  37
ENDBRANCH  24  25
ENDBRANCH   7  24
BRANCH   1  41
ATOM     41  O   UNL     1       4.917  -3.257  28.137  0.00  0.00    -0.453 OA
BRANCH  41  44
ATOM     42  C   UNL     1       1.979  -4.607  26.167  0.00  0.00    +0.179 C 
ATOM     43  O   UNL     1       2.992  -3.701  26.675  0.00  0.00    -0.331 OA
ATOM     44  C   UNL     1       4.102  -4.225  27.418  0.00  0.00    +0.340 C 
ATOM     45  C   UNL     1       3.809  -5.430  28.353  0.00  0.00    +0.214 C 
ATOM     46  C   UNL     1       3.045  -6.486  27.560  0.00  0.00    +0.180 C 
ATOM     47  C   UNL     1       1.729  -5.864  27.067  0.00  0.00    +0.177 C 
BRANCH  47  48
ATOM     48  O   UNL     1       0.966  -6.861  26.378  0.00  0.00    -0.386 OA
ATOM     49  H   UNL     1       0.732  -6.508  25.503  0.00  0.00    +0.210 HD
ENDBRANCH  47  48
BRANCH  46  50
ATOM     50  O   UNL     1       2.800  -7.634  28.392  0.00  0.00    -0.386 OA
ATOM     51  H   UNL     1       2.775  -8.408  27.797  0.00  0.00    +0.210 HD
ENDBRANCH  46  50
BRANCH  45  52
ATOM     52  O   UNL     1       3.032  -5.118  29.525  0.00  0.00    -0.383 OA
ATOM     53  H   UNL     1       2.094  -5.394  29.350  0.00  0.00    +0.210 HD
ENDBRANCH  45  52
BRANCH  42  54
ATOM     54  C   UNL     1       2.081  -5.027  24.649  0.00  0.00    +0.197 C 
BRANCH  54  55
ATOM     55  O   UNL     1       3.228  -5.738  24.163  0.00  0.00    -0.346 OA
BRANCH  55  59
ATOM     56  C   UNL     1       5.869  -2.283  23.509  0.00  0.00    +0.041 C 
ATOM     57  C   UNL     1       5.321  -3.186  22.404  0.00  0.00    +0.149 C 
ATOM     58  O   UNL     1       4.143  -3.900  22.866  0.00  0.00    -0.343 OA
ATOM     59  C   UNL     1       4.400  -4.995  23.760  0.00  0.00    +0.282 C 
ATOM     60  C   UNL     1       5.342  -5.998  23.021  0.00  0.00    +0.201 C 
ATOM     61  C   UNL     1       6.679  -5.298  22.734  0.00  0.00    +0.179 C 
ATOM     62  C   UNL     1       6.449  -4.079  21.834  0.00  0.00    +0.174 C 
BRANCH  62  63
ATOM     63  O   UNL     1       6.144  -4.488  20.494  0.00  0.00    -0.387 OA
ATOM     64  H   UNL     1       6.279  -5.462  20.462  0.00  0.00    +0.210 HD
ENDBRANCH  62  63
BRANCH  61  65
ATOM     65  O   UNL     1       7.630  -6.206  22.159  0.00  0.00    -0.386 OA
ATOM     66  H   UNL     1       8.290  -5.680  21.669  0.00  0.00    +0.210 HD
ENDBRANCH  61  65
BRANCH  60  67
ATOM     67  O   UNL     1       4.752  -6.404  21.755  0.00  0.00    -0.384 OA
ATOM     68  H   UNL     1       4.823  -5.628  21.167  0.00  0.00    +0.210 HD
ENDBRANCH  60  67
ENDBRANCH  55  59
ENDBRANCH  54  55
ENDBRANCH  42  54
ENDBRANCH  41  44
ENDBRANCH   1  41
TORSDOF 22
ENDMDL
MODEL 4
REMARK VINA RESULT:      -6.5      2.652      9.535
REMARK  Name = 
REMARK  23 active torsions:
REMARK  status: ('A' for Active; 'I' for Inactive)
REMARK    1  A    between atoms: C_1  and  C_2
REMARK    2  A    between atoms: C_3  and  O_63
REMARK    3  A    between atoms: C_5  and  O_62
REMARK    4  A    between atoms: C_7  and  O_61
REMARK    5  A    between atoms: C_8  and  O_11
REMARK    6  A    between atoms: O_11  and  C_12
REMARK    7  A    between atoms: C_12  and  C_13
REMARK    8  A    between atoms: C_14  and  O_60
REMARK    9  A    between atoms: C_16  and  O_59
REMARK   10  A    between atoms: C_17  and  O_58
REMARK   11  A    between atoms: C_18  and  O_21
REMARK   12  A    between atoms: O_21  and  C_22
REMARK   13  A    between atoms: C_23  and  C_50
REMARK   14  A    between atoms: C_27  and  O_34
REMARK   15  A    between atoms: C_29  and  O_33
REMARK   16  A    between atoms: O_34  and  C_35
REMARK   17  A    between atoms: C_37  and  O_49
REMARK   18  A    between atoms: C_38  and  O_48
REMARK   19  A    between atoms: C_40  and  O_47
REMARK   20  A    between atoms: C_42  and  C_44
REMARK   21  A    between atoms: C_44  and  O_46
REMARK   22  A    between atoms: C_52  and  O_57
REMARK   23  A    between atoms: C_53  and  O_56
REMARK                            x       y       z     vdW  Elec       q    Type
REMARK                         _______ _______ _______ _____ _____    ______ ____
ROOT
ATOM      1  C   UNL     1       2.551  -3.482  27.752  0.00  0.00    +0.214 A 
ATOM      2  C   UNL     1       1.775  -2.222  27.481  0.00  0.00    +0.238 A 
ATOM      3  O   UNL     1       0.561  -2.257  27.310  0.00  0.00    -0.283 OA
ATOM      4  C   UNL     1       2.577  -0.961  27.484  0.00  0.00    +0.109 A 
ATOM      5  C   UNL     1       3.778  -0.973  28.167  0.00  0.00    +0.147 A 
ATOM      6  C   UNL     1       4.643   0.131  28.226  0.00  0.00    +0.093 A 
ATOM      7  C   UNL     1       4.336   1.306  27.549  0.00  0.00    +0.131 A 
ATOM      8  C   UNL     1       3.105   1.352  26.870  0.00  0.00    +0.092 A 
ATOM      9  O   UNL     1       4.198  -2.080  28.834  0.00  0.00    -0.451 OA
ATOM     10  C   UNL     1       2.227   0.242  26.863  0.00  0.00    +0.135 A 
ATOM     11  C   UNL     1       3.732  -3.312  28.404  0.00  0.00    +0.181 A 
ENDROOT
BRANCH  11  12
ATOM     12  C   UNL     1       4.730  -4.359  28.740  0.00  0.00    +0.025 A 
ATOM     13  C   UNL     1       4.473  -5.299  29.744  0.00  0.00    +0.015 A 
ATOM     14  C   UNL     1       5.373  -6.330  30.017  0.00  0.00    +0.050 A 
ATOM     15  C   UNL     1       6.459  -6.532  29.174  0.00  0.00    +0.158 A 
ATOM     16  C   UNL     1       6.666  -5.683  28.095  0.00  0.00    +0.159 A 
ATOM     17  C   UNL     1       5.858  -4.566  27.917  0.00  0.00    +0.060 A 
BRANCH  16  18
ATOM     18  O   UNL     1       7.533  -6.017  27.092  0.00  0.00    -0.503 OA
ATOM     19  H   UNL     1       7.639  -5.237  26.527  0.00  0.00    +0.292 HD
ENDBRANCH  16  18
BRANCH  15  20
ATOM     20  O   UNL     1       7.279  -7.605  29.360  0.00  0.00    -0.503 OA
ATOM     21  H   UNL     1       8.059  -7.288  29.846  0.00  0.00    +0.292 HD
ENDBRANCH  15  20
ENDBRANCH  11  12
BRANCH  10  22
ATOM     22  O   UNL     1       1.049   0.349  26.182  0.00  0.00    -0.506 OA
ATOM     23  H   UNL     1       1.055   1.190  25.693  0.00  0.00    +0.292 HD
ENDBRANCH  10  22
BRANCH   7  24
ATOM     24  O   UNL     1       5.150   2.420  27.472  0.00  0.00    -0.461 OA
BRANCH  24  25
ATOM     25  C   UNL     1       5.248   3.065  26.179  0.00  0.00    +0.340 C 
ATOM     26  O   UNL     1       6.079   2.298  25.290  0.00  0.00    -0.322 OA
ATOM     27  C   UNL     1       7.450   2.310  25.733  0.00  0.00    +0.261 C 
ATOM     28  C   UNL     1       8.057   3.719  25.662  0.00  0.00    +0.185 C 
ATOM     29  C   UNL     1       7.243   4.663  26.567  0.00  0.00    +0.180 C 
ATOM     30  C   UNL     1       5.742   4.539  26.239  0.00  0.00    +0.214 C 
BRANCH  29  31
ATOM     31  O   UNL     1       7.465   4.435  27.963  0.00  0.00    -0.386 OA
ATOM     32  H   UNL     1       7.313   3.503  28.192  0.00  0.00    +0.210 HD
ENDBRANCH  29  31
BRANCH  30  33
ATOM     33  O   UNL     1       4.934   5.346  27.100  0.00  0.00    -0.383 OA
ATOM     34  H   UNL     1       4.870   4.879  27.954  0.00  0.00    +0.210 HD
ENDBRANCH  30  33
BRANCH  28  35
ATOM     35  O   UNL     1       7.989   4.196  24.312  0.00  0.00    -0.386 OA
ATOM     36  H   UNL     1       7.071   4.086  23.996  0.00  0.00    +0.210 HD
ENDBRANCH  28  35
BRANCH  27  37
ATOM     37  C   UNL     1       8.280   1.352  24.901  0.00  0.00    +0.337 C 
ATOM     38  O   UNL     1       8.112   1.175  23.698  0.00  0.00    -0.248 OA
BRANCH  37  39
ATOM     39  O   UNL     1       9.276   0.764  25.609  0.00  0.00    -0.479 OA
ATOM     40  H   UNL     1       9.787   0.200  25.017  0.00  0.00    +0.295 HD
ENDBRANCH  37  39
ENDBRANCH  27  37
ENDBRANCH  24  25
ENDBRANCH   7  24
BRANCH   1  41
ATOM     41  O   UNL     1       2.038  -4.741  27.477  0.00  0.00    -0.453 OA
BRANCH  41  44
ATOM     42  C   UNL     1       2.286  -5.913  23.885  0.00  0.00    +0.179 C 
ATOM     43  O   UNL     1       2.204  -5.043  25.043  0.00  0.00    -0.331 OA
ATOM     44  C   UNL     1       2.413  -5.588  26.355  0.00  0.00    +0.340 C 
ATOM     45  C   UNL     1       1.878  -7.024  26.606  0.00  0.00    +0.214 C 
ATOM     46  C   UNL     1       2.364  -7.929  25.478  0.00  0.00    +0.180 C 
ATOM     47  C   UNL     1       1.818  -7.383  24.149  0.00  0.00    +0.177 C 
BRANCH  47  48
ATOM     48  O   UNL     1       2.207  -8.259  23.085  0.00  0.00    -0.386 OA
ATOM     49  H   UNL     1       3.124  -8.540  23.248  0.00  0.00    +0.210 HD
ENDBRANCH  47  48
BRANCH  46  50
ATOM     50  O   UNL     1       1.919  -9.277  25.711  0.00  0.00    -0.386 OA
ATOM     51  H   UNL     1       2.071  -9.768  24.881  0.00  0.00    +0.210 HD
ENDBRANCH  46  50
BRANCH  45  52
ATOM     52  O   UNL     1       0.443  -7.138  26.669  0.00  0.00    -0.383 OA
ATOM     53  H   UNL     1       0.219  -7.751  27.417  0.00  0.00    +0.210 HD
ENDBRANCH  45  52
BRANCH  42  54
ATOM     54  C   UNL     1       3.637  -5.903  23.069  0.00  0.00    +0.197 C 
BRANCH  54  55
ATOM     55  O   UNL     1       4.194  -4.670  22.593  0.00  0.00    -0.346 OA
BRANCH  55  59
ATOM     56  C   UNL     1       5.981  -1.546  25.120  0.00  0.00    +0.041 C 
ATOM     57  C   UNL     1       6.504  -1.963  23.746  0.00  0.00    +0.149 C 
ATOM     58  O   UNL     1       5.463  -2.637  22.988  0.00  0.00    -0.343 OA
ATOM     59  C   UNL     1       5.184  -3.987  23.393  0.00  0.00    +0.282 C 
ATOM     60  C   UNL     1       6.511  -4.802  23.267  0.00  0.00    +0.201 C 
ATOM     61  C   UNL     1       7.543  -4.219  24.245  0.00  0.00    +0.179 C 
ATOM     62  C   UNL     1       7.826  -2.754  23.894  0.00  0.00    +0.174 C 
BRANCH  62  63
ATOM     63  O   UNL     1       8.609  -2.662  22.695  0.00  0.00    -0.387 OA
ATOM     64  H   UNL     1       9.487  -2.309  22.963  0.00  0.00    +0.210 HD
ENDBRANCH  62  63
BRANCH  61  65
ATOM     65  O   UNL     1       8.746  -5.000  24.259  0.00  0.00    -0.386 OA
ATOM     66  H   UNL     1       9.294  -4.693  25.007  0.00  0.00    +0.210 HD
ENDBRANCH  61  65
BRANCH  60  67
ATOM     67  O   UNL     1       7.041  -4.696  21.918  0.00  0.00    -0.384 OA
ATOM     68  H   UNL     1       6.432  -5.208  21.352  0.00  0.00    +0.210 HD
ENDBRANCH  60  67
ENDBRANCH  55  59
ENDBRANCH  54  55
ENDBRANCH  42  54
ENDBRANCH  41  44
ENDBRANCH   1  41
TORSDOF 22
ENDMDL
MODEL 5
REMARK VINA RESULT:      -6.4      2.473      3.973
REMARK  Name = 
REMARK  23 active torsions:
REMARK  status: ('A' for Active; 'I' for Inactive)
REMARK    1  A    between atoms: C_1  and  C_2
REMARK    2  A    between atoms: C_3  and  O_63
REMARK    3  A    between atoms: C_5  and  O_62
REMARK    4  A    between atoms: C_7  and  O_61
REMARK    5  A    between atoms: C_8  and  O_11
REMARK    6  A    between atoms: O_11  and  C_12
REMARK    7  A    between atoms: C_12  and  C_13
REMARK    8  A    between atoms: C_14  and  O_60
REMARK    9  A    between atoms: C_16  and  O_59
REMARK   10  A    between atoms: C_17  and  O_58
REMARK   11  A    between atoms: C_18  and  O_21
REMARK   12  A    between atoms: O_21  and  C_22
REMARK   13  A    between atoms: C_23  and  C_50
REMARK   14  A    between atoms: C_27  and  O_34
REMARK   15  A    between atoms: C_29  and  O_33
REMARK   16  A    between atoms: O_34  and  C_35
REMARK   17  A    between atoms: C_37  and  O_49
REMARK   18  A    between atoms: C_38  and  O_48
REMARK   19  A    between atoms: C_40  and  O_47
REMARK   20  A    between atoms: C_42  and  C_44
REMARK   21  A    between atoms: C_44  and  O_46
REMARK   22  A    between atoms: C_52  and  O_57
REMARK   23  A    between atoms: C_53  and  O_56
REMARK                            x       y       z     vdW  Elec       q    Type
REMARK                         _______ _______ _______ _____ _____    ______ ____
ROOT
ATOM      1  C   UNL     1       5.814   1.788  25.405  0.00  0.00    +0.214 A 
ATOM      2  C   UNL     1       5.853   0.415  24.792  0.00  0.00    +0.238 A 
ATOM      3  O   UNL     1       6.316   0.242  23.669  0.00  0.00    -0.283 OA
ATOM      4  C   UNL     1       5.340  -0.690  25.658  0.00  0.00    +0.109 A 
ATOM      5  C   UNL     1       5.329  -0.475  27.023  0.00  0.00    +0.147 A 
ATOM      6  C   UNL     1       4.847  -1.414  27.948  0.00  0.00    +0.093 A 
ATOM      7  C   UNL     1       4.309  -2.621  27.514  0.00  0.00    +0.131 A 
ATOM      8  C   UNL     1       4.336  -2.875  26.131  0.00  0.00    +0.092 A 
ATOM      9  O   UNL     1       5.795   0.684  27.557  0.00  0.00    -0.451 OA
ATOM     10  C   UNL     1       4.870  -1.932  25.220  0.00  0.00    +0.135 A 
ATOM     11  C   UNL     1       5.771   1.820  26.764  0.00  0.00    +0.181 A 
ENDROOT
BRANCH  11  12
ATOM     12  C   UNL     1       5.657   3.022  27.629  0.00  0.00    +0.025 A 
ATOM     13  C   UNL     1       4.404   3.542  27.973  0.00  0.00    +0.015 A 
ATOM     14  C   UNL     1       4.286   4.626  28.843  0.00  0.00    +0.050 A 
ATOM     15  C   UNL     1       5.411   5.093  29.513  0.00  0.00    +0.158 A 
ATOM     16  C   UNL     1       6.649   4.509  29.279  0.00  0.00    +0.159 A 
ATOM     17  C   UNL     1       6.790   3.535  28.298  0.00  0.00    +0.060 A 
BRANCH  16  18
ATOM     18  O   UNL     1       7.704   4.736  30.118  0.00  0.00    -0.503 OA
ATOM     19  H   UNL     1       7.411   4.527  31.017  0.00  0.00    +0.292 HD
ENDBRANCH  16  18
BRANCH  15  20
ATOM     20  O   UNL     1       5.290   6.073  30.452  0.00  0.00    -0.503 OA
ATOM     21  H   UNL     1       5.671   6.882  30.072  0.00  0.00    +0.292 HD
ENDBRANCH  15  20
ENDBRANCH  11  12
BRANCH  10  22
ATOM     22  O   UNL     1       4.862  -2.236  23.890  0.00  0.00    -0.506 OA
ATOM     23  H   UNL     1       3.997  -1.982  23.524  0.00  0.00    +0.292 HD
ENDBRANCH  10  22
BRANCH   7  24
ATOM     24  O   UNL     1       3.734  -3.579  28.328  0.00  0.00    -0.461 OA
BRANCH  24  25
ATOM     25  C   UNL     1       4.624  -4.290  29.222  0.00  0.00    +0.340 C 
ATOM     26  O   UNL     1       5.877  -4.571  28.574  0.00  0.00    -0.322 OA
ATOM     27  C   UNL     1       5.700  -5.526  27.509  0.00  0.00    +0.261 C 
ATOM     28  C   UNL     1       5.259  -6.896  28.043  0.00  0.00    +0.185 C 
ATOM     29  C   UNL     1       3.918  -6.739  28.785  0.00  0.00    +0.180 C 
ATOM     30  C   UNL     1       4.020  -5.595  29.814  0.00  0.00    +0.214 C 
BRANCH  29  31
ATOM     31  O   UNL     1       2.810  -6.516  27.906  0.00  0.00    -0.386 OA
ATOM     32  H   UNL     1       2.014  -6.271  28.406  0.00  0.00    +0.210 HD
ENDBRANCH  29  31
BRANCH  30  33
ATOM     33  O   UNL     1       2.779  -5.362  30.485  0.00  0.00    -0.383 OA
ATOM     34  H   UNL     1       2.366  -6.234  30.636  0.00  0.00    +0.210 HD
ENDBRANCH  30  33
BRANCH  28  35
ATOM     35  O   UNL     1       6.244  -7.386  28.961  0.00  0.00    -0.386 OA
ATOM     36  H   UNL     1       5.948  -7.175  29.867  0.00  0.00    +0.210 HD
ENDBRANCH  28  35
BRANCH  27  37
ATOM     37  C   UNL     1       6.984  -5.673  26.717  0.00  0.00    +0.337 C 
ATOM     38  O   UNL     1       7.063  -5.488  25.507  0.00  0.00    -0.248 OA
BRANCH  37  39
ATOM     39  O   UNL     1       8.055  -5.961  27.498  0.00  0.00    -0.479 OA
ATOM     40  H   UNL     1       8.616  -6.595  27.035  0.00  0.00    +0.295 HD
ENDBRANCH  37  39
ENDBRANCH  27  37
ENDBRANCH  24  25
ENDBRANCH   7  24
BRANCH   1  41
ATOM     41  O   UNL     1       5.949   2.942  24.647  0.00  0.00    -0.453 OA
BRANCH  41  44
ATOM     42  C   UNL     1       9.640   3.146  23.829  0.00  0.00    +0.179 C 
ATOM     43  O   UNL     1       8.349   2.617  24.227  0.00  0.00    -0.331 OA
ATOM     44  C   UNL     1       7.162   3.385  23.977  0.00  0.00    +0.340 C 
ATOM     45  C   UNL     1       7.285   4.926  24.124  0.00  0.00    +0.214 C 
ATOM     46  C   UNL     1       8.501   5.395  23.331  0.00  0.00    +0.180 C 
ATOM     47  C   UNL     1       9.749   4.706  23.903  0.00  0.00    +0.177 C 
BRANCH  47  48
ATOM     48  O   UNL     1      10.910   5.186  23.215  0.00  0.00    -0.386 OA
ATOM     49  H   UNL     1      11.252   5.953  23.704  0.00  0.00    +0.210 HD
ENDBRANCH  47  48
BRANCH  46  50
ATOM     50  O   UNL     1       8.611   6.827  23.413  0.00  0.00    -0.386 OA
ATOM     51  H   UNL     1       9.564   7.035  23.376  0.00  0.00    +0.210 HD
ENDBRANCH  46  50
BRANCH  45  52
ATOM     52  O   UNL     1       7.437   5.400  25.476  0.00  0.00    -0.383 OA
ATOM     53  H   UNL     1       8.225   6.004  25.498  0.00  0.00    +0.210 HD
ENDBRANCH  45  52
BRANCH  42  54
ATOM     54  C   UNL     1      10.252   2.615  22.474  0.00  0.00    +0.197 C 
BRANCH  54  55
ATOM     55  O   UNL     1      10.167   1.225  22.129  0.00  0.00    -0.346 OA
BRANCH  55  59
ATOM     56  C   UNL     1       9.018  -0.476  26.018  0.00  0.00    +0.041 C 
ATOM     57  C   UNL     1       9.962  -1.142  25.018  0.00  0.00    +0.149 C 
ATOM     58  O   UNL     1      10.504  -0.159  24.096  0.00  0.00    -0.343 OA
ATOM     59  C   UNL     1       9.598   0.295  23.078  0.00  0.00    +0.282 C 
ATOM     60  C   UNL     1       9.134  -0.956  22.267  0.00  0.00    +0.201 C 
ATOM     61  C   UNL     1       8.359  -1.893  23.206  0.00  0.00    +0.179 C 
ATOM     62  C   UNL     1       9.267  -2.354  24.351  0.00  0.00    +0.174 C 
BRANCH  62  63
ATOM     63  O   UNL     1      10.238  -3.299  23.879  0.00  0.00    -0.387 OA
ATOM     64  H   UNL     1      10.536  -2.977  22.999  0.00  0.00    +0.210 HD
ENDBRANCH  62  63
BRANCH  61  65
ATOM     65  O   UNL     1       7.805  -3.007  22.490  0.00  0.00    -0.386 OA
ATOM     66  H   UNL     1       8.402  -3.212  21.746  0.00  0.00    +0.210 HD
ENDBRANCH  61  65
BRANCH  60  67
ATOM     67  O   UNL     1      10.285  -1.674  21.744  0.00  0.00    -0.384 OA
ATOM     68  H   UNL     1      10.992  -1.007  21.646  0.00  0.00    +0.210 HD
ENDBRANCH  60  67
ENDBRANCH  55  59
ENDBRANCH  54  55
ENDBRANCH  42  54
ENDBRANCH  41  44
ENDBRANCH   1  41
TORSDOF 22
ENDMDL
MODEL 6
REMARK VINA RESULT:      -6.3      2.175      9.177
REMARK  Name = 
REMARK  23 active torsions:
REMARK  status: ('A' for Active; 'I' for Inactive)
REMARK    1  A    between atoms: C_1  and  C_2
REMARK    2  A    between atoms: C_3  and  O_63
REMARK    3  A    between atoms: C_5  and  O_62
REMARK    4  A    between atoms: C_7  and  O_61
REMARK    5  A    between atoms: C_8  and  O_11
REMARK    6  A    between atoms: O_11  and  C_12
REMARK    7  A    between atoms: C_12  and  C_13
REMARK    8  A    between atoms: C_14  and  O_60
REMARK    9  A    between atoms: C_16  and  O_59
REMARK   10  A    between atoms: C_17  and  O_58
REMARK   11  A    between atoms: C_18  and  O_21
REMARK   12  A    between atoms: O_21  and  C_22
REMARK   13  A    between atoms: C_23  and  C_50
REMARK   14  A    between atoms: C_27  and  O_34
REMARK   15  A    between atoms: C_29  and  O_33
REMARK   16  A    between atoms: O_34  and  C_35
REMARK   17  A    between atoms: C_37  and  O_49
REMARK   18  A    between atoms: C_38  and  O_48
REMARK   19  A    between atoms: C_40  and  O_47
REMARK   20  A    between atoms: C_42  and  C_44
REMARK   21  A    between atoms: C_44  and  O_46
REMARK   22  A    between atoms: C_52  and  O_57
REMARK   23  A    between atoms: C_53  and  O_56
REMARK                            x       y       z     vdW  Elec       q    Type
REMARK                         _______ _______ _______ _____ _____    ______ ____
ROOT
ATOM      1  C   UNL     1       4.871  -2.351  27.324  0.00  0.00    +0.214 A 
ATOM      2  C   UNL     1       4.071  -1.088  27.487  0.00  0.00    +0.238 A 
ATOM      3  O   UNL     1       3.031  -1.083  28.138  0.00  0.00    -0.283 OA
ATOM      4  C   UNL     1       4.657   0.130  26.848  0.00  0.00    +0.109 A 
ATOM      5  C   UNL     1       6.015   0.126  26.599  0.00  0.00    +0.147 A 
ATOM      6  C   UNL     1       6.689   1.190  25.978  0.00  0.00    +0.093 A 
ATOM      7  C   UNL     1       5.990   2.309  25.540  0.00  0.00    +0.131 A 
ATOM      8  C   UNL     1       4.610   2.349  25.808  0.00  0.00    +0.092 A 
ATOM      9  O   UNL     1       6.793  -0.931  26.950  0.00  0.00    -0.451 OA
ATOM     10  C   UNL     1       3.959   1.284  26.478  0.00  0.00    +0.135 A 
ATOM     11  C   UNL     1       6.190  -2.175  27.047  0.00  0.00    +0.181 A 
ENDROOT
BRANCH  11  12
ATOM     12  C   UNL     1       7.197  -3.232  26.769  0.00  0.00    +0.025 A 
ATOM     13  C   UNL     1       6.964  -4.560  27.143  0.00  0.00    +0.015 A 
ATOM     14  C   UNL     1       7.871  -5.570  26.822  0.00  0.00    +0.050 A 
ATOM     15  C   UNL     1       8.937  -5.291  25.976  0.00  0.00    +0.158 A 
ATOM     16  C   UNL     1       9.119  -4.002  25.492  0.00  0.00    +0.159 A 
ATOM     17  C   UNL     1       8.306  -2.965  25.937  0.00  0.00    +0.060 A 
BRANCH  16  18
ATOM     18  O   UNL     1       9.962  -3.754  24.445  0.00  0.00    -0.503 OA
ATOM     19  H   UNL     1      10.179  -2.811  24.463  0.00  0.00    +0.292 HD
ENDBRANCH  16  18
BRANCH  15  20
ATOM     20  O   UNL     1       9.762  -6.293  25.561  0.00  0.00    -0.503 OA
ATOM     21  H   UNL     1       9.629  -6.396  24.603  0.00  0.00    +0.292 HD
ENDBRANCH  15  20
ENDBRANCH  11  12
BRANCH  10  22
ATOM     22  O   UNL     1       2.617   1.381  26.703  0.00  0.00    -0.506 OA
ATOM     23  H   UNL     1       2.479   1.923  27.498  0.00  0.00    +0.292 HD
ENDBRANCH  10  22
BRANCH   7  24
ATOM     24  O   UNL     1       6.537   3.373  24.847  0.00  0.00    -0.461 OA
BRANCH  24  25
ATOM     25  C   UNL     1       6.975   3.108  23.493  0.00  0.00    +0.340 C 
ATOM     26  O   UNL     1       7.784   1.920  23.442  0.00  0.00    -0.322 OA
ATOM     27  C   UNL     1       9.036   2.124  24.127  0.00  0.00    +0.261 C 
ATOM     28  C   UNL     1       9.903   3.175  23.420  0.00  0.00    +0.185 C 
ATOM     29  C   UNL     1       9.143   4.514  23.387  0.00  0.00    +0.180 C 
ATOM     30  C   UNL     1       7.724   4.297  22.824  0.00  0.00    +0.214 C 
BRANCH  29  31
ATOM     31  O   UNL     1       9.075   5.156  24.664  0.00  0.00    -0.386 OA
ATOM     32  H   UNL     1       9.728   5.872  24.729  0.00  0.00    +0.210 HD
ENDBRANCH  29  31
BRANCH  30  33
ATOM     33  O   UNL     1       6.950   5.499  22.834  0.00  0.00    -0.383 OA
ATOM     34  H   UNL     1       7.114   5.938  23.690  0.00  0.00    +0.210 HD
ENDBRANCH  30  33
BRANCH  28  35
ATOM     35  O   UNL     1      10.159   2.751  22.075  0.00  0.00    -0.386 OA
ATOM     36  H   UNL     1       9.479   2.096  21.827  0.00  0.00    +0.210 HD
ENDBRANCH  28  35
BRANCH  27  37
ATOM     37  C   UNL     1       9.797   0.816  24.229  0.00  0.00    +0.337 C 
ATOM     38  O   UNL     1      10.026   0.085  23.271  0.00  0.00    -0.248 OA
BRANCH  37  39
ATOM     39  O   UNL     1      10.262   0.574  25.480  0.00  0.00    -0.479 OA
ATOM     40  H   UNL     1       9.609   0.046  25.957  0.00  0.00    +0.295 HD
ENDBRANCH  37  39
ENDBRANCH  27  37
ENDBRANCH  24  25
ENDBRANCH   7  24
BRANCH   1  41
ATOM     41  O   UNL     1       4.333  -3.605  27.571  0.00  0.00    -0.453 OA
BRANCH  41  44
ATOM     42  C   UNL     1       1.630  -4.626  25.123  0.00  0.00    +0.179 C 
ATOM     43  O   UNL     1       2.554  -3.808  25.887  0.00  0.00    -0.331 OA
ATOM     44  C   UNL     1       3.626  -4.435  26.607  0.00  0.00    +0.340 C 
ATOM     45  C   UNL     1       3.318  -5.811  27.257  0.00  0.00    +0.214 C 
ATOM     46  C   UNL     1       2.671  -6.710  26.208  0.00  0.00    +0.180 C 
ATOM     47  C   UNL     1       1.370  -6.044  25.732  0.00  0.00    +0.177 C 
BRANCH  47  48
ATOM     48  O   UNL     1       0.714  -6.907  24.797  0.00  0.00    -0.386 OA
ATOM     49  H   UNL     1       0.540  -7.754  25.241  0.00  0.00    +0.210 HD
ENDBRANCH  47  48
BRANCH  46  50
ATOM     50  O   UNL     1       2.416  -8.009  26.772  0.00  0.00    -0.386 OA
ATOM     51  H   UNL     1       3.212  -8.251  27.283  0.00  0.00    +0.210 HD
ENDBRANCH  46  50
BRANCH  45  52
ATOM     52  O   UNL     1       2.435  -5.765  28.395  0.00  0.00    -0.383 OA
ATOM     53  H   UNL     1       2.981  -5.925  29.209  0.00  0.00    +0.210 HD
ENDBRANCH  45  52
BRANCH  42  54
ATOM     54  C   UNL     1       1.873  -4.730  23.568  0.00  0.00    +0.197 C 
BRANCH  54  55
ATOM     55  O   UNL     1       3.034  -5.397  23.052  0.00  0.00    -0.346 OA
BRANCH  55  59
ATOM     56  C   UNL     1       5.976  -2.160  23.499  0.00  0.00    +0.041 C 
ATOM     57  C   UNL     1       5.857  -3.069  22.276  0.00  0.00    +0.149 C 
ATOM     58  O   UNL     1       4.541  -3.682  22.224  0.00  0.00    -0.343 OA
ATOM     59  C   UNL     1       4.323  -4.753  23.156  0.00  0.00    +0.282 C 
ATOM     60  C   UNL     1       5.402  -5.847  22.879  0.00  0.00    +0.201 C 
ATOM     61  C   UNL     1       6.791  -5.253  23.157  0.00  0.00    +0.179 C 
ATOM     62  C   UNL     1       7.045  -4.060  22.229  0.00  0.00    +0.174 C 
BRANCH  62  63
ATOM     63  O   UNL     1       7.281  -4.504  20.886  0.00  0.00    -0.387 OA
ATOM     64  H   UNL     1       7.771  -5.354  20.955  0.00  0.00    +0.210 HD
ENDBRANCH  62  63
BRANCH  61  65
ATOM     65  O   UNL     1       7.818  -6.247  23.032  0.00  0.00    -0.386 OA
ATOM     66  H   UNL     1       8.635  -5.799  22.740  0.00  0.00    +0.210 HD
ENDBRANCH  61  65
BRANCH  60  67
ATOM     67  O   UNL     1       5.349  -6.266  21.487  0.00  0.00    -0.384 OA
ATOM     68  H   UNL     1       4.401  -6.357  21.273  0.00  0.00    +0.210 HD
ENDBRANCH  60  67
ENDBRANCH  55  59
ENDBRANCH  54  55
ENDBRANCH  42  54
ENDBRANCH  41  44
ENDBRANCH   1  41
TORSDOF 22
ENDMDL
MODEL 7
REMARK VINA RESULT:      -6.2      2.225      8.979
REMARK  Name = 
REMARK  23 active torsions:
REMARK  status: ('A' for Active; 'I' for Inactive)
REMARK    1  A    between atoms: C_1  and  C_2
REMARK    2  A    between atoms: C_3  and  O_63
REMARK    3  A    between atoms: C_5  and  O_62
REMARK    4  A    between atoms: C_7  and  O_61
REMARK    5  A    between atoms: C_8  and  O_11
REMARK    6  A    between atoms: O_11  and  C_12
REMARK    7  A    between atoms: C_12  and  C_13
REMARK    8  A    between atoms: C_14  and  O_60
REMARK    9  A    between atoms: C_16  and  O_59
REMARK   10  A    between atoms: C_17  and  O_58
REMARK   11  A    between atoms: C_18  and  O_21
REMARK   12  A    between atoms: O_21  and  C_22
REMARK   13  A    between atoms: C_23  and  C_50
REMARK   14  A    between atoms: C_27  and  O_34
REMARK   15  A    between atoms: C_29  and  O_33
REMARK   16  A    between atoms: O_34  and  C_35
REMARK   17  A    between atoms: C_37  and  O_49
REMARK   18  A    between atoms: C_38  and  O_48
REMARK   19  A    between atoms: C_40  and  O_47
REMARK   20  A    between atoms: C_42  and  C_44
REMARK   21  A    between atoms: C_44  and  O_46
REMARK   22  A    between atoms: C_52  and  O_57
REMARK   23  A    between atoms: C_53  and  O_56
REMARK                            x       y       z     vdW  Elec       q    Type
REMARK                         _______ _______ _______ _____ _____    ______ ____
ROOT
ATOM      1  C   UNL     1       6.949  -2.156  26.364  0.00  0.00    +0.214 A 
ATOM      2  C   UNL     1       8.073  -2.106  25.367  0.00  0.00    +0.238 A 
ATOM      3  O   UNL     1       8.680  -3.125  25.053  0.00  0.00    -0.283 OA
ATOM      4  C   UNL     1       8.349  -0.761  24.777  0.00  0.00    +0.109 A 
ATOM      5  C   UNL     1       7.326   0.167  24.805  0.00  0.00    +0.147 A 
ATOM      6  C   UNL     1       7.458   1.475  24.313  0.00  0.00    +0.093 A 
ATOM      7  C   UNL     1       8.670   1.917  23.797  0.00  0.00    +0.131 A 
ATOM      8  C   UNL     1       9.719   0.982  23.731  0.00  0.00    +0.092 A 
ATOM      9  O   UNL     1       6.109  -0.143  25.322  0.00  0.00    -0.451 OA
ATOM     10  C   UNL     1       9.549  -0.346  24.190  0.00  0.00    +0.135 A 
ATOM     11  C   UNL     1       6.044  -1.145  26.276  0.00  0.00    +0.181 A 
ENDROOT
BRANCH  11  12
ATOM     12  C   UNL     1       4.881  -0.902  27.167  0.00  0.00    +0.025 A 
ATOM     13  C   UNL     1       5.054  -0.338  28.435  0.00  0.00    +0.015 A 
ATOM     14  C   UNL     1       3.961  -0.040  29.249  0.00  0.00    +0.050 A 
ATOM     15  C   UNL     1       2.674  -0.146  28.734  0.00  0.00    +0.158 A 
ATOM     16  C   UNL     1       2.483  -0.588  27.432  0.00  0.00    +0.159 A 
ATOM     17  C   UNL     1       3.563  -1.031  26.677  0.00  0.00    +0.060 A 
BRANCH  16  18
ATOM     18  O   UNL     1       1.280  -0.426  26.802  0.00  0.00    -0.503 OA
ATOM     19  H   UNL     1       1.114   0.525  26.733  0.00  0.00    +0.292 HD
ENDBRANCH  16  18
BRANCH  15  20
ATOM     20  O   UNL     1       1.604   0.253  29.479  0.00  0.00    -0.503 OA
ATOM     21  H   UNL     1       1.657   1.221  29.561  0.00  0.00    +0.292 HD
ENDBRANCH  15  20
ENDBRANCH  11  12
BRANCH  10  22
ATOM     22  O   UNL     1      10.607  -1.204  24.104  0.00  0.00    -0.506 OA
ATOM     23  H   UNL     1      10.273  -2.072  23.819  0.00  0.00    +0.292 HD
ENDBRANCH  10  22
BRANCH   7  24
ATOM     24  O   UNL     1       8.934   3.203  23.363  0.00  0.00    -0.461 OA
BRANCH  24  25
ATOM     25  C   UNL     1       9.220   4.187  24.385  0.00  0.00    +0.340 C 
ATOM     26  O   UNL     1       8.122   4.296  25.308  0.00  0.00    -0.322 OA
ATOM     27  C   UNL     1       6.966   4.865  24.662  0.00  0.00    +0.261 C 
ATOM     28  C   UNL     1       7.214   6.317  24.231  0.00  0.00    +0.185 C 
ATOM     29  C   UNL     1       8.393   6.352  23.240  0.00  0.00    +0.180 C 
ATOM     30  C   UNL     1       9.596   5.591  23.829  0.00  0.00    +0.214 C 
BRANCH  29  31
ATOM     31  O   UNL     1       8.060   5.829  21.950  0.00  0.00    -0.386 OA
ATOM     32  H   UNL     1       8.843   5.793  21.376  0.00  0.00    +0.210 HD
ENDBRANCH  29  31
BRANCH  30  33
ATOM     33  O   UNL     1      10.697   5.535  22.918  0.00  0.00    -0.383 OA
ATOM     34  H   UNL     1      11.447   5.135  23.398  0.00  0.00    +0.210 HD
ENDBRANCH  30  33
BRANCH  28  35
ATOM     35  O   UNL     1       7.551   7.102  25.382  0.00  0.00    -0.386 OA
ATOM     36  H   UNL     1       8.183   7.793  25.105  0.00  0.00    +0.210 HD
ENDBRANCH  28  35
BRANCH  27  37
ATOM     37  C   UNL     1       5.765   4.803  25.587  0.00  0.00    +0.337 C 
ATOM     38  O   UNL     1       5.732   5.327  26.696  0.00  0.00    -0.248 OA
BRANCH  37  39
ATOM     39  O   UNL     1       4.703   4.170  25.029  0.00  0.00    -0.479 OA
ATOM     40  H   UNL     1       4.977   3.286  24.757  0.00  0.00    +0.295 HD
ENDBRANCH  37  39
ENDBRANCH  27  37
ENDBRANCH  24  25
ENDBRANCH   7  24
BRANCH   1  41
ATOM     41  O   UNL     1       6.770  -3.229  27.226  0.00  0.00    -0.453 OA
BRANCH  41  44
ATOM     42  C   UNL     1       3.629  -5.247  26.595  0.00  0.00    +0.179 C 
ATOM     43  O   UNL     1       4.581  -4.152  26.594  0.00  0.00    -0.331 OA
ATOM     44  C   UNL     1       5.944  -4.399  26.970  0.00  0.00    +0.340 C 
ATOM     45  C   UNL     1       6.179  -5.438  28.100  0.00  0.00    +0.214 C 
ATOM     46  C   UNL     1       5.391  -6.702  27.770  0.00  0.00    +0.180 C 
ATOM     47  C   UNL     1       3.901  -6.337  27.684  0.00  0.00    +0.177 C 
BRANCH  47  48
ATOM     48  O   UNL     1       3.138  -7.525  27.443  0.00  0.00    -0.386 OA
ATOM     49  H   UNL     1       2.922  -7.923  28.303  0.00  0.00    +0.210 HD
ENDBRANCH  47  48
BRANCH  46  50
ATOM     50  O   UNL     1       5.627  -7.698  28.780  0.00  0.00    -0.386 OA
ATOM     51  H   UNL     1       6.148  -7.264  29.483  0.00  0.00    +0.210 HD
ENDBRANCH  46  50
BRANCH  45  52
ATOM     52  O   UNL     1       5.780  -5.008  29.416  0.00  0.00    -0.383 OA
ATOM     53  H   UNL     1       5.922  -5.768  30.040  0.00  0.00    +0.210 HD
ENDBRANCH  45  52
BRANCH  42  54
ATOM     54  C   UNL     1       3.305  -5.923  25.206  0.00  0.00    +0.197 C 
BRANCH  54  55
ATOM     55  O   UNL     1       3.343  -5.158  23.993  0.00  0.00    -0.346 OA
BRANCH  55  59
ATOM     56  C   UNL     1       6.148  -2.248  22.261  0.00  0.00    +0.041 C 
ATOM     57  C   UNL     1       5.896  -3.652  21.712  0.00  0.00    +0.149 C 
ATOM     58  O   UNL     1       4.620  -4.161  22.184  0.00  0.00    -0.343 OA
ATOM     59  C   UNL     1       4.599  -4.594  23.554  0.00  0.00    +0.282 C 
ATOM     60  C   UNL     1       5.680  -5.709  23.714  0.00  0.00    +0.201 C 
ATOM     61  C   UNL     1       7.062  -5.101  23.432  0.00  0.00    +0.179 C 
ATOM     62  C   UNL     1       7.114  -4.564  21.998  0.00  0.00    +0.174 C 
BRANCH  62  63
ATOM     63  O   UNL     1       7.171  -5.643  21.054  0.00  0.00    -0.387 OA
ATOM     64  H   UNL     1       6.809  -6.434  21.512  0.00  0.00    +0.210 HD
ENDBRANCH  62  63
BRANCH  61  65
ATOM     65  O   UNL     1       8.109  -6.051  23.678  0.00  0.00    -0.386 OA
ATOM     66  H   UNL     1       8.605  -5.754  24.464  0.00  0.00    +0.210 HD
ENDBRANCH  61  65
BRANCH  60  67
ATOM     67  O   UNL     1       5.443  -6.781  22.761  0.00  0.00    -0.384 OA
ATOM     68  H   UNL     1       5.046  -6.357  21.977  0.00  0.00    +0.210 HD
ENDBRANCH  60  67
ENDBRANCH  55  59
ENDBRANCH  54  55
ENDBRANCH  42  54
ENDBRANCH  41  44
ENDBRANCH   1  41
TORSDOF 22
ENDMDL
MODEL 8
REMARK VINA RESULT:      -6.0      1.979      5.474
REMARK  Name = 
REMARK  23 active torsions:
REMARK  status: ('A' for Active; 'I' for Inactive)
REMARK    1  A    between atoms: C_1  and  C_2
REMARK    2  A    between atoms: C_3  and  O_63
REMARK    3  A    between atoms: C_5  and  O_62
REMARK    4  A    between atoms: C_7  and  O_61
REMARK    5  A    between atoms: C_8  and  O_11
REMARK    6  A    between atoms: O_11  and  C_12
REMARK    7  A    between atoms: C_12  and  C_13
REMARK    8  A    between atoms: C_14  and  O_60
REMARK    9  A    between atoms: C_16  and  O_59
REMARK   10  A    between atoms: C_17  and  O_58
REMARK   11  A    between atoms: C_18  and  O_21
REMARK   12  A    between atoms: O_21  and  C_22
REMARK   13  A    between atoms: C_23  and  C_50
REMARK   14  A    between atoms: C_27  and  O_34
REMARK   15  A    between atoms: C_29  and  O_33
REMARK   16  A    between atoms: O_34  and  C_35
REMARK   17  A    between atoms: C_37  and  O_49
REMARK   18  A    between atoms: C_38  and  O_48
REMARK   19  A    between atoms: C_40  and  O_47
REMARK   20  A    between atoms: C_42  and  C_44
REMARK   21  A    between atoms: C_44  and  O_46
REMARK   22  A    between atoms: C_52  and  O_57
REMARK   23  A    between atoms: C_53  and  O_56
REMARK                            x       y       z     vdW  Elec       q    Type
REMARK                         _______ _______ _______ _____ _____    ______ ____
ROOT
ATOM      1  C   UNL     1       7.065  -0.242  23.415  0.00  0.00    +0.214 A 
ATOM      2  C   UNL     1       7.581  -1.568  22.926  0.00  0.00    +0.238 A 
ATOM      3  O   UNL     1       8.134  -1.662  21.835  0.00  0.00    -0.283 OA
ATOM      4  C   UNL     1       7.409  -2.712  23.872  0.00  0.00    +0.109 A 
ATOM      5  C   UNL     1       7.255  -2.413  25.211  0.00  0.00    +0.147 A 
ATOM      6  C   UNL     1       7.055  -3.387  26.201  0.00  0.00    +0.093 A 
ATOM      7  C   UNL     1       6.963  -4.732  25.861  0.00  0.00    +0.131 A 
ATOM      8  C   UNL     1       7.146  -5.065  24.506  0.00  0.00    +0.092 A 
ATOM      9  O   UNL     1       7.289  -1.129  25.654  0.00  0.00    -0.451 OA
ATOM     10  C   UNL     1       7.392  -4.069  23.531  0.00  0.00    +0.135 A 
ATOM     11  C   UNL     1       6.940  -0.126  24.764  0.00  0.00    +0.181 A 
ENDROOT
BRANCH  11  12
ATOM     12  C   UNL     1       6.395   1.032  25.518  0.00  0.00    +0.025 A 
ATOM     13  C   UNL     1       5.015   1.228  25.632  0.00  0.00    +0.015 A 
ATOM     14  C   UNL     1       4.494   2.271  26.398  0.00  0.00    +0.050 A 
ATOM     15  C   UNL     1       5.345   3.027  27.196  0.00  0.00    +0.158 A 
ATOM     16  C   UNL     1       6.709   2.769  27.192  0.00  0.00    +0.159 A 
ATOM     17  C   UNL     1       7.243   1.834  26.312  0.00  0.00    +0.060 A 
BRANCH  16  18
ATOM     18  O   UNL     1       7.525   3.280  28.162  0.00  0.00    -0.503 OA
ATOM     19  H   UNL     1       8.440   3.138  27.877  0.00  0.00    +0.292 HD
ENDBRANCH  16  18
BRANCH  15  20
ATOM     20  O   UNL     1       4.835   3.971  28.036  0.00  0.00    -0.503 OA
ATOM     21  H   UNL     1       4.800   4.807  27.541  0.00  0.00    +0.292 HD
ENDBRANCH  15  20
ENDBRANCH  11  12
BRANCH  10  22
ATOM     22  O   UNL     1       7.555  -4.456  22.233  0.00  0.00    -0.506 OA
ATOM     23  H   UNL     1       6.813  -4.102  21.713  0.00  0.00    +0.292 HD
ENDBRANCH  10  22
BRANCH   7  24
ATOM     24  O   UNL     1       6.688  -5.763  26.740  0.00  0.00    -0.461 OA
BRANCH  24  25
ATOM     25  C   UNL     1       5.346  -6.305  26.704  0.00  0.00    +0.340 C 
ATOM     26  O   UNL     1       4.412  -5.321  26.229  0.00  0.00    -0.322 OA
ATOM     27  C   UNL     1       4.273  -4.246  27.180  0.00  0.00    +0.261 C 
ATOM     28  C   UNL     1       3.644  -4.730  28.494  0.00  0.00    +0.185 C 
ATOM     29  C   UNL     1       4.545  -5.815  29.113  0.00  0.00    +0.180 C 
ATOM     30  C   UNL     1       4.863  -6.895  28.060  0.00  0.00    +0.214 C 
BRANCH  29  31
ATOM     31  O   UNL     1       5.757  -5.293  29.667  0.00  0.00    -0.386 OA
ATOM     32  H   UNL     1       6.501  -5.414  29.054  0.00  0.00    +0.210 HD
ENDBRANCH  29  31
BRANCH  30  33
ATOM     33  O   UNL     1       5.753  -7.894  28.565  0.00  0.00    -0.383 OA
ATOM     34  H   UNL     1       5.352  -8.762  28.368  0.00  0.00    +0.210 HD
ENDBRANCH  30  33
BRANCH  28  35
ATOM     35  O   UNL     1       2.355  -5.294  28.223  0.00  0.00    -0.386 OA
ATOM     36  H   UNL     1       2.456  -5.957  27.513  0.00  0.00    +0.210 HD
ENDBRANCH  28  35
BRANCH  27  37
ATOM     37  C   UNL     1       3.435  -3.129  26.591  0.00  0.00    +0.337 C 
ATOM     38  O   UNL     1       2.603  -2.492  27.230  0.00  0.00    -0.248 OA
BRANCH  37  39
ATOM     39  O   UNL     1       3.751  -2.856  25.300  0.00  0.00    -0.479 OA
ATOM     40  H   UNL     1       4.624  -2.446  25.275  0.00  0.00    +0.295 HD
ENDBRANCH  37  39
ENDBRANCH  27  37
ENDBRANCH  24  25
ENDBRANCH   7  24
BRANCH   1  41
ATOM     41  O   UNL     1       6.858   0.832  22.563  0.00  0.00    -0.453 OA
BRANCH  41  44
ATOM     42  C   UNL     1       6.573   4.598  22.282  0.00  0.00    +0.179 C 
ATOM     43  O   UNL     1       6.235   3.188  22.234  0.00  0.00    -0.331 OA
ATOM     44  C   UNL     1       7.086   2.233  22.886  0.00  0.00    +0.340 C 
ATOM     45  C   UNL     1       8.612   2.517  22.846  0.00  0.00    +0.214 C 
ATOM     46  C   UNL     1       8.850   3.958  23.287  0.00  0.00    +0.180 C 
ATOM     47  C   UNL     1       8.110   4.892  22.316  0.00  0.00    +0.177 C 
BRANCH  47  48
ATOM     48  O   UNL     1       8.378   6.252  22.674  0.00  0.00    -0.386 OA
ATOM     49  H   UNL     1       8.670   6.721  21.874  0.00  0.00    +0.210 HD
ENDBRANCH  47  48
BRANCH  46  50
ATOM     50  O   UNL     1      10.262   4.234  23.301  0.00  0.00    -0.386 OA
ATOM     51  H   UNL     1      10.659   3.690  22.594  0.00  0.00    +0.210 HD
ENDBRANCH  46  50
BRANCH  45  52
ATOM     52  O   UNL     1       9.230   2.349  21.555  0.00  0.00    -0.383 OA
ATOM     53  H   UNL     1       9.816   1.549  21.601  0.00  0.00    +0.210 HD
ENDBRANCH  45  52
BRANCH  42  54
ATOM     54  C   UNL     1       5.818   5.485  23.347  0.00  0.00    +0.197 C 
BRANCH  54  55
ATOM     55  O   UNL     1       4.622   6.193  22.993  0.00  0.00    -0.346 OA
BRANCH  55  59
ATOM     56  C   UNL     1       1.321   4.396  25.275  0.00  0.00    +0.041 C 
ATOM     57  C   UNL     1       2.113   3.685  24.177  0.00  0.00    +0.149 C 
ATOM     58  O   UNL     1       3.393   4.340  23.968  0.00  0.00    -0.343 OA
ATOM     59  C   UNL     1       3.338   5.584  23.251  0.00  0.00    +0.282 C 
ATOM     60  C   UNL     1       2.682   5.299  21.862  0.00  0.00    +0.201 C 
ATOM     61  C   UNL     1       1.240   4.819  22.087  0.00  0.00    +0.179 C 
ATOM     62  C   UNL     1       1.242   3.525  22.908  0.00  0.00    +0.174 C 
BRANCH  62  63
ATOM     63  O   UNL     1       1.701   2.422  22.114  0.00  0.00    -0.387 OA
ATOM     64  H   UNL     1       2.538   2.713  21.688  0.00  0.00    +0.210 HD
ENDBRANCH  62  63
BRANCH  61  65
ATOM     65  O   UNL     1       0.546   4.653  20.842  0.00  0.00    -0.386 OA
ATOM     66  H   UNL     1       0.777   3.774  20.485  0.00  0.00    +0.210 HD
ENDBRANCH  61  65
BRANCH  60  67
ATOM     67  O   UNL     1       3.414   4.256  21.164  0.00  0.00    -0.384 OA
ATOM     68  H   UNL     1       3.574   4.600  20.264  0.00  0.00    +0.210 HD
ENDBRANCH  60  67
ENDBRANCH  55  59
ENDBRANCH  54  55
ENDBRANCH  42  54
ENDBRANCH  41  44
ENDBRANCH   1  41
TORSDOF 22
ENDMDL
MODEL 9
REMARK VINA RESULT:      -5.9      2.104      9.184
REMARK  Name = 
REMARK  23 active torsions:
REMARK  status: ('A' for Active; 'I' for Inactive)
REMARK    1  A    between atoms: C_1  and  C_2
REMARK    2  A    between atoms: C_3  and  O_63
REMARK    3  A    between atoms: C_5  and  O_62
REMARK    4  A    between atoms: C_7  and  O_61
REMARK    5  A    between atoms: C_8  and  O_11
REMARK    6  A    between atoms: O_11  and  C_12
REMARK    7  A    between atoms: C_12  and  C_13
REMARK    8  A    between atoms: C_14  and  O_60
REMARK    9  A    between atoms: C_16  and  O_59
REMARK   10  A    between atoms: C_17  and  O_58
REMARK   11  A    between atoms: C_18  and  O_21
REMARK   12  A    between atoms: O_21  and  C_22
REMARK   13  A    between atoms: C_23  and  C_50
REMARK   14  A    between atoms: C_27  and  O_34
REMARK   15  A    between atoms: C_29  and  O_33
REMARK   16  A    between atoms: O_34  and  C_35
REMARK   17  A    between atoms: C_37  and  O_49
REMARK   18  A    between atoms: C_38  and  O_48
REMARK   19  A    between atoms: C_40  and  O_47
REMARK   20  A    between atoms: C_42  and  C_44
REMARK   21  A    between atoms: C_44  and  O_46
REMARK   22  A    between atoms: C_52  and  O_57
REMARK   23  A    between atoms: C_53  and  O_56
REMARK                            x       y       z     vdW  Elec       q    Type
REMARK                         _______ _______ _______ _____ _____    ______ ____
ROOT
ATOM      1  C   UNL     1       6.106  -1.377  26.737  0.00  0.00    +0.214 A 
ATOM      2  C   UNL     1       5.083  -0.664  27.578  0.00  0.00    +0.238 A 
ATOM      3  O   UNL     1       4.748  -1.111  28.670  0.00  0.00    -0.283 OA
ATOM      4  C   UNL     1       4.561   0.615  27.008  0.00  0.00    +0.109 A 
ATOM      5  C   UNL     1       5.344   1.260  26.070  0.00  0.00    +0.147 A 
ATOM      6  C   UNL     1       4.962   2.451  25.434  0.00  0.00    +0.093 A 
ATOM      7  C   UNL     1       3.727   3.030  25.702  0.00  0.00    +0.131 A 
ATOM      8  C   UNL     1       2.924   2.408  26.675  0.00  0.00    +0.092 A 
ATOM      9  O   UNL     1       6.554   0.764  25.703  0.00  0.00    -0.451 OA
ATOM     10  C   UNL     1       3.350   1.232  27.338  0.00  0.00    +0.135 A 
ATOM     11  C   UNL     1       6.764  -0.599  25.836  0.00  0.00    +0.181 A 
ENDROOT
BRANCH  11  12
ATOM     12  C   UNL     1       7.768  -1.042  24.834  0.00  0.00    +0.025 A 
ATOM     13  C   UNL     1       8.305  -0.138  23.910  0.00  0.00    +0.015 A 
ATOM     14  C   UNL     1       9.301  -0.528  23.014  0.00  0.00    +0.050 A 
ATOM     15  C   UNL     1       9.891  -1.780  23.146  0.00  0.00    +0.158 A 
ATOM     16  C   UNL     1       9.456  -2.649  24.138  0.00  0.00    +0.159 A 
ATOM     17  C   UNL     1       8.360  -2.320  24.928  0.00  0.00    +0.060 A 
BRANCH  16  18
ATOM     18  O   UNL     1      10.193  -3.747  24.485  0.00  0.00    -0.503 OA
ATOM     19  H   UNL     1      11.125  -3.528  24.343  0.00  0.00    +0.292 HD
ENDBRANCH  16  18
BRANCH  15  20
ATOM     20  O   UNL     1      10.943  -2.128  22.353  0.00  0.00    -0.503 OA
ATOM     21  H   UNL     1      11.234  -1.322  21.895  0.00  0.00    +0.292 HD
ENDBRANCH  15  20
ENDBRANCH  11  12
BRANCH  10  22
ATOM     22  O   UNL     1       2.522   0.674  28.268  0.00  0.00    -0.506 OA
ATOM     23  H   UNL     1       1.605   0.900  28.036  0.00  0.00    +0.292 HD
ENDBRANCH  10  22
BRANCH   7  24
ATOM     24  O   UNL     1       3.217   4.153  25.076  0.00  0.00    -0.461 OA
BRANCH  24  25
ATOM     25  C   UNL     1       3.162   4.121  23.629  0.00  0.00    +0.340 C 
ATOM     26  O   UNL     1       4.437   4.473  23.064  0.00  0.00    -0.322 OA
ATOM     27  C   UNL     1       4.745   5.857  23.319  0.00  0.00    +0.261 C 
ATOM     28  C   UNL     1       3.766   6.798  22.604  0.00  0.00    +0.185 C 
ATOM     29  C   UNL     1       2.338   6.515  23.108  0.00  0.00    +0.180 C 
ATOM     30  C   UNL     1       2.039   5.006  23.016  0.00  0.00    +0.214 C 
BRANCH  29  31
ATOM     31  O   UNL     1       2.107   6.985  24.440  0.00  0.00    -0.386 OA
ATOM     32  H   UNL     1       1.921   6.246  25.043  0.00  0.00    +0.210 HD
ENDBRANCH  29  31
BRANCH  30  33
ATOM     33  O   UNL     1       0.748   4.679  23.537  0.00  0.00    -0.383 OA
ATOM     34  H   UNL     1       0.888   4.232  24.393  0.00  0.00    +0.210 HD
ENDBRANCH  30  33
BRANCH  28  35
ATOM     35  O   UNL     1       3.818   6.551  21.192  0.00  0.00    -0.386 OA
ATOM     36  H   UNL     1       4.062   7.385  20.746  0.00  0.00    +0.210 HD
ENDBRANCH  28  35
BRANCH  27  37
ATOM     37  C   UNL     1       6.164   6.168  22.885  0.00  0.00    +0.337 C 
ATOM     38  O   UNL     1       6.882   6.993  23.442  0.00  0.00    -0.248 OA
BRANCH  37  39
ATOM     39  O   UNL     1       6.585   5.384  21.860  0.00  0.00    -0.479 OA
ATOM     40  H   UNL     1       6.263   4.486  22.004  0.00  0.00    +0.295 HD
ENDBRANCH  37  39
ENDBRANCH  27  37
ENDBRANCH  24  25
ENDBRANCH   7  24
BRANCH   1  41
ATOM     41  O   UNL     1       6.451  -2.702  26.954  0.00  0.00    -0.453 OA
BRANCH  41  44
ATOM     42  C   UNL     1       3.288  -4.742  26.537  0.00  0.00    +0.179 C 
ATOM     43  O   UNL     1       4.206  -3.619  26.546  0.00  0.00    -0.331 OA
ATOM     44  C   UNL     1       5.617  -3.859  26.663  0.00  0.00    +0.340 C 
ATOM     45  C   UNL     1       6.050  -5.035  27.580  0.00  0.00    +0.214 C 
ATOM     46  C   UNL     1       5.244  -6.272  27.198  0.00  0.00    +0.180 C 
ATOM     47  C   UNL     1       3.753  -5.962  27.401  0.00  0.00    +0.177 C 
BRANCH  47  48
ATOM     48  O   UNL     1       2.984  -7.135  27.112  0.00  0.00    -0.386 OA
ATOM     49  H   UNL     1       3.529  -7.911  27.325  0.00  0.00    +0.210 HD
ENDBRANCH  47  48
BRANCH  46  50
ATOM     50  O   UNL     1       5.659  -7.390  28.003  0.00  0.00    -0.386 OA
ATOM     51  H   UNL     1       5.930  -7.025  28.867  0.00  0.00    +0.210 HD
ENDBRANCH  46  50
BRANCH  45  52
ATOM     52  O   UNL     1       5.861  -4.811  28.990  0.00  0.00    -0.383 OA
ATOM     53  H   UNL     1       6.391  -4.010  29.244  0.00  0.00    +0.210 HD
ENDBRANCH  45  52
BRANCH  42  54
ATOM     54  C   UNL     1       2.758  -5.230  25.133  0.00  0.00    +0.197 C 
BRANCH  54  55
ATOM     55  O   UNL     1       3.642  -5.864  24.198  0.00  0.00    -0.346 OA
BRANCH  55  59
ATOM     56  C   UNL     1       5.786  -2.553  22.256  0.00  0.00    +0.041 C 
ATOM     57  C   UNL     1       5.699  -3.977  21.709  0.00  0.00    +0.149 C 
ATOM     58  O   UNL     1       4.568  -4.678  22.292  0.00  0.00    -0.343 OA
ATOM     59  C   UNL     1       4.747  -5.113  23.650  0.00  0.00    +0.282 C 
ATOM     60  C   UNL     1       5.996  -6.049  23.686  0.00  0.00    +0.201 C 
ATOM     61  C   UNL     1       7.235  -5.235  23.283  0.00  0.00    +0.179 C 
ATOM     62  C   UNL     1       7.064  -4.692  21.860  0.00  0.00    +0.174 C 
BRANCH  62  63
ATOM     63  O   UNL     1       7.193  -5.746  20.896  0.00  0.00    -0.387 OA
ATOM     64  H   UNL     1       7.935  -5.492  20.303  0.00  0.00    +0.210 HD
ENDBRANCH  62  63
BRANCH  61  65
ATOM     65  O   UNL     1       8.434  -6.013  23.410  0.00  0.00    -0.386 OA
ATOM     66  H   UNL     1       8.228  -6.928  23.140  0.00  0.00    +0.210 HD
ENDBRANCH  61  65
BRANCH  60  67
ATOM     67  O   UNL     1       5.834  -7.142  22.741  0.00  0.00    -0.384 OA
ATOM     68  H   UNL     1       6.388  -6.912  21.971  0.00  0.00    +0.210 HD
ENDBRANCH  60  67
ENDBRANCH  55  59
ENDBRANCH  54  55
ENDBRANCH  42  54
ENDBRANCH  41  44
ENDBRANCH   1  41
TORSDOF 22
ENDMDL
