MODEL 1
REMARK VINA RESULT:      -6.7      0.000      0.000
REMARK  Name = 
REMARK  27 active torsions:
REMARK  status: ('A' for Active; 'I' for Inactive)
REMARK    1  A    between atoms: C_1  and  O_2
REMARK    2  A    between atoms: O_2  and  C_3
REMARK    3  A    between atoms: C_5  and  C_12
REMARK    4  A    between atoms: C_7  and  O_10
REMARK    5  A    between atoms: C_8  and  O_9
REMARK    6  A    between atoms: O_10  and  C_11
REMARK    7  A    between atoms: C_13  and  C_14
REMARK    8  A    between atoms: C_14  and  O_16
REMARK    9  A    between atoms: O_16  and  C_17
REMARK   10  A    between atoms: C_17  and  C_18
REMARK   11  A    between atoms: C_19  and  O_66
REMARK   12  A    between atoms: C_21  and  O_65
REMARK   13  A    between atoms: C_23  and  O_50
REMARK   14  A    between atoms: C_24  and  O_27
REMARK   15  A    between atoms: O_27  and  C_28
REMARK   16  A    between atoms: C_29  and  C_41
REMARK   17  A    between atoms: C_33  and  O_40
REMARK   18  A    between atoms: C_35  and  O_39
REMARK   19  A    between atoms: C_43  and  O_48
REMARK   20  A    between atoms: C_44  and  O_47
REMARK   21  A    between atoms: O_48  and  C_49
REMARK   22  A    between atoms: O_50  and  C_51
REMARK   23  A    between atoms: C_53  and  O_64
REMARK   24  A    between atoms: C_54  and  O_63
REMARK   25  A    between atoms: C_56  and  O_62
REMARK   26  A    between atoms: C_58  and  C_60
REMARK   27  A    between atoms: C_60  and  O_61
REMARK                            x       y       z     vdW  Elec       q    Type
REMARK                         _______ _______ _______ _____ _____    ______ ____
ROOT
ATOM      1  C   UNL     1       8.691  -3.175  23.865  0.00  0.00    +0.191 C 
ATOM      2  O   UNL     1       7.612  -2.241  24.091  0.00  0.00    -0.330 OA
ATOM      3  C   UNL     1       7.384  -1.718  25.415  0.00  0.00    +0.340 C 
ATOM      4  C   UNL     1       7.682  -2.751  26.610  0.00  0.00    +0.221 C 
ATOM      5  C   UNL     1       8.833  -3.720  26.268  0.00  0.00    +0.180 C 
ATOM      6  C   UNL     1       8.635  -4.320  24.879  0.00  0.00    +0.178 C 
ENDROOT
BRANCH   6   7
ATOM      7  O   UNL     1       9.676  -5.290  24.677  0.00  0.00    -0.386 OA
ATOM      8  H   UNL     1       9.273  -6.178  24.708  0.00  0.00    +0.210 HD
ENDBRANCH   6   7
BRANCH   5   9
ATOM      9  O   UNL     1       9.064  -4.788  27.189  0.00  0.00    -0.386 OA
ATOM     10  H   UNL     1       9.851  -4.524  27.713  0.00  0.00    +0.210 HD
ENDBRANCH   5   9
BRANCH   4  11
ATOM     11  O   UNL     1       6.501  -3.426  27.113  0.00  0.00    -0.337 OA
BRANCH  11  12
ATOM     12  C   UNL     1       6.058  -4.581  26.352  0.00  0.00    +0.282 C 
ATOM     13  O   UNL     1       4.937  -4.209  25.529  0.00  0.00    -0.341 OA
ATOM     14  C   UNL     1       3.741  -3.889  26.256  0.00  0.00    +0.178 C 
ATOM     15  C   UNL     1       3.314  -5.007  27.238  0.00  0.00    +0.177 C 
ATOM     16  C   UNL     1       4.491  -5.490  28.090  0.00  0.00    +0.179 C 
ATOM     17  C   UNL     1       5.668  -5.843  27.173  0.00  0.00    +0.201 C 
BRANCH  17  18
ATOM     18  O   UNL     1       6.728  -6.452  27.924  0.00  0.00    -0.384 OA
ATOM     19  H   UNL     1       7.207  -5.733  28.374  0.00  0.00    +0.210 HD
ENDBRANCH  17  18
BRANCH  16  20
ATOM     20  O   UNL     1       4.873  -4.552  29.099  0.00  0.00    -0.386 OA
ATOM     21  H   UNL     1       4.744  -3.639  28.750  0.00  0.00    +0.210 HD
ENDBRANCH  16  20
BRANCH  15  22
ATOM     22  O   UNL     1       2.790  -6.130  26.511  0.00  0.00    -0.386 OA
ATOM     23  H   UNL     1       2.007  -5.840  26.010  0.00  0.00    +0.210 HD
ENDBRANCH  15  22
BRANCH  14  24
ATOM     24  C   UNL     1       2.635  -3.611  25.219  0.00  0.00    +0.190 C 
BRANCH  24  25
ATOM     25  O   UNL     1       2.592  -4.599  24.183  0.00  0.00    -0.392 OA
ATOM     26  H   UNL     1       1.658  -4.826  24.034  0.00  0.00    +0.210 HD
ENDBRANCH  24  25
ENDBRANCH  14  24
ENDBRANCH  11  12
ENDBRANCH   4  11
BRANCH   3  27
ATOM     27  O   UNL     1       6.035  -1.153  25.592  0.00  0.00    -0.453 OA
BRANCH  27  28
ATOM     28  C   UNL     1       5.656   0.181  25.737  0.00  0.00    +0.214 A 
ATOM     29  C   UNL     1       5.831   1.073  24.502  0.00  0.00    +0.238 A 
ATOM     30  O   UNL     1       6.262   0.567  23.455  0.00  0.00    -0.283 OA
ATOM     31  C   UNL     1       5.391   2.505  24.571  0.00  0.00    +0.109 A 
ATOM     32  C   UNL     1       4.870   2.957  25.778  0.00  0.00    +0.147 A 
ATOM     33  C   UNL     1       4.436   4.281  25.960  0.00  0.00    +0.092 A 
ATOM     34  C   UNL     1       4.512   5.176  24.908  0.00  0.00    +0.124 A 
ATOM     35  C   UNL     1       5.001   4.761  23.676  0.00  0.00    +0.091 A 
ATOM     36  O   UNL     1       4.699   2.141  26.853  0.00  0.00    -0.451 OA
ATOM     37  C   UNL     1       5.434   3.431  23.507  0.00  0.00    +0.135 A 
ATOM     38  C   UNL     1       4.994   0.805  26.741  0.00  0.00    +0.181 A 
BRANCH  38  39
ATOM     39  C   UNL     1       4.237   0.065  27.731  0.00  0.00    +0.025 A 
ATOM     40  C   UNL     1       4.761  -0.316  28.947  0.00  0.00    +0.015 A 
ATOM     41  C   UNL     1       4.025  -1.216  29.704  0.00  0.00    +0.050 A 
ATOM     42  C   UNL     1       2.814  -1.750  29.243  0.00  0.00    +0.158 A 
ATOM     43  C   UNL     1       2.203  -1.217  28.117  0.00  0.00    +0.162 A 
ATOM     44  C   UNL     1       2.920  -0.272  27.391  0.00  0.00    +0.061 A 
BRANCH  43  45
ATOM     45  O   UNL     1       0.983  -1.433  27.562  0.00  0.00    -0.491 OA
ATOM     46  C   UNL     1       0.445  -0.583  26.575  0.00  0.00    +0.277 C 
ENDBRANCH  43  45
BRANCH  42  47
ATOM     47  O   UNL     1       2.360  -2.809  29.968  0.00  0.00    -0.503 OA
ATOM     48  H   UNL     1       1.870  -3.394  29.372  0.00  0.00    +0.292 HD
ENDBRANCH  42  47
ENDBRANCH  38  39
BRANCH  37  49
ATOM     49  O   UNL     1       5.893   3.069  22.269  0.00  0.00    -0.506 OA
ATOM     50  H   UNL     1       5.228   2.520  21.818  0.00  0.00    +0.292 HD
ENDBRANCH  37  49
BRANCH  34  51
ATOM     51  O   UNL     1       4.094   6.472  25.032  0.00  0.00    -0.507 OA
ATOM     52  H   UNL     1       3.739   6.768  24.173  0.00  0.00    +0.292 HD
ENDBRANCH  34  51
ENDBRANCH  27  28
ENDBRANCH   3  27
BRANCH   1  53
ATOM     53  C   UNL     1      10.148  -2.625  23.821  0.00  0.00    +0.266 C 
BRANCH  53  54
ATOM     54  O   UNL     1      10.279  -1.234  23.535  0.00  0.00    -0.459 OA
BRANCH  54  55
ATOM     55  C   UNL     1      10.041  -0.815  22.272  0.00  0.00    +0.332 C 
ATOM     56  O   UNL     1       9.961  -1.499  21.287  0.00  0.00    -0.246 OA
BRANCH  55  58
ATOM     57  C   UNL     1      10.081   1.310  23.505  0.00  0.00    +0.015 C 
ATOM     58  C   UNL     1       9.955   0.657  22.345  0.00  0.00    +0.092 C 
BRANCH  57  63
ATOM     59  C   UNL     1       9.244   4.865  24.356  0.00  0.00    +0.166 A 
ATOM     60  C   UNL     1      10.486   5.511  24.150  0.00  0.00    +0.201 A 
ATOM     61  C   UNL     1      11.567   4.800  23.620  0.00  0.00    +0.166 A 
ATOM     62  C   UNL     1      11.393   3.432  23.354  0.00  0.00    +0.057 A 
ATOM     63  C   UNL     1      10.180   2.771  23.587  0.00  0.00    -0.018 A 
ATOM     64  C   UNL     1       9.094   3.509  24.048  0.00  0.00    +0.057 A 
BRANCH  59  66
ATOM     65  C   UNL     1       7.952   5.511  26.233  0.00  0.00    +0.277 C 
ATOM     66  O   UNL     1       8.210   5.635  24.837  0.00  0.00    -0.491 OA
ENDBRANCH  59  66
BRANCH  61  67
ATOM     67  O   UNL     1      12.840   5.186  23.318  0.00  0.00    -0.491 OA
ATOM     68  C   UNL     1      13.216   5.614  22.027  0.00  0.00    +0.277 C 
ENDBRANCH  61  67
BRANCH  60  69
ATOM     69  O   UNL     1      10.546   6.822  24.544  0.00  0.00    -0.501 OA
ATOM     70  H   UNL     1      11.305   7.249  24.136  0.00  0.00    +0.292 HD
ENDBRANCH  60  69
ENDBRANCH  57  63
ENDBRANCH  55  58
ENDBRANCH  54  55
ENDBRANCH  53  54
ENDBRANCH   1  53
TORSDOF 24
ENDMDL
MODEL 2
REMARK VINA RESULT:      -6.7      2.150      5.886
REMARK  Name = 
REMARK  27 active torsions:
REMARK  status: ('A' for Active; 'I' for Inactive)
REMARK    1  A    between atoms: C_1  and  O_2
REMARK    2  A    between atoms: O_2  and  C_3
REMARK    3  A    between atoms: C_5  and  C_12
REMARK    4  A    between atoms: C_7  and  O_10
REMARK    5  A    between atoms: C_8  and  O_9
REMARK    6  A    between atoms: O_10  and  C_11
REMARK    7  A    between atoms: C_13  and  C_14
REMARK    8  A    between atoms: C_14  and  O_16
REMARK    9  A    between atoms: O_16  and  C_17
REMARK   10  A    between atoms: C_17  and  C_18
REMARK   11  A    between atoms: C_19  and  O_66
REMARK   12  A    between atoms: C_21  and  O_65
REMARK   13  A    between atoms: C_23  and  O_50
REMARK   14  A    between atoms: C_24  and  O_27
REMARK   15  A    between atoms: O_27  and  C_28
REMARK   16  A    between atoms: C_29  and  C_41
REMARK   17  A    between atoms: C_33  and  O_40
REMARK   18  A    between atoms: C_35  and  O_39
REMARK   19  A    between atoms: C_43  and  O_48
REMARK   20  A    between atoms: C_44  and  O_47
REMARK   21  A    between atoms: O_48  and  C_49
REMARK   22  A    between atoms: O_50  and  C_51
REMARK   23  A    between atoms: C_53  and  O_64
REMARK   24  A    between atoms: C_54  and  O_63
REMARK   25  A    between atoms: C_56  and  O_62
REMARK   26  A    between atoms: C_58  and  C_60
REMARK   27  A    between atoms: C_60  and  O_61
REMARK                            x       y       z     vdW  Elec       q    Type
REMARK                         _______ _______ _______ _____ _____    ______ ____
ROOT
ATOM      1  C   UNL     1       3.241  -0.329  27.814  0.00  0.00    +0.191 C 
ATOM      2  O   UNL     1       4.379  -0.530  26.946  0.00  0.00    -0.330 OA
ATOM      3  C   UNL     1       4.302  -1.494  25.877  0.00  0.00    +0.340 C 
ATOM      4  C   UNL     1       3.432  -2.804  26.210  0.00  0.00    +0.221 C 
ATOM      5  C   UNL     1       2.255  -2.494  27.159  0.00  0.00    +0.180 C 
ATOM      6  C   UNL     1       2.729  -1.667  28.350  0.00  0.00    +0.178 C 
ENDROOT
BRANCH   6   7
ATOM      7  O   UNL     1       1.612  -1.515  29.242  0.00  0.00    -0.386 OA
ATOM      8  H   UNL     1       0.891  -1.077  28.751  0.00  0.00    +0.210 HD
ENDBRANCH   6   7
BRANCH   5   9
ATOM      9  O   UNL     1       1.523  -3.617  27.656  0.00  0.00    -0.386 OA
ATOM     10  H   UNL     1       2.134  -4.086  28.263  0.00  0.00    +0.210 HD
ENDBRANCH   5   9
BRANCH   4  11
ATOM     11  O   UNL     1       4.221  -3.943  26.636  0.00  0.00    -0.337 OA
BRANCH  11  12
ATOM     12  C   UNL     1       4.871  -4.696  25.578  0.00  0.00    +0.282 C 
ATOM     13  O   UNL     1       3.947  -4.889  24.491  0.00  0.00    -0.341 OA
ATOM     14  C   UNL     1       2.839  -5.750  24.795  0.00  0.00    +0.178 C 
ATOM     15  C   UNL     1       3.278  -7.126  25.351  0.00  0.00    +0.177 C 
ATOM     16  C   UNL     1       4.320  -6.978  26.464  0.00  0.00    +0.179 C 
ATOM     17  C   UNL     1       5.461  -6.080  25.974  0.00  0.00    +0.201 C 
BRANCH  17  18
ATOM     18  O   UNL     1       6.529  -6.053  26.930  0.00  0.00    -0.384 OA
ATOM     19  H   UNL     1       6.555  -6.931  27.353  0.00  0.00    +0.210 HD
ENDBRANCH  17  18
BRANCH  16  20
ATOM     20  O   UNL     1       3.762  -6.499  27.691  0.00  0.00    -0.386 OA
ATOM     21  H   UNL     1       3.389  -5.599  27.541  0.00  0.00    +0.210 HD
ENDBRANCH  16  20
BRANCH  15  22
ATOM     22  O   UNL     1       3.847  -7.925  24.301  0.00  0.00    -0.386 OA
ATOM     23  H   UNL     1       3.128  -8.254  23.734  0.00  0.00    +0.210 HD
ENDBRANCH  15  22
BRANCH  14  24
ATOM     24  C   UNL     1       2.018  -5.913  23.500  0.00  0.00    +0.190 C 
BRANCH  24  25
ATOM     25  O   UNL     1       2.818  -6.335  22.392  0.00  0.00    -0.392 OA
ATOM     26  H   UNL     1       3.478  -5.640  22.225  0.00  0.00    +0.210 HD
ENDBRANCH  24  25
ENDBRANCH  14  24
ENDBRANCH  11  12
ENDBRANCH   4  11
BRANCH   3  27
ATOM     27  O   UNL     1       5.622  -1.908  25.372  0.00  0.00    -0.453 OA
BRANCH  27  28
ATOM     28  C   UNL     1       6.471  -1.243  24.490  0.00  0.00    +0.214 A 
ATOM     29  C   UNL     1       7.159   0.016  25.030  0.00  0.00    +0.238 A 
ATOM     30  O   UNL     1       6.953   0.353  26.206  0.00  0.00    -0.283 OA
ATOM     31  C   UNL     1       8.129   0.749  24.151  0.00  0.00    +0.109 A 
ATOM     32  C   UNL     1       8.328   0.256  22.867  0.00  0.00    +0.147 A 
ATOM     33  C   UNL     1       9.205   0.866  21.955  0.00  0.00    +0.092 A 
ATOM     34  C   UNL     1       9.911   1.994  22.335  0.00  0.00    +0.124 A 
ATOM     35  C   UNL     1       9.763   2.506  23.618  0.00  0.00    +0.091 A 
ATOM     36  O   UNL     1       7.727  -0.879  22.417  0.00  0.00    -0.451 OA
ATOM     37  C   UNL     1       8.880   1.884  24.523  0.00  0.00    +0.135 A 
ATOM     38  C   UNL     1       6.935  -1.608  23.269  0.00  0.00    +0.181 A 
BRANCH  38  39
ATOM     39  C   UNL     1       6.881  -2.982  22.813  0.00  0.00    +0.025 A 
ATOM     40  C   UNL     1       5.954  -3.434  21.898  0.00  0.00    +0.015 A 
ATOM     41  C   UNL     1       5.852  -4.806  21.721  0.00  0.00    +0.050 A 
ATOM     42  C   UNL     1       6.628  -5.706  22.462  0.00  0.00    +0.158 A 
ATOM     43  C   UNL     1       7.687  -5.241  23.231  0.00  0.00    +0.162 A 
ATOM     44  C   UNL     1       7.822  -3.864  23.362  0.00  0.00    +0.061 A 
BRANCH  43  45
ATOM     45  O   UNL     1       8.671  -5.893  23.903  0.00  0.00    -0.491 OA
ATOM     46  C   UNL     1       9.329  -5.321  25.009  0.00  0.00    +0.277 C 
ENDBRANCH  43  45
BRANCH  42  47
ATOM     47  O   UNL     1       6.221  -7.002  22.371  0.00  0.00    -0.503 OA
ATOM     48  H   UNL     1       6.068  -7.334  23.266  0.00  0.00    +0.292 HD
ENDBRANCH  42  47
ENDBRANCH  38  39
BRANCH  37  49
ATOM     49  O   UNL     1       8.782   2.420  25.779  0.00  0.00    -0.506 OA
ATOM     50  H   UNL     1       8.773   3.391  25.725  0.00  0.00    +0.292 HD
ENDBRANCH  37  49
BRANCH  34  51
ATOM     51  O   UNL     1      10.783   2.619  21.488  0.00  0.00    -0.507 OA
ATOM     52  H   UNL     1      11.455   1.973  21.201  0.00  0.00    +0.292 HD
ENDBRANCH  34  51
ENDBRANCH  27  28
ENDBRANCH   3  27
BRANCH   1  53
ATOM     53  C   UNL     1       2.028   0.482  27.267  0.00  0.00    +0.266 C 
BRANCH  53  54
ATOM     54  O   UNL     1       2.180   1.900  27.257  0.00  0.00    -0.459 OA
BRANCH  54  55
ATOM     55  C   UNL     1       2.377   2.513  26.069  0.00  0.00    +0.332 C 
ATOM     56  O   UNL     1       1.722   2.380  25.070  0.00  0.00    -0.246 OA
BRANCH  55  58
ATOM     57  C   UNL     1       4.559   3.351  25.311  0.00  0.00    +0.015 C 
ATOM     58  C   UNL     1       3.593   3.334  26.236  0.00  0.00    +0.092 C 
BRANCH  57  63
ATOM     59  C   UNL     1       7.386   5.408  26.667  0.00  0.00    +0.166 A 
ATOM     60  C   UNL     1       8.098   5.734  25.489  0.00  0.00    +0.201 A 
ATOM     61  C   UNL     1       7.584   5.376  24.238  0.00  0.00    +0.166 A 
ATOM     62  C   UNL     1       6.384   4.648  24.200  0.00  0.00    +0.057 A 
ATOM     63  C   UNL     1       5.688   4.287  25.360  0.00  0.00    -0.018 A 
ATOM     64  C   UNL     1       6.176   4.712  26.592  0.00  0.00    +0.057 A 
BRANCH  59  66
ATOM     65  C   UNL     1       6.989   6.331  28.813  0.00  0.00    +0.277 C 
ATOM     66  O   UNL     1       7.925   5.831  27.861  0.00  0.00    -0.491 OA
ENDBRANCH  59  66
BRANCH  61  67
ATOM     67  O   UNL     1       8.059   5.581  22.976  0.00  0.00    -0.491 OA
ATOM     68  C   UNL     1       7.313   6.258  21.987  0.00  0.00    +0.277 C 
ENDBRANCH  61  67
BRANCH  60  69
ATOM     69  O   UNL     1       9.303   6.359  25.676  0.00  0.00    -0.501 OA
ATOM     70  H   UNL     1       9.505   6.908  24.912  0.00  0.00    +0.292 HD
ENDBRANCH  60  69
ENDBRANCH  57  63
ENDBRANCH  55  58
ENDBRANCH  54  55
ENDBRANCH  53  54
ENDBRANCH   1  53
TORSDOF 24
ENDMDL
MODEL 3
REMARK VINA RESULT:      -6.6      2.232      6.319
REMARK  Name = 
REMARK  27 active torsions:
REMARK  status: ('A' for Active; 'I' for Inactive)
REMARK    1  A    between atoms: C_1  and  O_2
REMARK    2  A    between atoms: O_2  and  C_3
REMARK    3  A    between atoms: C_5  and  C_12
REMARK    4  A    between atoms: C_7  and  O_10
REMARK    5  A    between atoms: C_8  and  O_9
REMARK    6  A    between atoms: O_10  and  C_11
REMARK    7  A    between atoms: C_13  and  C_14
REMARK    8  A    between atoms: C_14  and  O_16
REMARK    9  A    between atoms: O_16  and  C_17
REMARK   10  A    between atoms: C_17  and  C_18
REMARK   11  A    between atoms: C_19  and  O_66
REMARK   12  A    between atoms: C_21  and  O_65
REMARK   13  A    between atoms: C_23  and  O_50
REMARK   14  A    between atoms: C_24  and  O_27
REMARK   15  A    between atoms: O_27  and  C_28
REMARK   16  A    between atoms: C_29  and  C_41
REMARK   17  A    between atoms: C_33  and  O_40
REMARK   18  A    between atoms: C_35  and  O_39
REMARK   19  A    between atoms: C_43  and  O_48
REMARK   20  A    between atoms: C_44  and  O_47
REMARK   21  A    between atoms: O_48  and  C_49
REMARK   22  A    between atoms: O_50  and  C_51
REMARK   23  A    between atoms: C_53  and  O_64
REMARK   24  A    between atoms: C_54  and  O_63
REMARK   25  A    between atoms: C_56  and  O_62
REMARK   26  A    between atoms: C_58  and  C_60
REMARK   27  A    between atoms: C_60  and  O_61
REMARK                            x       y       z     vdW  Elec       q    Type
REMARK                         _______ _______ _______ _____ _____    ______ ____
ROOT
ATOM      1  C   UNL     1       3.506  -0.493  29.149  0.00  0.00    +0.191 C 
ATOM      2  O   UNL     1       4.527  -0.718  28.150  0.00  0.00    -0.330 OA
ATOM      3  C   UNL     1       4.152  -1.173  26.835  0.00  0.00    +0.340 C 
ATOM      4  C   UNL     1       2.899  -2.179  26.798  0.00  0.00    +0.221 C 
ATOM      5  C   UNL     1       1.876  -1.874  27.913  0.00  0.00    +0.180 C 
ATOM      6  C   UNL     1       2.580  -1.706  29.256  0.00  0.00    +0.178 C 
ENDROOT
BRANCH   6   7
ATOM      7  O   UNL     1       1.563  -1.539  30.258  0.00  0.00    -0.386 OA
ATOM      8  H   UNL     1       1.342  -0.590  30.309  0.00  0.00    +0.210 HD
ENDBRANCH   6   7
BRANCH   5   9
ATOM      9  O   UNL     1       0.812  -2.814  28.079  0.00  0.00    -0.386 OA
ATOM     10  H   UNL     1       0.474  -2.677  28.989  0.00  0.00    +0.210 HD
ENDBRANCH   5   9
BRANCH   4  11
ATOM     11  O   UNL     1       3.269  -3.580  26.734  0.00  0.00    -0.337 OA
BRANCH  11  12
ATOM     12  C   UNL     1       3.913  -4.120  27.919  0.00  0.00    +0.282 C 
ATOM     13  O   UNL     1       5.287  -4.430  27.618  0.00  0.00    -0.341 OA
ATOM     14  C   UNL     1       5.466  -5.513  26.694  0.00  0.00    +0.178 C 
ATOM     15  C   UNL     1       4.728  -6.803  27.125  0.00  0.00    +0.177 C 
ATOM     16  C   UNL     1       3.278  -6.517  27.526  0.00  0.00    +0.179 C 
ATOM     17  C   UNL     1       3.253  -5.378  28.552  0.00  0.00    +0.201 C 
BRANCH  17  18
ATOM     18  O   UNL     1       1.928  -5.195  29.070  0.00  0.00    -0.384 OA
ATOM     19  H   UNL     1       1.438  -6.019  28.898  0.00  0.00    +0.210 HD
ENDBRANCH  17  18
BRANCH  16  20
ATOM     20  O   UNL     1       2.433  -6.235  26.407  0.00  0.00    -0.386 OA
ATOM     21  H   UNL     1       2.924  -5.661  25.774  0.00  0.00    +0.210 HD
ENDBRANCH  16  20
BRANCH  15  22
ATOM     22  O   UNL     1       5.397  -7.406  28.244  0.00  0.00    -0.386 OA
ATOM     23  H   UNL     1       5.182  -8.355  28.263  0.00  0.00    +0.210 HD
ENDBRANCH  15  22
BRANCH  14  24
ATOM     24  C   UNL     1       6.983  -5.759  26.567  0.00  0.00    +0.190 C 
BRANCH  24  25
ATOM     25  O   UNL     1       7.621  -5.922  27.838  0.00  0.00    -0.392 OA
ATOM     26  H   UNL     1       7.592  -5.062  28.293  0.00  0.00    +0.210 HD
ENDBRANCH  24  25
ENDBRANCH  14  24
ENDBRANCH  11  12
ENDBRANCH   4  11
BRANCH   3  27
ATOM     27  O   UNL     1       5.271  -1.771  26.086  0.00  0.00    -0.453 OA
BRANCH  27  28
ATOM     28  C   UNL     1       6.057  -1.204  25.084  0.00  0.00    +0.214 A 
ATOM     29  C   UNL     1       6.761   0.111  25.438  0.00  0.00    +0.238 A 
ATOM     30  O   UNL     1       6.623   0.576  26.580  0.00  0.00    -0.283 OA
ATOM     31  C   UNL     1       7.668   0.747  24.425  0.00  0.00    +0.109 A 
ATOM     32  C   UNL     1       7.795   0.114  23.194  0.00  0.00    +0.147 A 
ATOM     33  C   UNL     1       8.607   0.623  22.167  0.00  0.00    +0.092 A 
ATOM     34  C   UNL     1       9.321   1.790  22.377  0.00  0.00    +0.124 A 
ATOM     35  C   UNL     1       9.245   2.441  23.601  0.00  0.00    +0.091 A 
ATOM     36  O   UNL     1       7.181  -1.067  22.911  0.00  0.00    -0.451 OA
ATOM     37  C   UNL     1       8.426   1.920  24.622  0.00  0.00    +0.135 A 
ATOM     38  C   UNL     1       6.451  -1.700  23.886  0.00  0.00    +0.181 A 
BRANCH  38  39
ATOM     39  C   UNL     1       6.385  -3.117  23.589  0.00  0.00    +0.025 A 
ATOM     40  C   UNL     1       7.503  -3.917  23.489  0.00  0.00    +0.015 A 
ATOM     41  C   UNL     1       7.329  -5.192  22.972  0.00  0.00    +0.050 A 
ATOM     42  C   UNL     1       6.078  -5.646  22.532  0.00  0.00    +0.158 A 
ATOM     43  C   UNL     1       4.933  -4.913  22.816  0.00  0.00    +0.162 A 
ATOM     44  C   UNL     1       5.107  -3.657  23.387  0.00  0.00    +0.061 A 
BRANCH  43  45
ATOM     45  O   UNL     1       3.616  -5.195  22.651  0.00  0.00    -0.491 OA
ATOM     46  C   UNL     1       3.024  -6.357  23.185  0.00  0.00    +0.277 C 
ENDBRANCH  43  45
BRANCH  42  47
ATOM     47  O   UNL     1       6.125  -6.799  21.810  0.00  0.00    -0.503 OA
ATOM     48  H   UNL     1       6.168  -7.541  22.429  0.00  0.00    +0.292 HD
ENDBRANCH  42  47
ENDBRANCH  38  39
BRANCH  37  49
ATOM     49  O   UNL     1       8.398   2.592  25.814  0.00  0.00    -0.506 OA
ATOM     50  H   UNL     1       8.681   3.513  25.681  0.00  0.00    +0.292 HD
ENDBRANCH  37  49
BRANCH  34  51
ATOM     51  O   UNL     1      10.133   2.321  21.413  0.00  0.00    -0.507 OA
ATOM     52  H   UNL     1       9.626   2.989  20.914  0.00  0.00    +0.292 HD
ENDBRANCH  34  51
ENDBRANCH  27  28
ENDBRANCH   3  27
BRANCH   1  53
ATOM     53  C   UNL     1       2.629   0.790  29.033  0.00  0.00    +0.266 C 
BRANCH  53  54
ATOM     54  O   UNL     1       3.185   1.976  29.597  0.00  0.00    -0.459 OA
BRANCH  54  55
ATOM     55  C   UNL     1       4.312   2.478  29.046  0.00  0.00    +0.332 C 
ATOM     56  O   UNL     1       5.358   2.686  29.601  0.00  0.00    -0.246 OA
BRANCH  55  58
ATOM     57  C   UNL     1       4.816   3.441  26.842  0.00  0.00    +0.015 C 
ATOM     58  C   UNL     1       3.977   2.769  27.637  0.00  0.00    +0.092 C 
BRANCH  57  63
ATOM     59  C   UNL     1       3.127   3.317  23.496  0.00  0.00    +0.166 A 
ATOM     60  C   UNL     1       3.924   4.205  22.737  0.00  0.00    +0.201 A 
ATOM     61  C   UNL     1       5.084   4.754  23.291  0.00  0.00    +0.166 A 
ATOM     62  C   UNL     1       5.395   4.438  24.624  0.00  0.00    +0.057 A 
ATOM     63  C   UNL     1       4.595   3.589  25.399  0.00  0.00    -0.018 A 
ATOM     64  C   UNL     1       3.483   2.996  24.810  0.00  0.00    +0.057 A 
BRANCH  59  66
ATOM     65  C   UNL     1       0.770   3.078  23.480  0.00  0.00    +0.277 C 
ATOM     66  O   UNL     1       2.024   2.777  22.873  0.00  0.00    -0.491 OA
ENDBRANCH  59  66
BRANCH  61  67
ATOM     67  O   UNL     1       6.015   5.608  22.775  0.00  0.00    -0.491 OA
ATOM     68  C   UNL     1       7.249   5.159  22.257  0.00  0.00    +0.277 C 
ENDBRANCH  61  67
BRANCH  60  69
ATOM     69  O   UNL     1       3.453   4.504  21.485  0.00  0.00    -0.501 OA
ATOM     70  H   UNL     1       2.491   4.497  21.491  0.00  0.00    +0.292 HD
ENDBRANCH  60  69
ENDBRANCH  57  63
ENDBRANCH  55  58
ENDBRANCH  54  55
ENDBRANCH  53  54
ENDBRANCH   1  53
TORSDOF 24
ENDMDL
MODEL 4
REMARK VINA RESULT:      -6.3      2.238      9.168
REMARK  Name = 
REMARK  27 active torsions:
REMARK  status: ('A' for Active; 'I' for Inactive)
REMARK    1  A    between atoms: C_1  and  O_2
REMARK    2  A    between atoms: O_2  and  C_3
REMARK    3  A    between atoms: C_5  and  C_12
REMARK    4  A    between atoms: C_7  and  O_10
REMARK    5  A    between atoms: C_8  and  O_9
REMARK    6  A    between atoms: O_10  and  C_11
REMARK    7  A    between atoms: C_13  and  C_14
REMARK    8  A    between atoms: C_14  and  O_16
REMARK    9  A    between atoms: O_16  and  C_17
REMARK   10  A    between atoms: C_17  and  C_18
REMARK   11  A    between atoms: C_19  and  O_66
REMARK   12  A    between atoms: C_21  and  O_65
REMARK   13  A    between atoms: C_23  and  O_50
REMARK   14  A    between atoms: C_24  and  O_27
REMARK   15  A    between atoms: O_27  and  C_28
REMARK   16  A    between atoms: C_29  and  C_41
REMARK   17  A    between atoms: C_33  and  O_40
REMARK   18  A    between atoms: C_35  and  O_39
REMARK   19  A    between atoms: C_43  and  O_48
REMARK   20  A    between atoms: C_44  and  O_47
REMARK   21  A    between atoms: O_48  and  C_49
REMARK   22  A    between atoms: O_50  and  C_51
REMARK   23  A    between atoms: C_53  and  O_64
REMARK   24  A    between atoms: C_54  and  O_63
REMARK   25  A    between atoms: C_56  and  O_62
REMARK   26  A    between atoms: C_58  and  C_60
REMARK   27  A    between atoms: C_60  and  O_61
REMARK                            x       y       z     vdW  Elec       q    Type
REMARK                         _______ _______ _______ _____ _____    ______ ____
ROOT
ATOM      1  C   UNL     1       8.196  -0.086  23.751  0.00  0.00    +0.191 C 
ATOM      2  O   UNL     1       7.060   0.721  24.132  0.00  0.00    -0.330 OA
ATOM      3  C   UNL     1       6.574   1.741  23.238  0.00  0.00    +0.340 C 
ATOM      4  C   UNL     1       7.712   2.489  22.383  0.00  0.00    +0.221 C 
ATOM      5  C   UNL     1       8.892   1.553  22.042  0.00  0.00    +0.180 C 
ATOM      6  C   UNL     1       9.354   0.798  23.284  0.00  0.00    +0.178 C 
ENDROOT
BRANCH   6   7
ATOM      7  O   UNL     1      10.518   0.038  22.918  0.00  0.00    -0.386 OA
ATOM      8  H   UNL     1      10.241  -0.660  22.296  0.00  0.00    +0.210 HD
ENDBRANCH   6   7
BRANCH   5   9
ATOM      9  O   UNL     1      10.034   2.161  21.436  0.00  0.00    -0.386 OA
ATOM     10  H   UNL     1      10.810   1.835  21.940  0.00  0.00    +0.210 HD
ENDBRANCH   5   9
BRANCH   4  11
ATOM     11  O   UNL     1       8.136   3.755  22.947  0.00  0.00    -0.337 OA
BRANCH  11  12
ATOM     12  C   UNL     1       9.083   3.676  24.045  0.00  0.00    +0.282 C 
ATOM     13  O   UNL     1       8.404   3.957  25.284  0.00  0.00    -0.341 OA
ATOM     14  C   UNL     1       7.945   5.310  25.420  0.00  0.00    +0.178 C 
ATOM     15  C   UNL     1       9.066   6.354  25.196  0.00  0.00    +0.177 C 
ATOM     16  C   UNL     1       9.868   6.057  23.925  0.00  0.00    +0.179 C 
ATOM     17  C   UNL     1      10.333   4.597  23.950  0.00  0.00    +0.201 C 
BRANCH  17  18
ATOM     18  O   UNL     1      11.222   4.331  22.856  0.00  0.00    -0.384 OA
ATOM     19  H   UNL     1      11.144   3.383  22.649  0.00  0.00    +0.210 HD
ENDBRANCH  17  18
BRANCH  16  20
ATOM     20  O   UNL     1       9.149   6.360  22.727  0.00  0.00    -0.386 OA
ATOM     21  H   UNL     1       9.300   5.638  22.073  0.00  0.00    +0.210 HD
ENDBRANCH  16  20
BRANCH  15  22
ATOM     22  O   UNL     1       9.970   6.355  26.312  0.00  0.00    -0.386 OA
ATOM     23  H   UNL     1       9.717   7.073  26.919  0.00  0.00    +0.210 HD
ENDBRANCH  15  22
BRANCH  14  24
ATOM     24  C   UNL     1       7.335   5.447  26.829  0.00  0.00    +0.190 C 
BRANCH  24  25
ATOM     25  O   UNL     1       7.152   6.811  27.219  0.00  0.00    -0.392 OA
ATOM     26  H   UNL     1       7.992   7.123  27.598  0.00  0.00    +0.210 HD
ENDBRANCH  24  25
ENDBRANCH  14  24
ENDBRANCH  11  12
ENDBRANCH   4  11
BRANCH   3  27
ATOM     27  O   UNL     1       5.734   2.750  23.907  0.00  0.00    -0.453 OA
BRANCH  27  28
ATOM     28  C   UNL     1       4.634   2.560  24.740  0.00  0.00    +0.214 A 
ATOM     29  C   UNL     1       4.941   2.226  26.205  0.00  0.00    +0.238 A 
ATOM     30  O   UNL     1       6.126   2.173  26.570  0.00  0.00    -0.283 OA
ATOM     31  C   UNL     1       3.804   2.065  27.169  0.00  0.00    +0.109 A 
ATOM     32  C   UNL     1       2.514   2.198  26.666  0.00  0.00    +0.147 A 
ATOM     33  C   UNL     1       1.374   2.057  27.474  0.00  0.00    +0.092 A 
ATOM     34  C   UNL     1       1.522   1.787  28.823  0.00  0.00    +0.124 A 
ATOM     35  C   UNL     1       2.792   1.672  29.374  0.00  0.00    +0.091 A 
ATOM     36  O   UNL     1       2.265   2.521  25.368  0.00  0.00    -0.451 OA
ATOM     37  C   UNL     1       3.927   1.815  28.552  0.00  0.00    +0.135 A 
ATOM     38  C   UNL     1       3.314   2.784  24.523  0.00  0.00    +0.181 A 
BRANCH  38  39
ATOM     39  C   UNL     1       2.853   3.624  23.435  0.00  0.00    +0.025 A 
ATOM     40  C   UNL     1       2.016   3.170  22.439  0.00  0.00    +0.015 A 
ATOM     41  C   UNL     1       1.837   3.992  21.336  0.00  0.00    +0.050 A 
ATOM     42  C   UNL     1       2.504   5.218  21.212  0.00  0.00    +0.158 A 
ATOM     43  C   UNL     1       3.185   5.751  22.298  0.00  0.00    +0.162 A 
ATOM     44  C   UNL     1       3.315   4.947  23.425  0.00  0.00    +0.061 A 
BRANCH  43  45
ATOM     45  O   UNL     1       3.766   6.962  22.495  0.00  0.00    -0.491 OA
ATOM     46  C   UNL     1       4.984   7.106  23.188  0.00  0.00    +0.277 C 
ENDBRANCH  43  45
BRANCH  42  47
ATOM     47  O   UNL     1       2.436   5.768  19.969  0.00  0.00    -0.503 OA
ATOM     48  H   UNL     1       3.273   5.592  19.516  0.00  0.00    +0.292 HD
ENDBRANCH  42  47
ENDBRANCH  38  39
BRANCH  37  49
ATOM     49  O   UNL     1       5.155   1.707  29.147  0.00  0.00    -0.506 OA
ATOM     50  H   UNL     1       5.852   1.945  28.513  0.00  0.00    +0.292 HD
ENDBRANCH  37  49
BRANCH  34  51
ATOM     51  O   UNL     1       0.444   1.650  29.653  0.00  0.00    -0.507 OA
ATOM     52  H   UNL     1      -0.366   1.627  29.110  0.00  0.00    +0.292 HD
ENDBRANCH  34  51
ENDBRANCH  27  28
ENDBRANCH   3  27
BRANCH   1  53
ATOM     53  C   UNL     1       7.980  -1.214  22.697  0.00  0.00    +0.266 C 
BRANCH  53  54
ATOM     54  O   UNL     1       7.885  -2.540  23.215  0.00  0.00    -0.459 OA
BRANCH  54  55
ATOM     55  C   UNL     1       8.932  -3.030  23.914  0.00  0.00    +0.332 C 
ATOM     56  O   UNL     1      10.098  -2.822  23.710  0.00  0.00    -0.246 OA
BRANCH  55  58
ATOM     57  C   UNL     1       7.034  -4.143  25.009  0.00  0.00    +0.015 C 
ATOM     58  C   UNL     1       8.350  -3.914  24.945  0.00  0.00    +0.092 C 
BRANCH  57  63
ATOM     59  C   UNL     1       6.054  -5.937  28.153  0.00  0.00    +0.166 A 
ATOM     60  C   UNL     1       5.023  -6.788  27.690  0.00  0.00    +0.201 A 
ATOM     61  C   UNL     1       4.729  -6.856  26.325  0.00  0.00    +0.166 A 
ATOM     62  C   UNL     1       5.449  -6.024  25.451  0.00  0.00    +0.057 A 
ATOM     63  C   UNL     1       6.447  -5.150  25.900  0.00  0.00    -0.018 A 
ATOM     64  C   UNL     1       6.774  -5.146  27.252  0.00  0.00    +0.057 A 
BRANCH  59  66
ATOM     65  C   UNL     1       5.394  -5.242  30.319  0.00  0.00    +0.277 C 
ATOM     66  O   UNL     1       6.321  -5.953  29.503  0.00  0.00    -0.491 OA
ENDBRANCH  59  66
BRANCH  61  67
ATOM     67  O   UNL     1       3.812  -7.592  25.634  0.00  0.00    -0.491 OA
ATOM     68  C   UNL     1       2.846  -7.002  24.791  0.00  0.00    +0.277 C 
ENDBRANCH  61  67
BRANCH  60  69
ATOM     69  O   UNL     1       4.336  -7.470  28.660  0.00  0.00    -0.501 OA
ATOM     70  H   UNL     1       4.121  -6.874  29.384  0.00  0.00    +0.292 HD
ENDBRANCH  60  69
ENDBRANCH  57  63
ENDBRANCH  55  58
ENDBRANCH  54  55
ENDBRANCH  53  54
ENDBRANCH   1  53
TORSDOF 24
ENDMDL
MODEL 5
REMARK VINA RESULT:      -6.3      2.172      4.394
REMARK  Name = 
REMARK  27 active torsions:
REMARK  status: ('A' for Active; 'I' for Inactive)
REMARK    1  A    between atoms: C_1  and  O_2
REMARK    2  A    between atoms: O_2  and  C_3
REMARK    3  A    between atoms: C_5  and  C_12
REMARK    4  A    between atoms: C_7  and  O_10
REMARK    5  A    between atoms: C_8  and  O_9
REMARK    6  A    between atoms: O_10  and  C_11
REMARK    7  A    between atoms: C_13  and  C_14
REMARK    8  A    between atoms: C_14  and  O_16
REMARK    9  A    between atoms: O_16  and  C_17
REMARK   10  A    between atoms: C_17  and  C_18
REMARK   11  A    between atoms: C_19  and  O_66
REMARK   12  A    between atoms: C_21  and  O_65
REMARK   13  A    between atoms: C_23  and  O_50
REMARK   14  A    between atoms: C_24  and  O_27
REMARK   15  A    between atoms: O_27  and  C_28
REMARK   16  A    between atoms: C_29  and  C_41
REMARK   17  A    between atoms: C_33  and  O_40
REMARK   18  A    between atoms: C_35  and  O_39
REMARK   19  A    between atoms: C_43  and  O_48
REMARK   20  A    between atoms: C_44  and  O_47
REMARK   21  A    between atoms: O_48  and  C_49
REMARK   22  A    between atoms: O_50  and  C_51
REMARK   23  A    between atoms: C_53  and  O_64
REMARK   24  A    between atoms: C_54  and  O_63
REMARK   25  A    between atoms: C_56  and  O_62
REMARK   26  A    between atoms: C_58  and  C_60
REMARK   27  A    between atoms: C_60  and  O_61
REMARK                            x       y       z     vdW  Elec       q    Type
REMARK                         _______ _______ _______ _____ _____    ______ ____
ROOT
ATOM      1  C   UNL     1       7.147  -2.401  22.286  0.00  0.00    +0.191 C 
ATOM      2  O   UNL     1       6.461  -1.300  22.924  0.00  0.00    -0.330 OA
ATOM      3  C   UNL     1       6.413  -1.225  24.363  0.00  0.00    +0.340 C 
ATOM      4  C   UNL     1       6.313  -2.644  25.111  0.00  0.00    +0.221 C 
ATOM      5  C   UNL     1       7.056  -3.759  24.345  0.00  0.00    +0.180 C 
ATOM      6  C   UNL     1       6.680  -3.737  22.867  0.00  0.00    +0.178 C 
ENDROOT
BRANCH   6   7
ATOM      7  O   UNL     1       7.316  -4.865  22.244  0.00  0.00    -0.386 OA
ATOM      8  H   UNL     1       8.142  -4.554  21.826  0.00  0.00    +0.210 HD
ENDBRANCH   6   7
BRANCH   5   9
ATOM      9  O   UNL     1       6.885  -5.091  24.832  0.00  0.00    -0.386 OA
ATOM     10  H   UNL     1       7.732  -5.553  24.652  0.00  0.00    +0.210 HD
ENDBRANCH   5   9
BRANCH   4  11
ATOM     11  O   UNL     1       4.964  -3.016  25.490  0.00  0.00    -0.337 OA
BRANCH  11  12
ATOM     12  C   UNL     1       4.788  -3.449  26.865  0.00  0.00    +0.282 C 
ATOM     13  O   UNL     1       4.735  -4.888  26.911  0.00  0.00    -0.341 OA
ATOM     14  C   UNL     1       3.573  -5.463  26.295  0.00  0.00    +0.178 C 
ATOM     15  C   UNL     1       2.248  -4.879  26.843  0.00  0.00    +0.177 C 
ATOM     16  C   UNL     1       2.280  -3.348  26.883  0.00  0.00    +0.179 C 
ATOM     17  C   UNL     1       3.546  -2.888  27.615  0.00  0.00    +0.201 C 
BRANCH  17  18
ATOM     18  O   UNL     1       3.526  -1.467  27.813  0.00  0.00    -0.384 OA
ATOM     19  H   UNL     1       4.377  -1.224  28.220  0.00  0.00    +0.210 HD
ENDBRANCH  17  18
BRANCH  16  20
ATOM     20  O   UNL     1       2.175  -2.752  25.587  0.00  0.00    -0.386 OA
ATOM     21  H   UNL     1       2.096  -3.467  24.914  0.00  0.00    +0.210 HD
ENDBRANCH  16  20
BRANCH  15  22
ATOM     22  O   UNL     1       2.007  -5.362  28.174  0.00  0.00    -0.386 OA
ATOM     23  H   UNL     1       2.684  -4.993  28.768  0.00  0.00    +0.210 HD
ENDBRANCH  15  22
BRANCH  14  24
ATOM     24  C   UNL     1       3.641  -6.986  26.522  0.00  0.00    +0.190 C 
BRANCH  24  25
ATOM     25  O   UNL     1       4.442  -7.337  27.655  0.00  0.00    -0.392 OA
ATOM     26  H   UNL     1       4.690  -6.511  28.106  0.00  0.00    +0.210 HD
ENDBRANCH  24  25
ENDBRANCH  14  24
ENDBRANCH  11  12
ENDBRANCH   4  11
BRANCH   3  27
ATOM     27  O   UNL     1       5.346  -0.341  24.863  0.00  0.00    -0.453 OA
BRANCH  27  28
ATOM     28  C   UNL     1       5.438   0.724  25.757  0.00  0.00    +0.214 A 
ATOM     29  C   UNL     1       6.395   0.535  26.941  0.00  0.00    +0.238 A 
ATOM     30  O   UNL     1       7.044  -0.519  27.023  0.00  0.00    -0.283 OA
ATOM     31  C   UNL     1       6.584   1.663  27.911  0.00  0.00    +0.109 A 
ATOM     32  C   UNL     1       5.847   2.822  27.696  0.00  0.00    +0.147 A 
ATOM     33  C   UNL     1       5.936   3.938  28.546  0.00  0.00    +0.092 A 
ATOM     34  C   UNL     1       6.791   3.902  29.633  0.00  0.00    +0.124 A 
ATOM     35  C   UNL     1       7.566   2.774  29.870  0.00  0.00    +0.091 A 
ATOM     36  O   UNL     1       5.024   2.979  26.624  0.00  0.00    -0.451 OA
ATOM     37  C   UNL     1       7.467   1.662  29.011  0.00  0.00    +0.135 A 
ATOM     38  C   UNL     1       4.950   1.986  25.678  0.00  0.00    +0.181 A 
BRANCH  38  39
ATOM     39  C   UNL     1       4.513   2.557  24.420  0.00  0.00    +0.025 A 
ATOM     40  C   UNL     1       5.348   2.711  23.334  0.00  0.00    +0.015 A 
ATOM     41  C   UNL     1       4.882   3.479  22.277  0.00  0.00    +0.050 A 
ATOM     42  C   UNL     1       3.631   4.108  22.317  0.00  0.00    +0.158 A 
ATOM     43  C   UNL     1       2.725   3.790  23.320  0.00  0.00    +0.162 A 
ATOM     44  C   UNL     1       3.176   2.973  24.350  0.00  0.00    +0.061 A 
BRANCH  43  45
ATOM     45  O   UNL     1       1.421   4.123  23.498  0.00  0.00    -0.491 OA
ATOM     46  C   UNL     1       0.749   3.898  24.716  0.00  0.00    +0.277 C 
ENDBRANCH  43  45
BRANCH  42  47
ATOM     47  O   UNL     1       3.440   5.033  21.337  0.00  0.00    -0.503 OA
ATOM     48  H   UNL     1       4.061   4.845  20.620  0.00  0.00    +0.292 HD
ENDBRANCH  42  47
ENDBRANCH  38  39
BRANCH  37  49
ATOM     49  O   UNL     1       8.264   0.582  29.281  0.00  0.00    -0.506 OA
ATOM     50  H   UNL     1       7.713  -0.184  29.519  0.00  0.00    +0.292 HD
ENDBRANCH  37  49
BRANCH  34  51
ATOM     51  O   UNL     1       6.921   4.964  30.483  0.00  0.00    -0.507 OA
ATOM     52  H   UNL     1       7.199   5.744  29.967  0.00  0.00    +0.292 HD
ENDBRANCH  34  51
ENDBRANCH  27  28
ENDBRANCH   3  27
BRANCH   1  53
ATOM     53  C   UNL     1       8.705  -2.389  22.266  0.00  0.00    +0.266 C 
BRANCH  53  54
ATOM     54  O   UNL     1       9.319  -1.106  22.370  0.00  0.00    -0.459 OA
BRANCH  54  55
ATOM     55  C   UNL     1       9.787  -0.717  23.577  0.00  0.00    +0.332 C 
ATOM     56  O   UNL     1      10.082  -1.427  24.500  0.00  0.00    -0.246 OA
BRANCH  55  58
ATOM     57  C   UNL     1       9.058   1.489  24.374  0.00  0.00    +0.015 C 
ATOM     58  C   UNL     1       9.810   0.759  23.544  0.00  0.00    +0.092 C 
BRANCH  57  63
ATOM     59  C   UNL     1      10.256   4.989  23.753  0.00  0.00    +0.166 A 
ATOM     60  C   UNL     1       9.227   5.756  24.347  0.00  0.00    +0.201 A 
ATOM     61  C   UNL     1       8.198   5.123  25.051  0.00  0.00    +0.166 A 
ATOM     62  C   UNL     1       8.197   3.720  25.104  0.00  0.00    +0.057 A 
ATOM     63  C   UNL     1       9.190   2.946  24.490  0.00  0.00    -0.018 A 
ATOM     64  C   UNL     1      10.244   3.594  23.853  0.00  0.00    +0.057 A 
BRANCH  59  66
ATOM     65  C   UNL     1      12.491   4.971  22.969  0.00  0.00    +0.277 C 
ATOM     66  O   UNL     1      11.262   5.678  23.114  0.00  0.00    -0.491 OA
ENDBRANCH  59  66
BRANCH  61  67
ATOM     67  O   UNL     1       7.117   5.626  25.715  0.00  0.00    -0.491 OA
ATOM     68  C   UNL     1       5.941   6.032  25.049  0.00  0.00    +0.277 C 
ENDBRANCH  61  67
BRANCH  60  69
ATOM     69  O   UNL     1       9.297   7.108  24.135  0.00  0.00    -0.501 OA
ATOM     70  H   UNL     1       9.547   7.551  24.952  0.00  0.00    +0.292 HD
ENDBRANCH  60  69
ENDBRANCH  57  63
ENDBRANCH  55  58
ENDBRANCH  54  55
ENDBRANCH  53  54
ENDBRANCH   1  53
TORSDOF 24
ENDMDL
MODEL 6
REMARK VINA RESULT:      -6.3      2.181      5.883
REMARK  Name = 
REMARK  27 active torsions:
REMARK  status: ('A' for Active; 'I' for Inactive)
REMARK    1  A    between atoms: C_1  and  O_2
REMARK    2  A    between atoms: O_2  and  C_3
REMARK    3  A    between atoms: C_5  and  C_12
REMARK    4  A    between atoms: C_7  and  O_10
REMARK    5  A    between atoms: C_8  and  O_9
REMARK    6  A    between atoms: O_10  and  C_11
REMARK    7  A    between atoms: C_13  and  C_14
REMARK    8  A    between atoms: C_14  and  O_16
REMARK    9  A    between atoms: O_16  and  C_17
REMARK   10  A    between atoms: C_17  and  C_18
REMARK   11  A    between atoms: C_19  and  O_66
REMARK   12  A    between atoms: C_21  and  O_65
REMARK   13  A    between atoms: C_23  and  O_50
REMARK   14  A    between atoms: C_24  and  O_27
REMARK   15  A    between atoms: O_27  and  C_28
REMARK   16  A    between atoms: C_29  and  C_41
REMARK   17  A    between atoms: C_33  and  O_40
REMARK   18  A    between atoms: C_35  and  O_39
REMARK   19  A    between atoms: C_43  and  O_48
REMARK   20  A    between atoms: C_44  and  O_47
REMARK   21  A    between atoms: O_48  and  C_49
REMARK   22  A    between atoms: O_50  and  C_51
REMARK   23  A    between atoms: C_53  and  O_64
REMARK   24  A    between atoms: C_54  and  O_63
REMARK   25  A    between atoms: C_56  and  O_62
REMARK   26  A    between atoms: C_58  and  C_60
REMARK   27  A    between atoms: C_60  and  O_61
REMARK                            x       y       z     vdW  Elec       q    Type
REMARK                         _______ _______ _______ _____ _____    ______ ____
ROOT
ATOM      1  C   UNL     1       2.551   0.196  27.984  0.00  0.00    +0.191 C 
ATOM      2  O   UNL     1       3.778  -0.036  27.256  0.00  0.00    -0.330 OA
ATOM      3  C   UNL     1       3.907  -1.208  26.428  0.00  0.00    +0.340 C 
ATOM      4  C   UNL     1       3.165  -2.518  26.989  0.00  0.00    +0.221 C 
ATOM      5  C   UNL     1       1.879  -2.169  27.769  0.00  0.00    +0.180 C 
ATOM      6  C   UNL     1       2.147  -1.052  28.772  0.00  0.00    +0.178 C 
ENDROOT
BRANCH   6   7
ATOM      7  O   UNL     1       0.943  -0.859  29.534  0.00  0.00    -0.386 OA
ATOM      8  H   UNL     1       0.939   0.058  29.867  0.00  0.00    +0.210 HD
ENDBRANCH   6   7
BRANCH   5   9
ATOM      9  O   UNL     1       1.237  -3.245  28.456  0.00  0.00    -0.386 OA
ATOM     10  H   UNL     1       0.901  -3.845  27.756  0.00  0.00    +0.210 HD
ENDBRANCH   5   9
BRANCH   4  11
ATOM     11  O   UNL     1       4.036  -3.427  27.708  0.00  0.00    -0.337 OA
BRANCH  11  12
ATOM     12  C   UNL     1       4.507  -4.579  26.960  0.00  0.00    +0.282 C 
ATOM     13  O   UNL     1       3.546  -5.646  27.069  0.00  0.00    -0.341 OA
ATOM     14  C   UNL     1       3.424  -6.208  28.385  0.00  0.00    +0.178 C 
ATOM     15  C   UNL     1       4.779  -6.671  28.971  0.00  0.00    +0.177 C 
ATOM     16  C   UNL     1       5.859  -5.596  28.814  0.00  0.00    +0.179 C 
ATOM     17  C   UNL     1       5.905  -5.136  27.353  0.00  0.00    +0.201 C 
BRANCH  17  18
ATOM     18  O   UNL     1       7.013  -4.250  27.138  0.00  0.00    -0.384 OA
ATOM     19  H   UNL     1       6.663  -3.461  26.686  0.00  0.00    +0.210 HD
ENDBRANCH  17  18
BRANCH  16  20
ATOM     20  O   UNL     1       5.685  -4.494  29.708  0.00  0.00    -0.386 OA
ATOM     21  H   UNL     1       4.740  -4.454  29.984  0.00  0.00    +0.210 HD
ENDBRANCH  16  20
BRANCH  15  22
ATOM     22  O   UNL     1       5.226  -7.863  28.305  0.00  0.00    -0.386 OA
ATOM     23  H   UNL     1       5.612  -8.465  28.965  0.00  0.00    +0.210 HD
ENDBRANCH  15  22
BRANCH  14  24
ATOM     24  C   UNL     1       2.432  -7.384  28.289  0.00  0.00    +0.190 C 
BRANCH  24  25
ATOM     25  O   UNL     1       2.417  -8.188  29.473  0.00  0.00    -0.392 OA
ATOM     26  H   UNL     1       1.818  -8.938  29.310  0.00  0.00    +0.210 HD
ENDBRANCH  24  25
ENDBRANCH  14  24
ENDBRANCH  11  12
ENDBRANCH   4  11
BRANCH   3  27
ATOM     27  O   UNL     1       5.306  -1.545  26.113  0.00  0.00    -0.453 OA
BRANCH  27  28
ATOM     28  C   UNL     1       6.126  -1.035  25.108  0.00  0.00    +0.214 A 
ATOM     29  C   UNL     1       6.851   0.278  25.425  0.00  0.00    +0.238 A 
ATOM     30  O   UNL     1       6.698   0.790  26.545  0.00  0.00    -0.283 OA
ATOM     31  C   UNL     1       7.792   0.854  24.409  0.00  0.00    +0.109 A 
ATOM     32  C   UNL     1       7.932   0.170  23.207  0.00  0.00    +0.147 A 
ATOM     33  C   UNL     1       8.777   0.622  22.179  0.00  0.00    +0.092 A 
ATOM     34  C   UNL     1       9.512   1.780  22.359  0.00  0.00    +0.124 A 
ATOM     35  C   UNL     1       9.423   2.481  23.555  0.00  0.00    +0.091 A 
ATOM     36  O   UNL     1       7.299  -1.007  22.956  0.00  0.00    -0.451 OA
ATOM     37  C   UNL     1       8.572   2.018  24.576  0.00  0.00    +0.135 A 
ATOM     38  C   UNL     1       6.534  -1.586  23.939  0.00  0.00    +0.181 A 
BRANCH  38  39
ATOM     39  C   UNL     1       6.444  -3.012  23.696  0.00  0.00    +0.025 A 
ATOM     40  C   UNL     1       7.543  -3.844  23.686  0.00  0.00    +0.015 A 
ATOM     41  C   UNL     1       7.360  -5.135  23.212  0.00  0.00    +0.050 A 
ATOM     42  C   UNL     1       6.120  -5.574  22.728  0.00  0.00    +0.158 A 
ATOM     43  C   UNL     1       4.984  -4.801  22.923  0.00  0.00    +0.162 A 
ATOM     44  C   UNL     1       5.164  -3.527  23.451  0.00  0.00    +0.061 A 
BRANCH  43  45
ATOM     45  O   UNL     1       3.669  -5.055  22.702  0.00  0.00    -0.491 OA
ATOM     46  C   UNL     1       2.699  -4.924  23.716  0.00  0.00    +0.277 C 
ENDBRANCH  43  45
BRANCH  42  47
ATOM     47  O   UNL     1       6.171  -6.757  22.055  0.00  0.00    -0.503 OA
ATOM     48  H   UNL     1       5.494  -6.740  21.366  0.00  0.00    +0.292 HD
ENDBRANCH  42  47
ENDBRANCH  38  39
BRANCH  37  49
ATOM     49  O   UNL     1       8.533   2.737  25.741  0.00  0.00    -0.506 OA
ATOM     50  H   UNL     1       9.405   3.130  25.916  0.00  0.00    +0.292 HD
ENDBRANCH  37  49
BRANCH  34  51
ATOM     51  O   UNL     1      10.355   2.256  21.394  0.00  0.00    -0.507 OA
ATOM     52  H   UNL     1      10.464   3.217  21.522  0.00  0.00    +0.292 HD
ENDBRANCH  34  51
ENDBRANCH  27  28
ENDBRANCH   3  27
BRANCH   1  53
ATOM     53  C   UNL     1       1.308   0.705  27.194  0.00  0.00    +0.266 C 
BRANCH  53  54
ATOM     54  O   UNL     1       1.258   2.110  26.951  0.00  0.00    -0.459 OA
BRANCH  54  55
ATOM     55  C   UNL     1       1.570   2.556  25.714  0.00  0.00    +0.332 C 
ATOM     56  O   UNL     1       1.021   2.272  24.684  0.00  0.00    -0.246 OA
BRANCH  55  58
ATOM     57  C   UNL     1       3.823   3.309  25.088  0.00  0.00    +0.015 C 
ATOM     58  C   UNL     1       2.755   3.421  25.885  0.00  0.00    +0.092 C 
BRANCH  57  63
ATOM     59  C   UNL     1       6.533   5.541  26.408  0.00  0.00    +0.166 A 
ATOM     60  C   UNL     1       7.315   5.761  25.250  0.00  0.00    +0.201 A 
ATOM     61  C   UNL     1       6.889   5.270  24.012  0.00  0.00    +0.166 A 
ATOM     62  C   UNL     1       5.702   4.521  23.970  0.00  0.00    +0.057 A 
ATOM     63  C   UNL     1       4.936   4.265  25.114  0.00  0.00    -0.018 A 
ATOM     64  C   UNL     1       5.338   4.819  26.326  0.00  0.00    +0.057 A 
BRANCH  59  66
ATOM     65  C   UNL     1       6.114   7.035  28.198  0.00  0.00    +0.277 C 
ATOM     66  O   UNL     1       6.988   6.090  27.584  0.00  0.00    -0.491 OA
ENDBRANCH  59  66
BRANCH  61  67
ATOM     67  O   UNL     1       7.442   5.357  22.767  0.00  0.00    -0.491 OA
ATOM     68  C   UNL     1       7.150   6.416  21.881  0.00  0.00    +0.277 C 
ENDBRANCH  61  67
BRANCH  60  69
ATOM     69  O   UNL     1       8.499   6.422  25.449  0.00  0.00    -0.501 OA
ATOM     70  H   UNL     1       9.225   5.791  25.456  0.00  0.00    +0.292 HD
ENDBRANCH  60  69
ENDBRANCH  57  63
ENDBRANCH  55  58
ENDBRANCH  54  55
ENDBRANCH  53  54
ENDBRANCH   1  53
TORSDOF 24
ENDMDL
MODEL 7
REMARK VINA RESULT:      -6.0      2.172      8.708
REMARK  Name = 
REMARK  27 active torsions:
REMARK  status: ('A' for Active; 'I' for Inactive)
REMARK    1  A    between atoms: C_1  and  O_2
REMARK    2  A    between atoms: O_2  and  C_3
REMARK    3  A    between atoms: C_5  and  C_12
REMARK    4  A    between atoms: C_7  and  O_10
REMARK    5  A    between atoms: C_8  and  O_9
REMARK    6  A    between atoms: O_10  and  C_11
REMARK    7  A    between atoms: C_13  and  C_14
REMARK    8  A    between atoms: C_14  and  O_16
REMARK    9  A    between atoms: O_16  and  C_17
REMARK   10  A    between atoms: C_17  and  C_18
REMARK   11  A    between atoms: C_19  and  O_66
REMARK   12  A    between atoms: C_21  and  O_65
REMARK   13  A    between atoms: C_23  and  O_50
REMARK   14  A    between atoms: C_24  and  O_27
REMARK   15  A    between atoms: O_27  and  C_28
REMARK   16  A    between atoms: C_29  and  C_41
REMARK   17  A    between atoms: C_33  and  O_40
REMARK   18  A    between atoms: C_35  and  O_39
REMARK   19  A    between atoms: C_43  and  O_48
REMARK   20  A    between atoms: C_44  and  O_47
REMARK   21  A    between atoms: O_48  and  C_49
REMARK   22  A    between atoms: O_50  and  C_51
REMARK   23  A    between atoms: C_53  and  O_64
REMARK   24  A    between atoms: C_54  and  O_63
REMARK   25  A    between atoms: C_56  and  O_62
REMARK   26  A    between atoms: C_58  and  C_60
REMARK   27  A    between atoms: C_60  and  O_61
REMARK                            x       y       z     vdW  Elec       q    Type
REMARK                         _______ _______ _______ _____ _____    ______ ____
ROOT
ATOM      1  C   UNL     1      10.055   0.373  24.555  0.00  0.00    +0.191 C 
ATOM      2  O   UNL     1       8.923   0.306  25.451  0.00  0.00    -0.330 OA
ATOM      3  C   UNL     1       7.596   0.555  24.947  0.00  0.00    +0.340 C 
ATOM      4  C   UNL     1       7.509   1.665  23.788  0.00  0.00    +0.221 C 
ATOM      5  C   UNL     1       8.770   1.675  22.897  0.00  0.00    +0.180 C 
ATOM      6  C   UNL     1      10.032   1.677  23.754  0.00  0.00    +0.178 C 
ENDROOT
BRANCH   6   7
ATOM      7  O   UNL     1      11.156   1.801  22.866  0.00  0.00    -0.386 OA
ATOM      8  H   UNL     1      11.830   2.353  23.306  0.00  0.00    +0.210 HD
ENDBRANCH   6   7
BRANCH   5   9
ATOM      9  O   UNL     1       8.872   2.737  21.947  0.00  0.00    -0.386 OA
ATOM     10  H   UNL     1       9.592   2.478  21.333  0.00  0.00    +0.210 HD
ENDBRANCH   5   9
BRANCH   4  11
ATOM     11  O   UNL     1       7.138   2.984  24.262  0.00  0.00    -0.337 OA
BRANCH  11  12
ATOM     12  C   UNL     1       8.188   3.741  24.920  0.00  0.00    +0.282 C 
ATOM     13  O   UNL     1       7.948   3.757  26.340  0.00  0.00    -0.341 OA
ATOM     14  C   UNL     1       6.787   4.499  26.741  0.00  0.00    +0.178 C 
ATOM     15  C   UNL     1       6.780   5.949  26.199  0.00  0.00    +0.177 C 
ATOM     16  C   UNL     1       7.102   5.993  24.702  0.00  0.00    +0.179 C 
ATOM     17  C   UNL     1       8.391   5.206  24.439  0.00  0.00    +0.201 C 
BRANCH  17  18
ATOM     18  O   UNL     1       8.809   5.364  23.076  0.00  0.00    -0.384 OA
ATOM     19  H   UNL     1       8.854   6.321  22.901  0.00  0.00    +0.210 HD
ENDBRANCH  17  18
BRANCH  16  20
ATOM     20  O   UNL     1       6.025   5.529  23.884  0.00  0.00    -0.386 OA
ATOM     21  H   UNL     1       5.294   6.190  23.915  0.00  0.00    +0.210 HD
ENDBRANCH  16  20
BRANCH  15  22
ATOM     22  O   UNL     1       7.753   6.743  26.896  0.00  0.00    -0.386 OA
ATOM     23  H   UNL     1       8.348   6.149  27.387  0.00  0.00    +0.210 HD
ENDBRANCH  15  22
BRANCH  14  24
ATOM     24  C   UNL     1       6.745   4.485  28.282  0.00  0.00    +0.190 C 
BRANCH  24  25
ATOM     25  O   UNL     1       7.491   3.399  28.842  0.00  0.00    -0.392 OA
ATOM     26  H   UNL     1       8.339   3.757  29.156  0.00  0.00    +0.210 HD
ENDBRANCH  24  25
ENDBRANCH  14  24
ENDBRANCH  11  12
ENDBRANCH   4  11
BRANCH   3  27
ATOM     27  O   UNL     1       6.625   0.886  26.004  0.00  0.00    -0.453 OA
BRANCH  27  28
ATOM     28  C   UNL     1       5.447   0.226  26.350  0.00  0.00    +0.214 A 
ATOM     29  C   UNL     1       5.606  -1.176  26.949  0.00  0.00    +0.238 A 
ATOM     30  O   UNL     1       6.749  -1.628  27.118  0.00  0.00    -0.283 OA
ATOM     31  C   UNL     1       4.382  -1.920  27.396  0.00  0.00    +0.109 A 
ATOM     32  C   UNL     1       3.153  -1.299  27.210  0.00  0.00    +0.147 A 
ATOM     33  C   UNL     1       1.941  -1.905  27.581  0.00  0.00    +0.092 A 
ATOM     34  C   UNL     1       1.955  -3.160  28.163  0.00  0.00    +0.124 A 
ATOM     35  C   UNL     1       3.163  -3.807  28.391  0.00  0.00    +0.091 A 
ATOM     36  O   UNL     1       3.036  -0.043  26.701  0.00  0.00    -0.451 OA
ATOM     37  C   UNL     1       4.371  -3.188  28.014  0.00  0.00    +0.135 A 
ATOM     38  C   UNL     1       4.169   0.675  26.407  0.00  0.00    +0.181 A 
BRANCH  38  39
ATOM     39  C   UNL     1       3.859   2.091  26.440  0.00  0.00    +0.025 A 
ATOM     40  C   UNL     1       3.610   2.779  27.608  0.00  0.00    +0.015 A 
ATOM     41  C   UNL     1       3.097   4.063  27.493  0.00  0.00    +0.050 A 
ATOM     42  C   UNL     1       2.807   4.633  26.246  0.00  0.00    +0.158 A 
ATOM     43  C   UNL     1       3.241   4.014  25.081  0.00  0.00    +0.162 A 
ATOM     44  C   UNL     1       3.807   2.750  25.204  0.00  0.00    +0.061 A 
BRANCH  43  45
ATOM     45  O   UNL     1       3.235   4.421  23.786  0.00  0.00    -0.491 OA
ATOM     46  C   UNL     1       3.334   3.512  22.714  0.00  0.00    +0.277 C 
ENDBRANCH  43  45
BRANCH  42  47
ATOM     47  O   UNL     1       2.066   5.772  26.312  0.00  0.00    -0.503 OA
ATOM     48  H   UNL     1       1.180   5.538  26.620  0.00  0.00    +0.292 HD
ENDBRANCH  42  47
ENDBRANCH  38  39
BRANCH  37  49
ATOM     49  O   UNL     1       5.534  -3.861  28.276  0.00  0.00    -0.506 OA
ATOM     50  H   UNL     1       5.825  -4.341  27.481  0.00  0.00    +0.292 HD
ENDBRANCH  37  49
BRANCH  34  51
ATOM     51  O   UNL     1       0.804  -3.789  28.550  0.00  0.00    -0.507 OA
ATOM     52  H   UNL     1       0.958  -4.752  28.543  0.00  0.00    +0.292 HD
ENDBRANCH  34  51
ENDBRANCH  27  28
ENDBRANCH   3  27
BRANCH   1  53
ATOM     53  C   UNL     1      10.287  -0.809  23.567  0.00  0.00    +0.266 C 
BRANCH  53  54
ATOM     54  O   UNL     1       9.521  -1.987  23.815  0.00  0.00    -0.459 OA
BRANCH  54  55
ATOM     55  C   UNL     1       8.550  -2.315  22.934  0.00  0.00    +0.332 C 
ATOM     56  O   UNL     1       8.367  -1.835  21.848  0.00  0.00    -0.246 OA
BRANCH  55  58
ATOM     57  C   UNL     1       6.394  -3.291  23.596  0.00  0.00    +0.015 C 
ATOM     58  C   UNL     1       7.730  -3.346  23.603  0.00  0.00    +0.092 C 
BRANCH  57  63
ATOM     59  C   UNL     1       3.845  -6.041  23.650  0.00  0.00    +0.166 A 
ATOM     60  C   UNL     1       4.201  -6.742  24.826  0.00  0.00    +0.201 A 
ATOM     61  C   UNL     1       5.205  -6.244  25.662  0.00  0.00    +0.166 A 
ATOM     62  C   UNL     1       5.870  -5.070  25.271  0.00  0.00    +0.057 A 
ATOM     63  C   UNL     1       5.553  -4.386  24.092  0.00  0.00    -0.018 A 
ATOM     64  C   UNL     1       4.504  -4.856  23.307  0.00  0.00    +0.057 A 
BRANCH  59  66
ATOM     65  C   UNL     1       1.596  -5.828  22.935  0.00  0.00    +0.277 C 
ATOM     66  O   UNL     1       2.817  -6.563  22.897  0.00  0.00    -0.491 OA
ENDBRANCH  59  66
BRANCH  61  67
ATOM     67  O   UNL     1       5.716  -6.712  26.837  0.00  0.00    -0.491 OA
ATOM     68  C   UNL     1       4.899  -7.050  27.938  0.00  0.00    +0.277 C 
ENDBRANCH  61  67
BRANCH  60  69
ATOM     69  O   UNL     1       3.541  -7.924  25.036  0.00  0.00    -0.501 OA
ATOM     70  H   UNL     1       3.052  -7.879  25.864  0.00  0.00    +0.292 HD
ENDBRANCH  60  69
ENDBRANCH  57  63
ENDBRANCH  55  58
ENDBRANCH  54  55
ENDBRANCH  53  54
ENDBRANCH   1  53
TORSDOF 24
ENDMDL
MODEL 8
REMARK VINA RESULT:      -6.0      2.074      9.205
REMARK  Name = 
REMARK  27 active torsions:
REMARK  status: ('A' for Active; 'I' for Inactive)
REMARK    1  A    between atoms: C_1  and  O_2
REMARK    2  A    between atoms: O_2  and  C_3
REMARK    3  A    between atoms: C_5  and  C_12
REMARK    4  A    between atoms: C_7  and  O_10
REMARK    5  A    between atoms: C_8  and  O_9
REMARK    6  A    between atoms: O_10  and  C_11
REMARK    7  A    between atoms: C_13  and  C_14
REMARK    8  A    between atoms: C_14  and  O_16
REMARK    9  A    between atoms: O_16  and  C_17
REMARK   10  A    between atoms: C_17  and  C_18
REMARK   11  A    between atoms: C_19  and  O_66
REMARK   12  A    between atoms: C_21  and  O_65
REMARK   13  A    between atoms: C_23  and  O_50
REMARK   14  A    between atoms: C_24  and  O_27
REMARK   15  A    between atoms: O_27  and  C_28
REMARK   16  A    between atoms: C_29  and  C_41
REMARK   17  A    between atoms: C_33  and  O_40
REMARK   18  A    between atoms: C_35  and  O_39
REMARK   19  A    between atoms: C_43  and  O_48
REMARK   20  A    between atoms: C_44  and  O_47
REMARK   21  A    between atoms: O_48  and  C_49
REMARK   22  A    between atoms: O_50  and  C_51
REMARK   23  A    between atoms: C_53  and  O_64
REMARK   24  A    between atoms: C_54  and  O_63
REMARK   25  A    between atoms: C_56  and  O_62
REMARK   26  A    between atoms: C_58  and  C_60
REMARK   27  A    between atoms: C_60  and  O_61
REMARK                            x       y       z     vdW  Elec       q    Type
REMARK                         _______ _______ _______ _____ _____    ______ ____
ROOT
ATOM      1  C   UNL     1       4.541   0.951  26.665  0.00  0.00    +0.191 C 
ATOM      2  O   UNL     1       5.497   1.253  25.623  0.00  0.00    -0.330 OA
ATOM      3  C   UNL     1       6.252   2.479  25.679  0.00  0.00    +0.340 C 
ATOM      4  C   UNL     1       5.457   3.735  26.290  0.00  0.00    +0.221 C 
ATOM      5  C   UNL     1       4.447   3.312  27.377  0.00  0.00    +0.180 C 
ATOM      6  C   UNL     1       3.602   2.136  26.896  0.00  0.00    +0.178 C 
ENDROOT
BRANCH   6   7
ATOM      7  O   UNL     1       2.616   1.872  27.908  0.00  0.00    -0.386 OA
ATOM      8  H   UNL     1       1.796   2.341  27.661  0.00  0.00    +0.210 HD
ENDBRANCH   6   7
BRANCH   5   9
ATOM      9  O   UNL     1       3.567   4.328  27.862  0.00  0.00    -0.386 OA
ATOM     10  H   UNL     1       4.119   4.914  28.423  0.00  0.00    +0.210 HD
ENDBRANCH   5   9
BRANCH   4  11
ATOM     11  O   UNL     1       4.880   4.611  25.288  0.00  0.00    -0.337 OA
BRANCH  11  12
ATOM     12  C   UNL     1       4.837   4.085  23.935  0.00  0.00    +0.282 C 
ATOM     13  O   UNL     1       5.418   5.044  23.031  0.00  0.00    -0.341 OA
ATOM     14  C   UNL     1       4.660   6.253  22.875  0.00  0.00    +0.178 C 
ATOM     15  C   UNL     1       3.187   5.996  22.480  0.00  0.00    +0.177 C 
ATOM     16  C   UNL     1       2.542   4.927  23.368  0.00  0.00    +0.179 C 
ATOM     17  C   UNL     1       3.437   3.683  23.392  0.00  0.00    +0.201 C 
BRANCH  17  18
ATOM     18  O   UNL     1       2.785   2.607  24.081  0.00  0.00    -0.384 OA
ATOM     19  H   UNL     1       2.857   1.819  23.512  0.00  0.00    +0.210 HD
ENDBRANCH  17  18
BRANCH  16  20
ATOM     20  O   UNL     1       2.257   5.396  24.689  0.00  0.00    -0.386 OA
ATOM     21  H   UNL     1       1.951   6.331  24.636  0.00  0.00    +0.210 HD
ENDBRANCH  16  20
BRANCH  15  22
ATOM     22  O   UNL     1       3.110   5.556  21.115  0.00  0.00    -0.386 OA
ATOM     23  H   UNL     1       3.570   6.203  20.551  0.00  0.00    +0.210 HD
ENDBRANCH  15  22
BRANCH  14  24
ATOM     24  C   UNL     1       5.377   7.108  21.812  0.00  0.00    +0.190 C 
BRANCH  24  25
ATOM     25  O   UNL     1       6.687   6.619  21.504  0.00  0.00    -0.392 OA
ATOM     26  H   UNL     1       7.023   7.135  20.751  0.00  0.00    +0.210 HD
ENDBRANCH  24  25
ENDBRANCH  14  24
ENDBRANCH  11  12
ENDBRANCH   4  11
BRANCH   3  27
ATOM     27  O   UNL     1       6.834   2.862  24.381  0.00  0.00    -0.453 OA
BRANCH  27  28
ATOM     28  C   UNL     1       8.172   3.059  24.046  0.00  0.00    +0.214 A 
ATOM     29  C   UNL     1       8.724   4.474  24.258  0.00  0.00    +0.238 A 
ATOM     30  O   UNL     1       7.976   5.342  24.733  0.00  0.00    -0.283 OA
ATOM     31  C   UNL     1      10.171   4.742  23.969  0.00  0.00    +0.109 A 
ATOM     32  C   UNL     1      10.935   3.684  23.490  0.00  0.00    +0.147 A 
ATOM     33  C   UNL     1      12.297   3.822  23.177  0.00  0.00    +0.092 A 
ATOM     34  C   UNL     1      12.919   5.045  23.357  0.00  0.00    +0.124 A 
ATOM     35  C   UNL     1      12.201   6.123  23.858  0.00  0.00    +0.091 A 
ATOM     36  O   UNL     1      10.432   2.430  23.335  0.00  0.00    -0.451 OA
ATOM     37  C   UNL     1      10.835   5.971  24.168  0.00  0.00    +0.135 A 
ATOM     38  C   UNL     1       9.139   2.168  23.715  0.00  0.00    +0.181 A 
BRANCH  38  39
ATOM     39  C   UNL     1       9.002   0.754  24.003  0.00  0.00    +0.025 A 
ATOM     40  C   UNL     1       9.555   0.157  25.116  0.00  0.00    +0.015 A 
ATOM     41  C   UNL     1       9.557  -1.230  25.158  0.00  0.00    +0.050 A 
ATOM     42  C   UNL     1       9.055  -2.002  24.102  0.00  0.00    +0.158 A 
ATOM     43  C   UNL     1       8.329  -1.398  23.083  0.00  0.00    +0.162 A 
ATOM     44  C   UNL     1       8.280  -0.009  23.074  0.00  0.00    +0.061 A 
BRANCH  43  45
ATOM     45  O   UNL     1       7.614  -1.917  22.053  0.00  0.00    -0.491 OA
ATOM     46  C   UNL     1       6.402  -2.607  22.253  0.00  0.00    +0.277 C 
ENDBRANCH  43  45
BRANCH  42  47
ATOM     47  O   UNL     1       9.375  -3.323  24.174  0.00  0.00    -0.503 OA
ATOM     48  H   UNL     1       8.597  -3.836  23.915  0.00  0.00    +0.292 HD
ENDBRANCH  42  47
ENDBRANCH  38  39
BRANCH  37  49
ATOM     49  O   UNL     1      10.178   7.060  24.673  0.00  0.00    -0.506 OA
ATOM     50  H   UNL     1       9.614   6.790  25.419  0.00  0.00    +0.292 HD
ENDBRANCH  37  49
BRANCH  34  51
ATOM     51  O   UNL     1      14.245   5.228  23.076  0.00  0.00    -0.507 OA
ATOM     52  H   UNL     1      14.474   4.691  22.294  0.00  0.00    +0.292 HD
ENDBRANCH  34  51
ENDBRANCH  27  28
ENDBRANCH   3  27
BRANCH   1  53
ATOM     53  C   UNL     1       5.081   0.471  28.047  0.00  0.00    +0.266 C 
BRANCH  53  54
ATOM     54  O   UNL     1       4.330  -0.560  28.684  0.00  0.00    -0.459 OA
BRANCH  54  55
ATOM     55  C   UNL     1       3.379  -1.197  27.964  0.00  0.00    +0.332 C 
ATOM     56  O   UNL     1       2.197  -0.979  27.976  0.00  0.00    -0.246 OA
BRANCH  55  58
ATOM     57  C   UNL     1       3.430  -3.284  26.669  0.00  0.00    +0.015 C 
ATOM     58  C   UNL     1       4.085  -2.248  27.204  0.00  0.00    +0.092 C 
BRANCH  57  63
ATOM     59  C   UNL     1       3.992  -5.498  23.694  0.00  0.00    +0.166 A 
ATOM     60  C   UNL     1       5.383  -5.744  23.777  0.00  0.00    +0.201 A 
ATOM     61  C   UNL     1       6.114  -5.278  24.874  0.00  0.00    +0.166 A 
ATOM     62  C   UNL     1       5.438  -4.526  25.848  0.00  0.00    +0.057 A 
ATOM     63  C   UNL     1       4.069  -4.243  25.761  0.00  0.00    -0.018 A 
ATOM     64  C   UNL     1       3.343  -4.773  24.699  0.00  0.00    +0.057 A 
BRANCH  59  66
ATOM     65  C   UNL     1       2.046  -6.584  22.893  0.00  0.00    +0.277 C 
ATOM     66  O   UNL     1       3.326  -6.024  22.611  0.00  0.00    -0.491 OA
ENDBRANCH  59  66
BRANCH  61  67
ATOM     67  O   UNL     1       7.436  -5.393  25.192  0.00  0.00    -0.491 OA
ATOM     68  C   UNL     1       7.907  -5.292  26.519  0.00  0.00    +0.277 C 
ENDBRANCH  61  67
BRANCH  60  69
ATOM     69  O   UNL     1       5.933  -6.405  22.710  0.00  0.00    -0.501 OA
ATOM     70  H   UNL     1       6.870  -6.196  22.647  0.00  0.00    +0.292 HD
ENDBRANCH  60  69
ENDBRANCH  57  63
ENDBRANCH  55  58
ENDBRANCH  54  55
ENDBRANCH  53  54
ENDBRANCH   1  53
TORSDOF 24
ENDMDL
MODEL 9
REMARK VINA RESULT:      -5.9      2.307      4.445
REMARK  Name = 
REMARK  27 active torsions:
REMARK  status: ('A' for Active; 'I' for Inactive)
REMARK    1  A    between atoms: C_1  and  O_2
REMARK    2  A    between atoms: O_2  and  C_3
REMARK    3  A    between atoms: C_5  and  C_12
REMARK    4  A    between atoms: C_7  and  O_10
REMARK    5  A    between atoms: C_8  and  O_9
REMARK    6  A    between atoms: O_10  and  C_11
REMARK    7  A    between atoms: C_13  and  C_14
REMARK    8  A    between atoms: C_14  and  O_16
REMARK    9  A    between atoms: O_16  and  C_17
REMARK   10  A    between atoms: C_17  and  C_18
REMARK   11  A    between atoms: C_19  and  O_66
REMARK   12  A    between atoms: C_21  and  O_65
REMARK   13  A    between atoms: C_23  and  O_50
REMARK   14  A    between atoms: C_24  and  O_27
REMARK   15  A    between atoms: O_27  and  C_28
REMARK   16  A    between atoms: C_29  and  C_41
REMARK   17  A    between atoms: C_33  and  O_40
REMARK   18  A    between atoms: C_35  and  O_39
REMARK   19  A    between atoms: C_43  and  O_48
REMARK   20  A    between atoms: C_44  and  O_47
REMARK   21  A    between atoms: O_48  and  C_49
REMARK   22  A    between atoms: O_50  and  C_51
REMARK   23  A    between atoms: C_53  and  O_64
REMARK   24  A    between atoms: C_54  and  O_63
REMARK   25  A    between atoms: C_56  and  O_62
REMARK   26  A    between atoms: C_58  and  C_60
REMARK   27  A    between atoms: C_60  and  O_61
REMARK                            x       y       z     vdW  Elec       q    Type
REMARK                         _______ _______ _______ _____ _____    ______ ____
ROOT
ATOM      1  C   UNL     1       8.892  -1.016  23.927  0.00  0.00    +0.191 C 
ATOM      2  O   UNL     1       7.600  -1.022  24.574  0.00  0.00    -0.330 OA
ATOM      3  C   UNL     1       7.358  -1.914  25.680  0.00  0.00    +0.340 C 
ATOM      4  C   UNL     1       8.099  -3.337  25.576  0.00  0.00    +0.221 C 
ATOM      5  C   UNL     1       9.458  -3.232  24.853  0.00  0.00    +0.180 C 
ATOM      6  C   UNL     1       9.318  -2.438  23.558  0.00  0.00    +0.178 C 
ENDROOT
BRANCH   6   7
ATOM      7  O   UNL     1      10.588  -2.479  22.887  0.00  0.00    -0.386 OA
ATOM      8  H   UNL     1      10.810  -3.414  22.716  0.00  0.00    +0.210 HD
ENDBRANCH   6   7
BRANCH   5   9
ATOM      9  O   UNL     1      10.118  -4.464  24.554  0.00  0.00    -0.386 OA
ATOM     10  H   UNL     1       9.600  -5.162  25.009  0.00  0.00    +0.210 HD
ENDBRANCH   5   9
BRANCH   4  11
ATOM     11  O   UNL     1       7.260  -4.401  25.061  0.00  0.00    -0.337 OA
BRANCH  11  12
ATOM     12  C   UNL     1       5.993  -3.988  24.484  0.00  0.00    +0.282 C 
ATOM     13  O   UNL     1       4.948  -4.862  24.950  0.00  0.00    -0.341 OA
ATOM     14  C   UNL     1       5.038  -6.211  24.467  0.00  0.00    +0.178 C 
ATOM     15  C   UNL     1       5.134  -6.296  22.925  0.00  0.00    +0.177 C 
ATOM     16  C   UNL     1       6.185  -5.329  22.371  0.00  0.00    +0.179 C 
ATOM     17  C   UNL     1       5.926  -3.926  22.931  0.00  0.00    +0.201 C 
BRANCH  17  18
ATOM     18  O   UNL     1       6.791  -2.966  22.307  0.00  0.00    -0.384 OA
ATOM     19  H   UNL     1       7.415  -3.465  21.749  0.00  0.00    +0.210 HD
ENDBRANCH  17  18
BRANCH  16  20
ATOM     20  O   UNL     1       7.526  -5.757  22.622  0.00  0.00    -0.386 OA
ATOM     21  H   UNL     1       8.104  -4.963  22.701  0.00  0.00    +0.210 HD
ENDBRANCH  16  20
BRANCH  15  22
ATOM     22  O   UNL     1       3.866  -5.974  22.332  0.00  0.00    -0.386 OA
ATOM     23  H   UNL     1       3.919  -5.084  21.942  0.00  0.00    +0.210 HD
ENDBRANCH  15  22
BRANCH  14  24
ATOM     24  C   UNL     1       3.798  -6.966  24.987  0.00  0.00    +0.190 C 
BRANCH  24  25
ATOM     25  O   UNL     1       3.415  -8.048  24.132  0.00  0.00    -0.392 OA
ATOM     26  H   UNL     1       2.750  -7.708  23.509  0.00  0.00    +0.210 HD
ENDBRANCH  24  25
ENDBRANCH  14  24
ENDBRANCH  11  12
ENDBRANCH   4  11
BRANCH   3  27
ATOM     27  O   UNL     1       5.926  -2.135  25.946  0.00  0.00    -0.453 OA
BRANCH  27  28
ATOM     28  C   UNL     1       5.107  -1.529  26.896  0.00  0.00    +0.214 A 
ATOM     29  C   UNL     1       4.497  -0.178  26.504  0.00  0.00    +0.238 A 
ATOM     30  O   UNL     1       4.735   0.280  25.375  0.00  0.00    -0.283 OA
ATOM     31  C   UNL     1       3.562   0.504  27.458  0.00  0.00    +0.109 A 
ATOM     32  C   UNL     1       3.321  -0.123  28.676  0.00  0.00    +0.147 A 
ATOM     33  C   UNL     1       2.471   0.428  29.649  0.00  0.00    +0.092 A 
ATOM     34  C   UNL     1       1.835   1.630  29.399  0.00  0.00    +0.124 A 
ATOM     35  C   UNL     1       2.025   2.278  28.185  0.00  0.00    +0.091 A 
ATOM     36  O   UNL     1       3.852  -1.335  28.993  0.00  0.00    -0.451 OA
ATOM     37  C   UNL     1       2.881   1.715  27.218  0.00  0.00    +0.135 A 
ATOM     38  C   UNL     1       4.610  -2.005  28.065  0.00  0.00    +0.181 A 
BRANCH  38  39
ATOM     39  C   UNL     1       4.582  -3.423  28.359  0.00  0.00    +0.025 A 
ATOM     40  C   UNL     1       5.704  -4.223  28.313  0.00  0.00    +0.015 A 
ATOM     41  C   UNL     1       5.510  -5.595  28.382  0.00  0.00    +0.050 A 
ATOM     42  C   UNL     1       4.229  -6.157  28.458  0.00  0.00    +0.158 A 
ATOM     43  C   UNL     1       3.128  -5.347  28.699  0.00  0.00    +0.162 A 
ATOM     44  C   UNL     1       3.334  -3.972  28.686  0.00  0.00    +0.061 A 
BRANCH  43  45
ATOM     45  O   UNL     1       1.830  -5.641  28.970  0.00  0.00    -0.491 OA
ATOM     46  C   UNL     1       0.824  -4.655  28.985  0.00  0.00    +0.277 C 
ENDBRANCH  43  45
BRANCH  42  47
ATOM     47  O   UNL     1       4.195  -7.501  28.245  0.00  0.00    -0.503 OA
ATOM     48  H   UNL     1       3.416  -7.701  27.707  0.00  0.00    +0.292 HD
ENDBRANCH  42  47
ENDBRANCH  38  39
BRANCH  37  49
ATOM     49  O   UNL     1       3.021   2.386  26.033  0.00  0.00    -0.506 OA
ATOM     50  H   UNL     1       2.570   3.246  26.083  0.00  0.00    +0.292 HD
ENDBRANCH  37  49
BRANCH  34  51
ATOM     51  O   UNL     1       0.991   2.203  30.310  0.00  0.00    -0.507 OA
ATOM     52  H   UNL     1       0.341   2.749  29.831  0.00  0.00    +0.292 HD
ENDBRANCH  34  51
ENDBRANCH  27  28
ENDBRANCH   3  27
BRANCH   1  53
ATOM     53  C   UNL     1      10.080  -0.318  24.656  0.00  0.00    +0.266 C 
BRANCH  53  54
ATOM     54  O   UNL     1      10.859   0.575  23.862  0.00  0.00    -0.459 OA
BRANCH  54  55
ATOM     55  C   UNL     1      10.217   1.544  23.173  0.00  0.00    +0.332 C 
ATOM     56  O   UNL     1      10.264   1.741  21.989  0.00  0.00    -0.246 OA
BRANCH  55  58
ATOM     57  C   UNL     1       8.195   2.638  24.041  0.00  0.00    +0.015 C 
ATOM     58  C   UNL     1       9.492   2.342  24.182  0.00  0.00    +0.092 C 
BRANCH  57  63
ATOM     59  C   UNL     1       5.720   4.885  25.743  0.00  0.00    +0.166 A 
ATOM     60  C   UNL     1       5.566   4.247  26.996  0.00  0.00    +0.201 A 
ATOM     61  C   UNL     1       6.362   3.145  27.325  0.00  0.00    +0.166 A 
ATOM     62  C   UNL     1       7.267   2.672  26.362  0.00  0.00    +0.057 A 
ATOM     63  C   UNL     1       7.405   3.270  25.104  0.00  0.00    -0.018 A 
ATOM     64  C   UNL     1       6.656   4.408  24.819  0.00  0.00    +0.057 A 
BRANCH  59  66
ATOM     65  C   UNL     1       4.105   5.913  24.349  0.00  0.00    +0.277 C 
ATOM     66  O   UNL     1       4.938   5.991  25.503  0.00  0.00    -0.491 OA
ENDBRANCH  59  66
BRANCH  61  67
ATOM     67  O   UNL     1       6.418   2.376  28.451  0.00  0.00    -0.491 OA
ATOM     68  C   UNL     1       6.840   2.887  29.697  0.00  0.00    +0.277 C 
ENDBRANCH  61  67
BRANCH  60  69
ATOM     69  O   UNL     1       4.579   4.751  27.801  0.00  0.00    -0.501 OA
ATOM     70  H   UNL     1       4.966   5.097  28.611  0.00  0.00    +0.292 HD
ENDBRANCH  60  69
ENDBRANCH  57  63
ENDBRANCH  55  58
ENDBRANCH  54  55
ENDBRANCH  53  54
ENDBRANCH   1  53
TORSDOF 24
ENDMDL
