MODEL 1
REMARK VINA RESULT:      -7.5      0.000      0.000
REMARK  Name = 
REMARK  14 active torsions:
REMARK  status: ('A' for Active; 'I' for Inactive)
REMARK    1  A    between atoms: C_1  and  O_2
REMARK    2  A    between atoms: O_2  and  C_3
REMARK    3  A    between atoms: C_4  and  O_24
REMARK    4  A    between atoms: C_7  and  C_9
REMARK    5  A    between atoms: C_10  and  O_22
REMARK    6  A    between atoms: C_14  and  O_21
REMARK    7  A    between atoms: C_16  and  O_20
REMARK    8  A    between atoms: O_22  and  C_23
REMARK    9  A    between atoms: O_24  and  C_25
REMARK   10  A    between atoms: C_27  and  O_37
REMARK   11  A    between atoms: C_28  and  O_36
REMARK   12  A    between atoms: C_29  and  O_35
REMARK   13  A    between atoms: C_31  and  C_33
REMARK   14  A    between atoms: C_33  and  O_34
REMARK                            x       y       z     vdW  Elec       q    Type
REMARK                         _______ _______ _______ _____ _____    ______ ____
ROOT
ATOM      1  C   UNL     1       8.457  -1.520  24.606  0.00  0.00    +0.162 A 
ATOM      2  C   UNL     1       8.822  -0.174  24.832  0.00  0.00    +0.061 A 
ATOM      3  C   UNL     1       8.377   0.849  23.979  0.00  0.00    +0.025 A 
ATOM      4  C   UNL     1       7.481   0.510  22.959  0.00  0.00    +0.015 A 
ATOM      5  C   UNL     1       7.094  -0.826  22.743  0.00  0.00    +0.050 A 
ATOM      6  C   UNL     1       7.597  -1.856  23.541  0.00  0.00    +0.165 A 
ENDROOT
BRANCH   3   7
ATOM      7  C   UNL     1       8.834   2.254  24.139  0.00  0.00    +0.181 A 
ATOM      8  O   UNL     1      10.111   2.440  23.594  0.00  0.00    -0.451 OA
ATOM      9  C   UNL     1      10.733   3.658  23.733  0.00  0.00    +0.147 A 
ATOM     10  C   UNL     1      10.105   4.762  24.287  0.00  0.00    +0.109 A 
ATOM     11  C   UNL     1      10.783   5.987  24.414  0.00  0.00    +0.135 A 
ATOM     12  C   UNL     1      12.104   6.109  23.994  0.00  0.00    +0.091 A 
ATOM     13  C   UNL     1      12.730   5.002  23.436  0.00  0.00    +0.124 A 
ATOM     14  C   UNL     1       8.732   4.608  24.752  0.00  0.00    +0.238 A 
ATOM     15  O   UNL     1       8.136   5.596  25.183  0.00  0.00    -0.283 OA
ATOM     16  C   UNL     1      12.054   3.781  23.296  0.00  0.00    +0.092 A 
ATOM     17  C   UNL     1       8.115   3.246  24.728  0.00  0.00    +0.211 A 
BRANCH  11  18
ATOM     18  O   UNL     1      10.213   7.108  24.954  0.00  0.00    -0.506 OA
ATOM     19  H   UNL     1      10.332   7.849  24.317  0.00  0.00    +0.292 HD
ENDBRANCH  11  18
BRANCH  13  20
ATOM     20  O   UNL     1      14.025   5.076  23.014  0.00  0.00    -0.507 OA
ATOM     21  H   UNL     1      14.052   4.917  22.054  0.00  0.00    +0.292 HD
ENDBRANCH  13  20
BRANCH  17  22
ATOM     22  O   UNL     1       6.884   3.234  25.329  0.00  0.00    -0.488 OA
ATOM     23  C   UNL     1       5.663   3.308  24.628  0.00  0.00    +0.277 C 
ENDBRANCH  17  22
ENDBRANCH   3   7
BRANCH   1  25
ATOM     24  C   UNL     1       8.202  -2.692  26.651  0.00  0.00    +0.277 C 
ATOM     25  O   UNL     1       8.879  -2.557  25.405  0.00  0.00    -0.491 OA
ENDBRANCH   1  25
BRANCH   6  26
ATOM     26  O   UNL     1       7.225  -3.175  23.389  0.00  0.00    -0.457 OA
BRANCH  26  27
ATOM     27  C   UNL     1       5.815  -3.477  23.447  0.00  0.00    +0.339 C 
ATOM     28  O   UNL     1       5.430  -4.226  24.602  0.00  0.00    -0.331 OA
ATOM     29  C   UNL     1       6.050  -5.533  24.706  0.00  0.00    +0.179 C 
ATOM     30  C   UNL     1       5.890  -6.396  23.439  0.00  0.00    +0.177 C 
ATOM     31  C   UNL     1       6.141  -5.604  22.157  0.00  0.00    +0.180 C 
ATOM     32  C   UNL     1       5.366  -4.284  22.201  0.00  0.00    +0.214 C 
BRANCH  30  33
ATOM     33  O   UNL     1       4.562  -6.947  23.347  0.00  0.00    -0.386 OA
ATOM     34  H   UNL     1       4.135  -6.434  22.626  0.00  0.00    +0.210 HD
ENDBRANCH  30  33
BRANCH  31  35
ATOM     35  O   UNL     1       5.683  -6.400  21.043  0.00  0.00    -0.386 OA
ATOM     36  H   UNL     1       6.406  -7.038  20.877  0.00  0.00    +0.210 HD
ENDBRANCH  31  35
BRANCH  32  37
ATOM     37  O   UNL     1       5.543  -3.605  20.951  0.00  0.00    -0.383 OA
ATOM     38  H   UNL     1       4.672  -3.575  20.516  0.00  0.00    +0.210 HD
ENDBRANCH  32  37
BRANCH  29  39
ATOM     39  C   UNL     1       5.407  -6.231  25.922  0.00  0.00    +0.190 C 
BRANCH  39  40
ATOM     40  O   UNL     1       6.263  -6.223  27.069  0.00  0.00    -0.392 OA
ATOM     41  H   UNL     1       5.850  -6.770  27.752  0.00  0.00    +0.210 HD
ENDBRANCH  39  40
ENDBRANCH  29  39
ENDBRANCH  26  27
ENDBRANCH   6  26
TORSDOF 12
ENDMDL
MODEL 2
REMARK VINA RESULT:      -7.5      1.952      3.223
REMARK  Name = 
REMARK  14 active torsions:
REMARK  status: ('A' for Active; 'I' for Inactive)
REMARK    1  A    between atoms: C_1  and  O_2
REMARK    2  A    between atoms: O_2  and  C_3
REMARK    3  A    between atoms: C_4  and  O_24
REMARK    4  A    between atoms: C_7  and  C_9
REMARK    5  A    between atoms: C_10  and  O_22
REMARK    6  A    between atoms: C_14  and  O_21
REMARK    7  A    between atoms: C_16  and  O_20
REMARK    8  A    between atoms: O_22  and  C_23
REMARK    9  A    between atoms: O_24  and  C_25
REMARK   10  A    between atoms: C_27  and  O_37
REMARK   11  A    between atoms: C_28  and  O_36
REMARK   12  A    between atoms: C_29  and  O_35
REMARK   13  A    between atoms: C_31  and  C_33
REMARK   14  A    between atoms: C_33  and  O_34
REMARK                            x       y       z     vdW  Elec       q    Type
REMARK                         _______ _______ _______ _____ _____    ______ ____
ROOT
ATOM      1  C   UNL     1       7.901  -2.865  24.676  0.00  0.00    +0.162 A 
ATOM      2  C   UNL     1       8.514  -1.592  24.654  0.00  0.00    +0.061 A 
ATOM      3  C   UNL     1       7.782  -0.441  24.322  0.00  0.00    +0.025 A 
ATOM      4  C   UNL     1       6.404  -0.579  24.112  0.00  0.00    +0.015 A 
ATOM      5  C   UNL     1       5.782  -1.840  24.156  0.00  0.00    +0.050 A 
ATOM      6  C   UNL     1       6.523  -2.996  24.409  0.00  0.00    +0.165 A 
ENDROOT
BRANCH   3   7
ATOM      7  C   UNL     1       8.431   0.889  24.192  0.00  0.00    +0.181 A 
ATOM      8  O   UNL     1       7.898   1.809  25.103  0.00  0.00    -0.451 OA
ATOM      9  C   UNL     1       8.315   3.118  25.063  0.00  0.00    +0.147 A 
ATOM     10  C   UNL     1       9.337   3.554  24.234  0.00  0.00    +0.109 A 
ATOM     11  C   UNL     1       9.726   4.905  24.223  0.00  0.00    +0.135 A 
ATOM     12  C   UNL     1       9.084   5.832  25.038  0.00  0.00    +0.091 A 
ATOM     13  C   UNL     1       8.063   5.390  25.870  0.00  0.00    +0.124 A 
ATOM     14  C   UNL     1       9.978   2.577  23.363  0.00  0.00    +0.238 A 
ATOM     15  O   UNL     1      10.932   2.933  22.672  0.00  0.00    -0.283 OA
ATOM     16  C   UNL     1       7.678   4.042  25.894  0.00  0.00    +0.092 A 
ATOM     17  C   UNL     1       9.422   1.189  23.311  0.00  0.00    +0.211 A 
BRANCH  11  18
ATOM     18  O   UNL     1      10.727   5.391  23.425  0.00  0.00    -0.506 OA
ATOM     19  H   UNL     1      11.382   4.669  23.282  0.00  0.00    +0.292 HD
ENDBRANCH  11  18
BRANCH  13  20
ATOM     20  O   UNL     1       7.403   6.266  26.683  0.00  0.00    -0.507 OA
ATOM     21  H   UNL     1       6.452   6.058  26.660  0.00  0.00    +0.292 HD
ENDBRANCH  13  20
BRANCH  17  22
ATOM     22  O   UNL     1      10.031   0.433  22.344  0.00  0.00    -0.488 OA
ATOM     23  C   UNL     1       9.365  -0.095  21.219  0.00  0.00    +0.277 C 
ENDBRANCH  17  22
ENDBRANCH   3   7
BRANCH   1  25
ATOM     24  C   UNL     1       8.795  -4.263  26.370  0.00  0.00    +0.277 C 
ATOM     25  O   UNL     1       8.581  -4.021  24.982  0.00  0.00    -0.491 OA
ENDBRANCH   1  25
BRANCH   6  26
ATOM     26  O   UNL     1       5.956  -4.251  24.493  0.00  0.00    -0.457 OA
BRANCH  26  27
ATOM     27  C   UNL     1       4.650  -4.348  25.100  0.00  0.00    +0.339 C 
ATOM     28  O   UNL     1       4.678  -4.733  26.476  0.00  0.00    -0.331 OA
ATOM     29  C   UNL     1       5.254  -6.041  26.723  0.00  0.00    +0.179 C 
ATOM     30  C   UNL     1       4.626  -7.164  25.873  0.00  0.00    +0.177 C 
ATOM     31  C   UNL     1       4.428  -6.751  24.415  0.00  0.00    +0.180 C 
ATOM     32  C   UNL     1       3.762  -5.374  24.350  0.00  0.00    +0.214 C 
BRANCH  30  33
ATOM     33  O   UNL     1       3.335  -7.547  26.387  0.00  0.00    -0.386 OA
ATOM     34  H   UNL     1       2.696  -7.162  25.748  0.00  0.00    +0.210 HD
ENDBRANCH  30  33
BRANCH  31  35
ATOM     35  O   UNL     1       3.579  -7.733  23.784  0.00  0.00    -0.386 OA
ATOM     36  H   UNL     1       3.657  -7.553  22.825  0.00  0.00    +0.210 HD
ENDBRANCH  31  35
BRANCH  32  37
ATOM     37  O   UNL     1       3.503  -5.053  22.977  0.00  0.00    -0.383 OA
ATOM     38  H   UNL     1       4.367  -4.993  22.530  0.00  0.00    +0.210 HD
ENDBRANCH  32  37
BRANCH  29  39
ATOM     39  C   UNL     1       5.065  -6.330  28.227  0.00  0.00    +0.190 C 
BRANCH  39  40
ATOM     40  O   UNL     1       5.431  -7.669  28.573  0.00  0.00    -0.392 OA
ATOM     41  H   UNL     1       6.286  -7.635  29.027  0.00  0.00    +0.210 HD
ENDBRANCH  39  40
ENDBRANCH  29  39
ENDBRANCH  26  27
ENDBRANCH   6  26
TORSDOF 12
ENDMDL
MODEL 3
REMARK VINA RESULT:      -7.3      2.100      3.732
REMARK  Name = 
REMARK  14 active torsions:
REMARK  status: ('A' for Active; 'I' for Inactive)
REMARK    1  A    between atoms: C_1  and  O_2
REMARK    2  A    between atoms: O_2  and  C_3
REMARK    3  A    between atoms: C_4  and  O_24
REMARK    4  A    between atoms: C_7  and  C_9
REMARK    5  A    between atoms: C_10  and  O_22
REMARK    6  A    between atoms: C_14  and  O_21
REMARK    7  A    between atoms: C_16  and  O_20
REMARK    8  A    between atoms: O_22  and  C_23
REMARK    9  A    between atoms: O_24  and  C_25
REMARK   10  A    between atoms: C_27  and  O_37
REMARK   11  A    between atoms: C_28  and  O_36
REMARK   12  A    between atoms: C_29  and  O_35
REMARK   13  A    between atoms: C_31  and  C_33
REMARK   14  A    between atoms: C_33  and  O_34
REMARK                            x       y       z     vdW  Elec       q    Type
REMARK                         _______ _______ _______ _____ _____    ______ ____
ROOT
ATOM      1  C   UNL     1       6.335  -2.134  23.160  0.00  0.00    +0.162 A 
ATOM      2  C   UNL     1       6.834  -0.834  22.921  0.00  0.00    +0.061 A 
ATOM      3  C   UNL     1       7.389  -0.070  23.959  0.00  0.00    +0.025 A 
ATOM      4  C   UNL     1       7.524  -0.671  25.217  0.00  0.00    +0.015 A 
ATOM      5  C   UNL     1       7.050  -1.975  25.456  0.00  0.00    +0.050 A 
ATOM      6  C   UNL     1       6.427  -2.708  24.444  0.00  0.00    +0.165 A 
ENDROOT
BRANCH   3   7
ATOM      7  C   UNL     1       7.823   1.336  23.750  0.00  0.00    +0.181 A 
ATOM      8  O   UNL     1       6.726   2.204  23.682  0.00  0.00    -0.451 OA
ATOM      9  C   UNL     1       6.934   3.533  23.399  0.00  0.00    +0.147 A 
ATOM     10  C   UNL     1       8.200   4.088  23.295  0.00  0.00    +0.109 A 
ATOM     11  C   UNL     1       8.364   5.453  22.999  0.00  0.00    +0.135 A 
ATOM     12  C   UNL     1       7.256   6.269  22.793  0.00  0.00    +0.091 A 
ATOM     13  C   UNL     1       5.988   5.710  22.902  0.00  0.00    +0.124 A 
ATOM     14  C   UNL     1       9.351   3.213  23.481  0.00  0.00    +0.238 A 
ATOM     15  O   UNL     1      10.479   3.704  23.461  0.00  0.00    -0.283 OA
ATOM     16  C   UNL     1       5.819   4.352  23.209  0.00  0.00    +0.092 A 
ATOM     17  C   UNL     1       9.115   1.745  23.645  0.00  0.00    +0.211 A 
BRANCH  11  18
ATOM     18  O   UNL     1       9.588   6.054  22.883  0.00  0.00    -0.506 OA
ATOM     19  H   UNL     1       9.889   6.311  23.785  0.00  0.00    +0.292 HD
ENDBRANCH  11  18
BRANCH  13  20
ATOM     20  O   UNL     1       4.874   6.472  22.704  0.00  0.00    -0.507 OA
ATOM     21  H   UNL     1       4.628   6.891  23.548  0.00  0.00    +0.292 HD
ENDBRANCH  13  20
BRANCH  17  22
ATOM     22  O   UNL     1      10.291   1.040  23.660  0.00  0.00    -0.488 OA
ATOM     23  C   UNL     1      10.874   0.504  24.826  0.00  0.00    +0.277 C 
ENDBRANCH  17  22
ENDBRANCH   3   7
BRANCH   1  25
ATOM     24  C   UNL     1       6.641  -3.860  21.563  0.00  0.00    +0.277 C 
ATOM     25  O   UNL     1       5.770  -2.914  22.177  0.00  0.00    -0.491 OA
ENDBRANCH   1  25
BRANCH   6  26
ATOM     26  O   UNL     1       5.975  -3.999  24.620  0.00  0.00    -0.457 OA
BRANCH  26  27
ATOM     27  C   UNL     1       4.662  -4.169  25.194  0.00  0.00    +0.339 C 
ATOM     28  O   UNL     1       4.677  -4.609  26.554  0.00  0.00    -0.331 OA
ATOM     29  C   UNL     1       5.296  -5.904  26.760  0.00  0.00    +0.179 C 
ATOM     30  C   UNL     1       4.728  -7.013  25.852  0.00  0.00    +0.177 C 
ATOM     31  C   UNL     1       4.545  -6.548  24.408  0.00  0.00    +0.180 C 
ATOM     32  C   UNL     1       3.828  -5.195  24.384  0.00  0.00    +0.214 C 
BRANCH  30  33
ATOM     33  O   UNL     1       3.443  -7.464  26.322  0.00  0.00    -0.386 OA
ATOM     34  H   UNL     1       3.212  -8.207  25.722  0.00  0.00    +0.210 HD
ENDBRANCH  30  33
BRANCH  31  35
ATOM     35  O   UNL     1       3.745  -7.534  23.719  0.00  0.00    -0.386 OA
ATOM     36  H   UNL     1       2.832  -7.383  24.037  0.00  0.00    +0.210 HD
ENDBRANCH  31  35
BRANCH  32  37
ATOM     37  O   UNL     1       3.585  -4.828  23.020  0.00  0.00    -0.383 OA
ATOM     38  H   UNL     1       2.620  -4.825  22.892  0.00  0.00    +0.210 HD
ENDBRANCH  32  37
BRANCH  29  39
ATOM     39  C   UNL     1       5.087  -6.262  28.246  0.00  0.00    +0.190 C 
BRANCH  39  40
ATOM     40  O   UNL     1       5.396  -7.631  28.524  0.00  0.00    -0.392 OA
ATOM     41  H   UNL     1       5.706  -7.686  29.440  0.00  0.00    +0.210 HD
ENDBRANCH  39  40
ENDBRANCH  29  39
ENDBRANCH  26  27
ENDBRANCH   6  26
TORSDOF 12
ENDMDL
MODEL 4
REMARK VINA RESULT:      -7.2      1.492      2.181
REMARK  Name = 
REMARK  14 active torsions:
REMARK  status: ('A' for Active; 'I' for Inactive)
REMARK    1  A    between atoms: C_1  and  O_2
REMARK    2  A    between atoms: O_2  and  C_3
REMARK    3  A    between atoms: C_4  and  O_24
REMARK    4  A    between atoms: C_7  and  C_9
REMARK    5  A    between atoms: C_10  and  O_22
REMARK    6  A    between atoms: C_14  and  O_21
REMARK    7  A    between atoms: C_16  and  O_20
REMARK    8  A    between atoms: O_22  and  C_23
REMARK    9  A    between atoms: O_24  and  C_25
REMARK   10  A    between atoms: C_27  and  O_37
REMARK   11  A    between atoms: C_28  and  O_36
REMARK   12  A    between atoms: C_29  and  O_35
REMARK   13  A    between atoms: C_31  and  C_33
REMARK   14  A    between atoms: C_33  and  O_34
REMARK                            x       y       z     vdW  Elec       q    Type
REMARK                         _______ _______ _______ _____ _____    ______ ____
ROOT
ATOM      1  C   UNL     1       6.699  -1.753  23.521  0.00  0.00    +0.162 A 
ATOM      2  C   UNL     1       7.148  -0.427  23.330  0.00  0.00    +0.061 A 
ATOM      3  C   UNL     1       7.591   0.350  24.411  0.00  0.00    +0.025 A 
ATOM      4  C   UNL     1       7.669  -0.260  25.669  0.00  0.00    +0.015 A 
ATOM      5  C   UNL     1       7.246  -1.588  25.863  0.00  0.00    +0.050 A 
ATOM      6  C   UNL     1       6.731  -2.337  24.803  0.00  0.00    +0.165 A 
ENDROOT
BRANCH   3   7
ATOM      7  C   UNL     1       7.968   1.778  24.246  0.00  0.00    +0.181 A 
ATOM      8  O   UNL     1       9.313   1.912  23.880  0.00  0.00    -0.451 OA
ATOM      9  C   UNL     1       9.862   3.168  23.772  0.00  0.00    +0.147 A 
ATOM     10  C   UNL     1       9.111   4.327  23.894  0.00  0.00    +0.109 A 
ATOM     11  C   UNL     1       9.717   5.591  23.782  0.00  0.00    +0.135 A 
ATOM     12  C   UNL     1      11.086   5.700  23.559  0.00  0.00    +0.091 A 
ATOM     13  C   UNL     1      11.835   4.536  23.433  0.00  0.00    +0.124 A 
ATOM     14  C   UNL     1       7.684   4.196  24.161  0.00  0.00    +0.238 A 
ATOM     15  O   UNL     1       6.991   5.212  24.203  0.00  0.00    -0.283 OA
ATOM     16  C   UNL     1      11.233   3.273  23.533  0.00  0.00    +0.092 A 
ATOM     17  C   UNL     1       7.126   2.831  24.417  0.00  0.00    +0.211 A 
BRANCH  11  18
ATOM     18  O   UNL     1       9.026   6.767  23.895  0.00  0.00    -0.506 OA
ATOM     19  H   UNL     1       8.073   6.579  23.729  0.00  0.00    +0.292 HD
ENDBRANCH  11  18
BRANCH  13  20
ATOM     20  O   UNL     1      13.180   4.597  23.217  0.00  0.00    -0.507 OA
ATOM     21  H   UNL     1      13.640   4.256  24.005  0.00  0.00    +0.292 HD
ENDBRANCH  13  20
BRANCH  17  22
ATOM     22  O   UNL     1       5.810   2.884  24.797  0.00  0.00    -0.488 OA
ATOM     23  C   UNL     1       4.729   2.616  23.933  0.00  0.00    +0.277 C 
ENDBRANCH  17  22
ENDBRANCH   3   7
BRANCH   1  25
ATOM     24  C   UNL     1       7.224  -3.367  21.866  0.00  0.00    +0.277 C 
ATOM     25  O   UNL     1       6.243  -2.547  22.495  0.00  0.00    -0.491 OA
ENDBRANCH   1  25
BRANCH   6  26
ATOM     26  O   UNL     1       6.332  -3.651  24.935  0.00  0.00    -0.457 OA
BRANCH  26  27
ATOM     27  C   UNL     1       4.978  -3.893  25.369  0.00  0.00    +0.339 C 
ATOM     28  O   UNL     1       4.878  -4.411  26.698  0.00  0.00    -0.331 OA
ATOM     29  C   UNL     1       5.519  -5.697  26.891  0.00  0.00    +0.179 C 
ATOM     30  C   UNL     1       5.079  -6.767  25.872  0.00  0.00    +0.177 C 
ATOM     31  C   UNL     1       5.018  -6.224  24.445  0.00  0.00    +0.180 C 
ATOM     32  C   UNL     1       4.261  -4.894  24.427  0.00  0.00    +0.214 C 
BRANCH  30  33
ATOM     33  O   UNL     1       3.771  -7.283  26.189  0.00  0.00    -0.386 OA
ATOM     34  H   UNL     1       3.288  -7.261  25.334  0.00  0.00    +0.210 HD
ENDBRANCH  30  33
BRANCH  31  35
ATOM     35  O   UNL     1       4.322  -7.191  23.629  0.00  0.00    -0.386 OA
ATOM     36  H   UNL     1       4.995  -7.870  23.416  0.00  0.00    +0.210 HD
ENDBRANCH  31  35
BRANCH  32  37
ATOM     37  O   UNL     1       4.136  -4.455  23.068  0.00  0.00    -0.383 OA
ATOM     38  H   UNL     1       4.939  -3.945  22.857  0.00  0.00    +0.210 HD
ENDBRANCH  32  37
BRANCH  29  39
ATOM     39  C   UNL     1       5.183  -6.147  28.328  0.00  0.00    +0.190 C 
BRANCH  39  40
ATOM     40  O   UNL     1       5.380  -7.551  28.518  0.00  0.00    -0.392 OA
ATOM     41  H   UNL     1       5.955  -7.670  29.287  0.00  0.00    +0.210 HD
ENDBRANCH  39  40
ENDBRANCH  29  39
ENDBRANCH  26  27
ENDBRANCH   6  26
TORSDOF 12
ENDMDL
MODEL 5
REMARK VINA RESULT:      -7.1      1.878     10.069
REMARK  Name = 
REMARK  14 active torsions:
REMARK  status: ('A' for Active; 'I' for Inactive)
REMARK    1  A    between atoms: C_1  and  O_2
REMARK    2  A    between atoms: O_2  and  C_3
REMARK    3  A    between atoms: C_4  and  O_24
REMARK    4  A    between atoms: C_7  and  C_9
REMARK    5  A    between atoms: C_10  and  O_22
REMARK    6  A    between atoms: C_14  and  O_21
REMARK    7  A    between atoms: C_16  and  O_20
REMARK    8  A    between atoms: O_22  and  C_23
REMARK    9  A    between atoms: O_24  and  C_25
REMARK   10  A    between atoms: C_27  and  O_37
REMARK   11  A    between atoms: C_28  and  O_36
REMARK   12  A    between atoms: C_29  and  O_35
REMARK   13  A    between atoms: C_31  and  C_33
REMARK   14  A    between atoms: C_33  and  O_34
REMARK                            x       y       z     vdW  Elec       q    Type
REMARK                         _______ _______ _______ _____ _____    ______ ____
ROOT
ATOM      1  C   UNL     1       7.882   0.487  25.551  0.00  0.00    +0.162 A 
ATOM      2  C   UNL     1       7.207  -0.737  25.758  0.00  0.00    +0.061 A 
ATOM      3  C   UNL     1       7.588  -1.899  25.067  0.00  0.00    +0.025 A 
ATOM      4  C   UNL     1       8.718  -1.831  24.243  0.00  0.00    +0.015 A 
ATOM      5  C   UNL     1       9.409  -0.621  24.051  0.00  0.00    +0.050 A 
ATOM      6  C   UNL     1       8.985   0.554  24.676  0.00  0.00    +0.165 A 
ENDROOT
BRANCH   3   7
ATOM      7  C   UNL     1       6.826  -3.168  25.193  0.00  0.00    +0.181 A 
ATOM      8  O   UNL     1       5.745  -3.205  24.303  0.00  0.00    -0.451 OA
ATOM      9  C   UNL     1       4.874  -4.267  24.344  0.00  0.00    +0.147 A 
ATOM     10  C   UNL     1       5.080  -5.376  25.150  0.00  0.00    +0.109 A 
ATOM     11  C   UNL     1       4.157  -6.437  25.163  0.00  0.00    +0.135 A 
ATOM     12  C   UNL     1       3.013  -6.387  24.373  0.00  0.00    +0.091 A 
ATOM     13  C   UNL     1       2.811  -5.275  23.563  0.00  0.00    +0.124 A 
ATOM     14  C   UNL     1       6.267  -5.398  25.996  0.00  0.00    +0.238 A 
ATOM     15  O   UNL     1       6.500  -6.404  26.665  0.00  0.00    -0.283 OA
ATOM     16  C   UNL     1       3.734  -4.220  23.538  0.00  0.00    +0.092 A 
ATOM     17  C   UNL     1       7.131  -4.178  26.050  0.00  0.00    +0.211 A 
BRANCH  11  18
ATOM     18  O   UNL     1       4.309  -7.554  25.939  0.00  0.00    -0.506 OA
ATOM     19  H   UNL     1       3.681  -8.240  25.614  0.00  0.00    +0.292 HD
ENDBRANCH  11  18
BRANCH  13  20
ATOM     20  O   UNL     1       1.701  -5.183  22.776  0.00  0.00    -0.507 OA
ATOM     21  H   UNL     1       1.910  -4.628  22.004  0.00  0.00    +0.292 HD
ENDBRANCH  13  20
BRANCH  17  22
ATOM     22  O   UNL     1       8.117  -4.296  26.995  0.00  0.00    -0.488 OA
ATOM     23  C   UNL     1       9.459  -4.610  26.698  0.00  0.00    +0.277 C 
ENDBRANCH  17  22
ENDBRANCH   3   7
BRANCH   1  25
ATOM     24  C   UNL     1       6.800   1.496  27.403  0.00  0.00    +0.277 C 
ATOM     25  O   UNL     1       7.536   1.653  26.193  0.00  0.00    -0.491 OA
ENDBRANCH   1  25
BRANCH   6  26
ATOM     26  O   UNL     1       9.646   1.757  24.544  0.00  0.00    -0.457 OA
BRANCH  26  27
ATOM     27  C   UNL     1       9.590   2.407  23.257  0.00  0.00    +0.339 C 
ATOM     28  O   UNL     1      10.814   3.036  22.872  0.00  0.00    -0.331 OA
ATOM     29  C   UNL     1      11.248   4.099  23.757  0.00  0.00    +0.179 C 
ATOM     30  C   UNL     1      10.166   5.165  24.022  0.00  0.00    +0.177 C 
ATOM     31  C   UNL     1       8.794   4.550  24.289  0.00  0.00    +0.180 C 
ATOM     32  C   UNL     1       8.482   3.492  23.228  0.00  0.00    +0.214 C 
BRANCH  30  33
ATOM     33  O   UNL     1      10.024   6.054  22.896  0.00  0.00    -0.386 OA
ATOM     34  H   UNL     1       9.783   5.463  22.149  0.00  0.00    +0.210 HD
ENDBRANCH  30  33
BRANCH  31  35
ATOM     35  O   UNL     1       7.811   5.606  24.227  0.00  0.00    -0.386 OA
ATOM     36  H   UNL     1       6.947   5.146  24.249  0.00  0.00    +0.210 HD
ENDBRANCH  31  35
BRANCH  32  37
ATOM     37  O   UNL     1       7.154   2.999  23.446  0.00  0.00    -0.383 OA
ATOM     38  H   UNL     1       6.547   3.753  23.338  0.00  0.00    +0.210 HD
ENDBRANCH  32  37
BRANCH  29  39
ATOM     39  C   UNL     1      12.490   4.739  23.103  0.00  0.00    +0.190 C 
BRANCH  39  40
ATOM     40  O   UNL     1      13.038   5.796  23.897  0.00  0.00    -0.392 OA
ATOM     41  H   UNL     1      12.309   6.218  24.374  0.00  0.00    +0.210 HD
ENDBRANCH  39  40
ENDBRANCH  29  39
ENDBRANCH  26  27
ENDBRANCH   6  26
TORSDOF 12
ENDMDL
MODEL 6
REMARK VINA RESULT:      -7.1      1.689     10.026
REMARK  Name = 
REMARK  14 active torsions:
REMARK  status: ('A' for Active; 'I' for Inactive)
REMARK    1  A    between atoms: C_1  and  O_2
REMARK    2  A    between atoms: O_2  and  C_3
REMARK    3  A    between atoms: C_4  and  O_24
REMARK    4  A    between atoms: C_7  and  C_9
REMARK    5  A    between atoms: C_10  and  O_22
REMARK    6  A    between atoms: C_14  and  O_21
REMARK    7  A    between atoms: C_16  and  O_20
REMARK    8  A    between atoms: O_22  and  C_23
REMARK    9  A    between atoms: O_24  and  C_25
REMARK   10  A    between atoms: C_27  and  O_37
REMARK   11  A    between atoms: C_28  and  O_36
REMARK   12  A    between atoms: C_29  and  O_35
REMARK   13  A    between atoms: C_31  and  C_33
REMARK   14  A    between atoms: C_33  and  O_34
REMARK                            x       y       z     vdW  Elec       q    Type
REMARK                         _______ _______ _______ _____ _____    ______ ____
ROOT
ATOM      1  C   UNL     1       7.985   0.463  25.593  0.00  0.00    +0.162 A 
ATOM      2  C   UNL     1       7.299  -0.751  25.824  0.00  0.00    +0.061 A 
ATOM      3  C   UNL     1       7.693  -1.937  25.185  0.00  0.00    +0.025 A 
ATOM      4  C   UNL     1       8.844  -1.903  24.389  0.00  0.00    +0.015 A 
ATOM      5  C   UNL     1       9.546  -0.702  24.173  0.00  0.00    +0.050 A 
ATOM      6  C   UNL     1       9.110   0.495  24.746  0.00  0.00    +0.165 A 
ENDROOT
BRANCH   3   7
ATOM      7  C   UNL     1       6.922  -3.199  25.334  0.00  0.00    +0.181 A 
ATOM      8  O   UNL     1       6.743  -3.531  26.682  0.00  0.00    -0.451 OA
ATOM      9  C   UNL     1       6.130  -4.717  27.010  0.00  0.00    +0.147 A 
ATOM     10  C   UNL     1       5.567  -5.557  26.061  0.00  0.00    +0.109 A 
ATOM     11  C   UNL     1       4.956  -6.764  26.443  0.00  0.00    +0.135 A 
ATOM     12  C   UNL     1       4.915  -7.143  27.781  0.00  0.00    +0.091 A 
ATOM     13  C   UNL     1       5.477  -6.298  28.729  0.00  0.00    +0.124 A 
ATOM     14  C   UNL     1       5.647  -5.161  24.660  0.00  0.00    +0.238 A 
ATOM     15  O   UNL     1       5.092  -5.860  23.813  0.00  0.00    -0.283 OA
ATOM     16  C   UNL     1       6.078  -5.087  28.355  0.00  0.00    +0.092 A 
ATOM     17  C   UNL     1       6.439  -3.943  24.304  0.00  0.00    +0.211 A 
BRANCH  11  18
ATOM     18  O   UNL     1       4.386  -7.631  25.550  0.00  0.00    -0.506 OA
ATOM     19  H   UNL     1       3.577  -8.010  25.965  0.00  0.00    +0.292 HD
ENDBRANCH  11  18
BRANCH  13  20
ATOM     20  O   UNL     1       5.463  -6.632  30.052  0.00  0.00    -0.507 OA
ATOM     21  H   UNL     1       5.930  -5.941  30.554  0.00  0.00    +0.292 HD
ENDBRANCH  13  20
BRANCH  17  22
ATOM     22  O   UNL     1       6.544  -3.785  22.947  0.00  0.00    -0.488 OA
ATOM     23  C   UNL     1       5.703  -2.951  22.182  0.00  0.00    +0.277 C 
ENDBRANCH  17  22
ENDBRANCH   3   7
BRANCH   1  25
ATOM     24  C   UNL     1       6.310   1.701  26.726  0.00  0.00    +0.277 C 
ATOM     25  O   UNL     1       7.627   1.652  26.185  0.00  0.00    -0.491 OA
ENDBRANCH   1  25
BRANCH   6  26
ATOM     26  O   UNL     1       9.781   1.691  24.590  0.00  0.00    -0.457 OA
BRANCH  26  27
ATOM     27  C   UNL     1       9.737   2.310  23.288  0.00  0.00    +0.339 C 
ATOM     28  O   UNL     1      10.947   2.977  22.922  0.00  0.00    -0.331 OA
ATOM     29  C   UNL     1      11.318   4.073  23.795  0.00  0.00    +0.179 C 
ATOM     30  C   UNL     1      10.191   5.104  24.007  0.00  0.00    +0.177 C 
ATOM     31  C   UNL     1       8.835   4.444  24.251  0.00  0.00    +0.180 C 
ATOM     32  C   UNL     1       8.591   3.353  23.205  0.00  0.00    +0.214 C 
BRANCH  30  33
ATOM     33  O   UNL     1      10.047   5.962  22.858  0.00  0.00    -0.386 OA
ATOM     34  H   UNL     1       9.097   5.890  22.618  0.00  0.00    +0.210 HD
ENDBRANCH  30  33
BRANCH  31  35
ATOM     35  O   UNL     1       7.816   5.461  24.138  0.00  0.00    -0.386 OA
ATOM     36  H   UNL     1       8.273   6.299  24.355  0.00  0.00    +0.210 HD
ENDBRANCH  31  35
BRANCH  32  37
ATOM     37  O   UNL     1       7.277   2.816  23.398  0.00  0.00    -0.383 OA
ATOM     38  H   UNL     1       7.357   1.845  23.374  0.00  0.00    +0.210 HD
ENDBRANCH  32  37
BRANCH  29  39
ATOM     39  C   UNL     1      12.554   4.745  23.161  0.00  0.00    +0.190 C 
BRANCH  39  40
ATOM     40  O   UNL     1      13.064   5.812  23.965  0.00  0.00    -0.392 OA
ATOM     41  H   UNL     1      13.987   5.609  24.178  0.00  0.00    +0.210 HD
ENDBRANCH  39  40
ENDBRANCH  29  39
ENDBRANCH  26  27
ENDBRANCH   6  26
TORSDOF 12
ENDMDL
MODEL 7
REMARK VINA RESULT:      -7.0      2.015      3.880
REMARK  Name = 
REMARK  14 active torsions:
REMARK  status: ('A' for Active; 'I' for Inactive)
REMARK    1  A    between atoms: C_1  and  O_2
REMARK    2  A    between atoms: O_2  and  C_3
REMARK    3  A    between atoms: C_4  and  O_24
REMARK    4  A    between atoms: C_7  and  C_9
REMARK    5  A    between atoms: C_10  and  O_22
REMARK    6  A    between atoms: C_14  and  O_21
REMARK    7  A    between atoms: C_16  and  O_20
REMARK    8  A    between atoms: O_22  and  C_23
REMARK    9  A    between atoms: O_24  and  C_25
REMARK   10  A    between atoms: C_27  and  O_37
REMARK   11  A    between atoms: C_28  and  O_36
REMARK   12  A    between atoms: C_29  and  O_35
REMARK   13  A    between atoms: C_31  and  C_33
REMARK   14  A    between atoms: C_33  and  O_34
REMARK                            x       y       z     vdW  Elec       q    Type
REMARK                         _______ _______ _______ _____ _____    ______ ____
ROOT
ATOM      1  C   UNL     1       5.942  -1.231  25.495  0.00  0.00    +0.162 A 
ATOM      2  C   UNL     1       6.538  -0.024  25.063  0.00  0.00    +0.061 A 
ATOM      3  C   UNL     1       7.933   0.104  24.976  0.00  0.00    +0.025 A 
ATOM      4  C   UNL     1       8.713  -1.030  25.235  0.00  0.00    +0.015 A 
ATOM      5  C   UNL     1       8.125  -2.242  25.643  0.00  0.00    +0.050 A 
ATOM      6  C   UNL     1       6.742  -2.349  25.805  0.00  0.00    +0.165 A 
ENDROOT
BRANCH   3   7
ATOM      7  C   UNL     1       8.580   1.394  24.625  0.00  0.00    +0.181 A 
ATOM      8  O   UNL     1       8.050   2.452  25.375  0.00  0.00    -0.451 OA
ATOM      9  C   UNL     1       8.466   3.737  25.118  0.00  0.00    +0.147 A 
ATOM     10  C   UNL     1       9.483   4.030  24.223  0.00  0.00    +0.109 A 
ATOM     11  C   UNL     1       9.871   5.361  23.988  0.00  0.00    +0.135 A 
ATOM     12  C   UNL     1       9.231   6.409  24.642  0.00  0.00    +0.091 A 
ATOM     13  C   UNL     1       8.213   6.111  25.540  0.00  0.00    +0.124 A 
ATOM     14  C   UNL     1      10.122   2.923  23.522  0.00  0.00    +0.238 A 
ATOM     15  O   UNL     1      11.073   3.161  22.778  0.00  0.00    -0.283 OA
ATOM     16  C   UNL     1       7.831   4.785  25.787  0.00  0.00    +0.092 A 
ATOM     17  C   UNL     1       9.567   1.546  23.702  0.00  0.00    +0.211 A 
BRANCH  11  18
ATOM     18  O   UNL     1      10.867   5.709  23.116  0.00  0.00    -0.506 OA
ATOM     19  H   UNL     1      11.417   4.910  22.945  0.00  0.00    +0.292 HD
ENDBRANCH  11  18
BRANCH  13  20
ATOM     20  O   UNL     1       7.556   7.108  26.200  0.00  0.00    -0.507 OA
ATOM     21  H   UNL     1       8.092   7.383  26.964  0.00  0.00    +0.292 HD
ENDBRANCH  13  20
BRANCH  17  22
ATOM     22  O   UNL     1      10.173   0.641  22.871  0.00  0.00    -0.488 OA
ATOM     23  C   UNL     1       9.596   0.155  21.679  0.00  0.00    +0.277 C 
ENDBRANCH  17  22
ENDBRANCH   3   7
BRANCH   1  25
ATOM     24  C   UNL     1       3.985  -0.835  26.774  0.00  0.00    +0.277 C 
ATOM     25  O   UNL     1       4.582  -1.398  25.609  0.00  0.00    -0.491 OA
ENDBRANCH   1  25
BRANCH   6  26
ATOM     26  O   UNL     1       6.116  -3.522  26.173  0.00  0.00    -0.457 OA
BRANCH  26  27
ATOM     27  C   UNL     1       6.486  -4.721  25.461  0.00  0.00    +0.339 C 
ATOM     28  O   UNL     1       5.583  -5.073  24.410  0.00  0.00    -0.331 OA
ATOM     29  C   UNL     1       4.230  -5.354  24.848  0.00  0.00    +0.179 C 
ATOM     30  C   UNL     1       4.151  -6.395  25.982  0.00  0.00    +0.177 C 
ATOM     31  C   UNL     1       5.202  -6.159  27.066  0.00  0.00    +0.180 C 
ATOM     32  C   UNL     1       6.572  -5.935  26.422  0.00  0.00    +0.214 C 
BRANCH  30  33
ATOM     33  O   UNL     1       4.351  -7.731  25.479  0.00  0.00    -0.386 OA
ATOM     34  H   UNL     1       4.654  -8.243  26.261  0.00  0.00    +0.210 HD
ENDBRANCH  30  33
BRANCH  31  35
ATOM     35  O   UNL     1       5.246  -7.330  27.910  0.00  0.00    -0.386 OA
ATOM     36  H   UNL     1       6.144  -7.325  28.299  0.00  0.00    +0.210 HD
ENDBRANCH  31  35
BRANCH  32  37
ATOM     37  O   UNL     1       7.553  -5.809  27.460  0.00  0.00    -0.383 OA
ATOM     38  H   UNL     1       8.327  -5.363  27.071  0.00  0.00    +0.210 HD
ENDBRANCH  32  37
BRANCH  29  39
ATOM     39  C   UNL     1       3.458  -5.847  23.607  0.00  0.00    +0.190 C 
BRANCH  39  40
ATOM     40  O   UNL     1       4.310  -6.026  22.472  0.00  0.00    -0.392 OA
ATOM     41  H   UNL     1       5.163  -6.357  22.790  0.00  0.00    +0.210 HD
ENDBRANCH  39  40
ENDBRANCH  29  39
ENDBRANCH  26  27
ENDBRANCH   6  26
TORSDOF 12
ENDMDL
MODEL 8
REMARK VINA RESULT:      -6.9      2.236      4.558
REMARK  Name = 
REMARK  14 active torsions:
REMARK  status: ('A' for Active; 'I' for Inactive)
REMARK    1  A    between atoms: C_1  and  O_2
REMARK    2  A    between atoms: O_2  and  C_3
REMARK    3  A    between atoms: C_4  and  O_24
REMARK    4  A    between atoms: C_7  and  C_9
REMARK    5  A    between atoms: C_10  and  O_22
REMARK    6  A    between atoms: C_14  and  O_21
REMARK    7  A    between atoms: C_16  and  O_20
REMARK    8  A    between atoms: O_22  and  C_23
REMARK    9  A    between atoms: O_24  and  C_25
REMARK   10  A    between atoms: C_27  and  O_37
REMARK   11  A    between atoms: C_28  and  O_36
REMARK   12  A    between atoms: C_29  and  O_35
REMARK   13  A    between atoms: C_31  and  C_33
REMARK   14  A    between atoms: C_33  and  O_34
REMARK                            x       y       z     vdW  Elec       q    Type
REMARK                         _______ _______ _______ _____ _____    ______ ____
ROOT
ATOM      1  C   UNL     1       4.709  -2.832  24.866  0.00  0.00    +0.162 A 
ATOM      2  C   UNL     1       5.614  -1.746  24.852  0.00  0.00    +0.061 A 
ATOM      3  C   UNL     1       6.413  -1.485  23.728  0.00  0.00    +0.025 A 
ATOM      4  C   UNL     1       6.216  -2.270  22.586  0.00  0.00    +0.015 A 
ATOM      5  C   UNL     1       5.299  -3.338  22.584  0.00  0.00    +0.050 A 
ATOM      6  C   UNL     1       4.559  -3.649  23.727  0.00  0.00    +0.165 A 
ENDROOT
BRANCH   3   7
ATOM      7  C   UNL     1       7.444  -0.415  23.733  0.00  0.00    +0.181 A 
ATOM      8  O   UNL     1       6.879   0.836  24.011  0.00  0.00    -0.451 OA
ATOM      9  C   UNL     1       7.670   1.960  23.966  0.00  0.00    +0.147 A 
ATOM     10  C   UNL     1       9.042   1.903  23.773  0.00  0.00    +0.109 A 
ATOM     11  C   UNL     1       9.810   3.080  23.728  0.00  0.00    +0.135 A 
ATOM     12  C   UNL     1       9.204   4.324  23.865  0.00  0.00    +0.091 A 
ATOM     13  C   UNL     1       7.830   4.377  24.062  0.00  0.00    +0.124 A 
ATOM     14  C   UNL     1       9.657   0.593  23.598  0.00  0.00    +0.238 A 
ATOM     15  O   UNL     1      10.881   0.520  23.495  0.00  0.00    -0.283 OA
ATOM     16  C   UNL     1       7.060   3.206  24.119  0.00  0.00    +0.092 A 
ATOM     17  C   UNL     1       8.770  -0.609  23.506  0.00  0.00    +0.211 A 
BRANCH  11  18
ATOM     18  O   UNL     1      11.166   3.083  23.540  0.00  0.00    -0.506 OA
ATOM     19  H   UNL     1      11.382   3.789  22.888  0.00  0.00    +0.292 HD
ENDBRANCH  11  18
BRANCH  13  20
ATOM     20  O   UNL     1       7.194   5.577  24.198  0.00  0.00    -0.507 OA
ATOM     21  H   UNL     1       7.858   6.264  24.383  0.00  0.00    +0.292 HD
ENDBRANCH  13  20
BRANCH  17  22
ATOM     22  O   UNL     1       9.478  -1.740  23.195  0.00  0.00    -0.488 OA
ATOM     23  C   UNL     1       9.752  -2.776  24.112  0.00  0.00    +0.277 C 
ENDBRANCH  17  22
ENDBRANCH   3   7
BRANCH   1  25
ATOM     24  C   UNL     1       4.563  -3.099  27.217  0.00  0.00    +0.277 C 
ATOM     25  O   UNL     1       3.916  -3.135  25.948  0.00  0.00    -0.491 OA
ENDBRANCH   1  25
BRANCH   6  26
ATOM     26  O   UNL     1       3.627  -4.664  23.766  0.00  0.00    -0.457 OA
BRANCH  26  27
ATOM     27  C   UNL     1       4.089  -6.000  23.479  0.00  0.00    +0.339 C 
ATOM     28  O   UNL     1       3.088  -6.851  22.915  0.00  0.00    -0.331 OA
ATOM     29  C   UNL     1       1.940  -7.078  23.770  0.00  0.00    +0.179 C 
ATOM     30  C   UNL     1       2.309  -7.563  25.186  0.00  0.00    +0.177 C 
ATOM     31  C   UNL     1       3.482  -6.787  25.782  0.00  0.00    +0.180 C 
ATOM     32  C   UNL     1       4.618  -6.695  24.761  0.00  0.00    +0.214 C 
BRANCH  30  33
ATOM     33  O   UNL     1       2.679  -8.956  25.180  0.00  0.00    -0.386 OA
ATOM     34  H   UNL     1       2.499  -9.260  26.097  0.00  0.00    +0.210 HD
ENDBRANCH  30  33
BRANCH  31  35
ATOM     35  O   UNL     1       3.938  -7.496  26.955  0.00  0.00    -0.386 OA
ATOM     36  H   UNL     1       3.124  -7.848  27.367  0.00  0.00    +0.210 HD
ENDBRANCH  31  35
BRANCH  32  37
ATOM     37  O   UNL     1       5.738  -6.045  25.376  0.00  0.00    -0.383 OA
ATOM     38  H   UNL     1       5.446  -5.742  26.254  0.00  0.00    +0.210 HD
ENDBRANCH  32  37
BRANCH  29  39
ATOM     39  C   UNL     1       1.055  -8.119  23.055  0.00  0.00    +0.190 C 
BRANCH  39  40
ATOM     40  O   UNL     1       1.558  -8.462  21.760  0.00  0.00    -0.392 OA
ATOM     41  H   UNL     1       1.365  -7.726  21.161  0.00  0.00    +0.210 HD
ENDBRANCH  39  40
ENDBRANCH  29  39
ENDBRANCH  26  27
ENDBRANCH   6  26
TORSDOF 12
ENDMDL
MODEL 9
REMARK VINA RESULT:      -6.7      1.868      9.972
REMARK  Name = 
REMARK  14 active torsions:
REMARK  status: ('A' for Active; 'I' for Inactive)
REMARK    1  A    between atoms: C_1  and  O_2
REMARK    2  A    between atoms: O_2  and  C_3
REMARK    3  A    between atoms: C_4  and  O_24
REMARK    4  A    between atoms: C_7  and  C_9
REMARK    5  A    between atoms: C_10  and  O_22
REMARK    6  A    between atoms: C_14  and  O_21
REMARK    7  A    between atoms: C_16  and  O_20
REMARK    8  A    between atoms: O_22  and  C_23
REMARK    9  A    between atoms: O_24  and  C_25
REMARK   10  A    between atoms: C_27  and  O_37
REMARK   11  A    between atoms: C_28  and  O_36
REMARK   12  A    between atoms: C_29  and  O_35
REMARK   13  A    between atoms: C_31  and  C_33
REMARK   14  A    between atoms: C_33  and  O_34
REMARK                            x       y       z     vdW  Elec       q    Type
REMARK                         _______ _______ _______ _____ _____    ______ ____
ROOT
ATOM      1  C   UNL     1       8.469  -0.422  24.004  0.00  0.00    +0.162 A 
ATOM      2  C   UNL     1       7.805  -1.666  23.914  0.00  0.00    +0.061 A 
ATOM      3  C   UNL     1       6.466  -1.802  24.313  0.00  0.00    +0.025 A 
ATOM      4  C   UNL     1       5.778  -0.648  24.707  0.00  0.00    +0.015 A 
ATOM      5  C   UNL     1       6.427   0.600  24.776  0.00  0.00    +0.050 A 
ATOM      6  C   UNL     1       7.780   0.722  24.455  0.00  0.00    +0.165 A 
ENDROOT
BRANCH   3   7
ATOM      7  C   UNL     1       5.783  -3.122  24.324  0.00  0.00    +0.181 A 
ATOM      8  O   UNL     1       5.748  -3.667  25.614  0.00  0.00    -0.451 OA
ATOM      9  C   UNL     1       5.235  -4.929  25.799  0.00  0.00    +0.147 A 
ATOM     10  C   UNL     1       4.634  -5.651  24.780  0.00  0.00    +0.109 A 
ATOM     11  C   UNL     1       4.128  -6.942  25.016  0.00  0.00    +0.135 A 
ATOM     12  C   UNL     1       4.233  -7.522  26.276  0.00  0.00    +0.091 A 
ATOM     13  C   UNL     1       4.833  -6.794  27.296  0.00  0.00    +0.124 A 
ATOM     14  C   UNL     1       4.561  -5.042  23.458  0.00  0.00    +0.238 A 
ATOM     15  O   UNL     1       3.970  -5.640  22.560  0.00  0.00    -0.283 OA
ATOM     16  C   UNL     1       5.329  -5.502  27.069  0.00  0.00    +0.092 A 
ATOM     17  C   UNL     1       5.248  -3.732  23.233  0.00  0.00    +0.211 A 
BRANCH  11  18
ATOM     18  O   UNL     1       3.527  -7.700  24.048  0.00  0.00    -0.506 OA
ATOM     19  H   UNL     1       2.614  -7.354  23.911  0.00  0.00    +0.292 HD
ENDBRANCH  11  18
BRANCH  13  20
ATOM     20  O   UNL     1       4.960  -7.326  28.546  0.00  0.00    -0.507 OA
ATOM     21  H   UNL     1       5.453  -8.162  28.481  0.00  0.00    +0.292 HD
ENDBRANCH  13  20
BRANCH  17  22
ATOM     22  O   UNL     1       5.219  -3.362  21.914  0.00  0.00    -0.488 OA
ATOM     23  C   UNL     1       6.164  -3.783  20.956  0.00  0.00    +0.277 C 
ENDBRANCH  17  22
ENDBRANCH   3   7
BRANCH   1  25
ATOM     24  C   UNL     1      10.239  -1.053  22.559  0.00  0.00    +0.277 C 
ATOM     25  O   UNL     1       9.783  -0.244  23.639  0.00  0.00    -0.491 OA
ENDBRANCH   1  25
BRANCH   6  26
ATOM     26  O   UNL     1       8.452   1.926  24.477  0.00  0.00    -0.457 OA
BRANCH  26  27
ATOM     27  C   UNL     1       8.964   2.423  23.223  0.00  0.00    +0.339 C 
ATOM     28  O   UNL     1       9.933   3.464  23.364  0.00  0.00    -0.331 OA
ATOM     29  C   UNL     1       9.438   4.662  24.014  0.00  0.00    +0.179 C 
ATOM     30  C   UNL     1       8.149   5.222  23.381  0.00  0.00    +0.177 C 
ATOM     31  C   UNL     1       7.131   4.128  23.064  0.00  0.00    +0.180 C 
ATOM     32  C   UNL     1       7.820   2.973  22.332  0.00  0.00    +0.214 C 
BRANCH  30  33
ATOM     33  O   UNL     1       8.431   5.913  22.148  0.00  0.00    -0.386 OA
ATOM     34  H   UNL     1       8.184   5.269  21.447  0.00  0.00    +0.210 HD
ENDBRANCH  30  33
BRANCH  31  35
ATOM     35  O   UNL     1       6.109   4.699  22.219  0.00  0.00    -0.386 OA
ATOM     36  H   UNL     1       6.510   4.729  21.326  0.00  0.00    +0.210 HD
ENDBRANCH  31  35
BRANCH  32  37
ATOM     37  O   UNL     1       6.828   2.005  21.965  0.00  0.00    -0.383 OA
ATOM     38  H   UNL     1       6.224   1.912  22.723  0.00  0.00    +0.210 HD
ENDBRANCH  32  37
BRANCH  29  39
ATOM     39  C   UNL     1      10.573   5.704  23.943  0.00  0.00    +0.190 C 
BRANCH  39  40
ATOM     40  O   UNL     1      11.410   5.519  22.797  0.00  0.00    -0.392 OA
ATOM     41  H   UNL     1      11.987   4.760  22.970  0.00  0.00    +0.210 HD
ENDBRANCH  39  40
ENDBRANCH  29  39
ENDBRANCH  26  27
ENDBRANCH   6  26
TORSDOF 12
ENDMDL
