MODEL 1
REMARK VINA RESULT:      -7.6      0.000      0.000
REMARK  Name = 
REMARK  16 active torsions:
REMARK  status: ('A' for Active; 'I' for Inactive)
REMARK    1  A    between atoms: C_2  and  O_51
REMARK    2  A    between atoms: C_4  and  O_50
REMARK    3  A    between atoms: C_6  and  O_49
REMARK    4  A    between atoms: C_8  and  O_11
REMARK    5  A    between atoms: O_11  and  C_12
REMARK    6  A    between atoms: C_13  and  C_41
REMARK    7  A    between atoms: C_17  and  O_24
REMARK    8  A    between atoms: C_19  and  O_23
REMARK    9  A    between atoms: O_24  and  C_25
REMARK   10  A    between atoms: C_27  and  O_40
REMARK   11  A    between atoms: C_29  and  O_39
REMARK   12  A    between atoms: C_31  and  O_38
REMARK   13  A    between atoms: C_33  and  C_36
REMARK   14  A    between atoms: C_36  and  O_37
REMARK   15  A    between atoms: C_43  and  O_48
REMARK   16  A    between atoms: C_44  and  O_47
REMARK                            x       y       z     vdW  Elec       q    Type
REMARK                         _______ _______ _______ _____ _____    ______ ____
ROOT
ATOM      1  C   UNL     1       8.693  -2.334  23.239  0.00  0.00    +0.214 A 
ATOM      2  C   UNL     1       9.236  -1.149  22.497  0.00  0.00    +0.238 A 
ATOM      3  O   UNL     1       9.852  -1.264  21.444  0.00  0.00    -0.283 OA
ATOM      4  C   UNL     1       9.090   0.166  23.137  0.00  0.00    +0.109 A 
ATOM      5  C   UNL     1       8.821   0.185  24.497  0.00  0.00    +0.147 A 
ATOM      6  C   UNL     1       8.760   1.400  25.186  0.00  0.00    +0.093 A 
ATOM      7  C   UNL     1       8.918   2.614  24.508  0.00  0.00    +0.131 A 
ATOM      8  C   UNL     1       9.204   2.594  23.140  0.00  0.00    +0.092 A 
ATOM      9  O   UNL     1       8.601  -0.956  25.225  0.00  0.00    -0.451 OA
ATOM     10  C   UNL     1       9.275   1.375  22.456  0.00  0.00    +0.135 A 
ATOM     11  C   UNL     1       8.457  -2.169  24.558  0.00  0.00    +0.181 A 
ENDROOT
BRANCH  11  12
ATOM     12  C   UNL     1       8.050  -3.268  25.490  0.00  0.00    +0.025 A 
ATOM     13  C   UNL     1       8.917  -4.335  25.797  0.00  0.00    +0.015 A 
ATOM     14  C   UNL     1       8.577  -5.302  26.753  0.00  0.00    +0.050 A 
ATOM     15  C   UNL     1       7.374  -5.199  27.421  0.00  0.00    +0.158 A 
ATOM     16  C   UNL     1       6.500  -4.159  27.143  0.00  0.00    +0.159 A 
ATOM     17  C   UNL     1       6.820  -3.198  26.180  0.00  0.00    +0.060 A 
BRANCH  16  18
ATOM     18  O   UNL     1       5.326  -4.114  27.850  0.00  0.00    -0.503 OA
ATOM     19  H   UNL     1       4.586  -4.147  27.220  0.00  0.00    +0.292 HD
ENDBRANCH  16  18
BRANCH  15  20
ATOM     20  O   UNL     1       7.062  -6.121  28.380  0.00  0.00    -0.503 OA
ATOM     21  H   UNL     1       6.662  -5.597  29.104  0.00  0.00    +0.292 HD
ENDBRANCH  15  20
ENDBRANCH  11  12
BRANCH  10  22
ATOM     22  O   UNL     1       9.472   1.392  21.104  0.00  0.00    -0.506 OA
ATOM     23  H   UNL     1      10.280   1.882  20.887  0.00  0.00    +0.292 HD
ENDBRANCH  10  22
BRANCH   7  24
ATOM     24  O   UNL     1       8.761   3.871  25.044  0.00  0.00    -0.461 OA
BRANCH  24  25
ATOM     25  C   UNL     1       7.417   4.272  25.360  0.00  0.00    +0.339 C 
ATOM     26  O   UNL     1       6.531   4.108  24.250  0.00  0.00    -0.331 OA
ATOM     27  C   UNL     1       6.286   5.180  23.335  0.00  0.00    +0.179 C 
ATOM     28  C   UNL     1       6.186   6.551  24.015  0.00  0.00    +0.177 C 
ATOM     29  C   UNL     1       7.376   6.791  24.952  0.00  0.00    +0.180 C 
ATOM     30  C   UNL     1       7.438   5.676  26.004  0.00  0.00    +0.214 C 
BRANCH  29  31
ATOM     31  O   UNL     1       8.586   6.938  24.209  0.00  0.00    -0.386 OA
ATOM     32  H   UNL     1       9.142   7.628  24.622  0.00  0.00    +0.210 HD
ENDBRANCH  29  31
BRANCH  30  33
ATOM     33  O   UNL     1       6.327   5.816  26.914  0.00  0.00    -0.383 OA
ATOM     34  H   UNL     1       6.716   5.942  27.807  0.00  0.00    +0.210 HD
ENDBRANCH  30  33
BRANCH  28  35
ATOM     35  O   UNL     1       4.971   6.578  24.786  0.00  0.00    -0.386 OA
ATOM     36  H   UNL     1       4.552   7.446  24.637  0.00  0.00    +0.210 HD
ENDBRANCH  28  35
BRANCH  27  37
ATOM     37  C   UNL     1       7.196   5.170  22.092  0.00  0.00    +0.190 C 
BRANCH  37  38
ATOM     38  O   UNL     1       7.195   6.449  21.452  0.00  0.00    -0.392 OA
ATOM     39  H   UNL     1       6.927   7.122  22.103  0.00  0.00    +0.210 HD
ENDBRANCH  37  38
ENDBRANCH  27  37
ENDBRANCH  24  25
ENDBRANCH   7  24
BRANCH   1  40
ATOM     40  O   UNL     1       8.532  -3.565  22.603  0.00  0.00    -0.453 OA
BRANCH  40  43
ATOM     41  C   UNL     1       4.910  -3.325  22.558  0.00  0.00    +0.198 C 
ATOM     42  O   UNL     1       6.260  -3.010  22.882  0.00  0.00    -0.337 OA
ATOM     43  C   UNL     1       7.178  -3.962  22.326  0.00  0.00    +0.339 C 
ATOM     44  C   UNL     1       6.927  -5.380  22.900  0.00  0.00    +0.214 C 
ATOM     45  C   UNL     1       5.447  -5.753  22.685  0.00  0.00    +0.180 C 
ATOM     46  C   UNL     1       4.510  -4.651  23.194  0.00  0.00    +0.171 C 
BRANCH  46  47
ATOM     47  O   UNL     1       3.166  -5.007  22.867  0.00  0.00    -0.387 OA
ATOM     48  H   UNL     1       2.614  -4.796  23.641  0.00  0.00    +0.210 HD
ENDBRANCH  46  47
BRANCH  45  49
ATOM     49  O   UNL     1       5.127  -6.991  23.338  0.00  0.00    -0.386 OA
ATOM     50  H   UNL     1       4.487  -7.443  22.749  0.00  0.00    +0.210 HD
ENDBRANCH  45  49
BRANCH  44  51
ATOM     51  O   UNL     1       7.789  -6.340  22.262  0.00  0.00    -0.383 OA
ATOM     52  H   UNL     1       7.257  -7.106  21.993  0.00  0.00    +0.210 HD
ENDBRANCH  44  51
ENDBRANCH  40  43
ENDBRANCH   1  40
TORSDOF 16
ENDMDL
MODEL 2
REMARK VINA RESULT:      -7.5      2.205      9.786
REMARK  Name = 
REMARK  16 active torsions:
REMARK  status: ('A' for Active; 'I' for Inactive)
REMARK    1  A    between atoms: C_2  and  O_51
REMARK    2  A    between atoms: C_4  and  O_50
REMARK    3  A    between atoms: C_6  and  O_49
REMARK    4  A    between atoms: C_8  and  O_11
REMARK    5  A    between atoms: O_11  and  C_12
REMARK    6  A    between atoms: C_13  and  C_41
REMARK    7  A    between atoms: C_17  and  O_24
REMARK    8  A    between atoms: C_19  and  O_23
REMARK    9  A    between atoms: O_24  and  C_25
REMARK   10  A    between atoms: C_27  and  O_40
REMARK   11  A    between atoms: C_29  and  O_39
REMARK   12  A    between atoms: C_31  and  O_38
REMARK   13  A    between atoms: C_33  and  C_36
REMARK   14  A    between atoms: C_36  and  O_37
REMARK   15  A    between atoms: C_43  and  O_48
REMARK   16  A    between atoms: C_44  and  O_47
REMARK                            x       y       z     vdW  Elec       q    Type
REMARK                         _______ _______ _______ _____ _____    ______ ____
ROOT
ATOM      1  C   UNL     1       8.113   2.814  22.829  0.00  0.00    +0.214 A 
ATOM      2  C   UNL     1       8.906   1.614  22.406  0.00  0.00    +0.238 A 
ATOM      3  O   UNL     1       9.898   1.704  21.692  0.00  0.00    -0.283 OA
ATOM      4  C   UNL     1       8.388   0.296  22.800  0.00  0.00    +0.109 A 
ATOM      5  C   UNL     1       7.057   0.225  23.185  0.00  0.00    +0.147 A 
ATOM      6  C   UNL     1       6.476  -1.010  23.485  0.00  0.00    +0.093 A 
ATOM      7  C   UNL     1       7.237  -2.185  23.452  0.00  0.00    +0.131 A 
ATOM      8  C   UNL     1       8.573  -2.115  23.050  0.00  0.00    +0.092 A 
ATOM      9  O   UNL     1       6.258   1.333  23.295  0.00  0.00    -0.451 OA
ATOM     10  C   UNL     1       9.149  -0.877  22.739  0.00  0.00    +0.135 A 
ATOM     11  C   UNL     1       6.832   2.597  23.199  0.00  0.00    +0.181 A 
ENDROOT
BRANCH  11  12
ATOM     12  C   UNL     1       5.847   3.678  23.517  0.00  0.00    +0.025 A 
ATOM     13  C   UNL     1       5.498   3.993  24.844  0.00  0.00    +0.015 A 
ATOM     14  C   UNL     1       4.660   5.077  25.143  0.00  0.00    +0.050 A 
ATOM     15  C   UNL     1       4.179   5.864  24.116  0.00  0.00    +0.158 A 
ATOM     16  C   UNL     1       4.508   5.581  22.799  0.00  0.00    +0.159 A 
ATOM     17  C   UNL     1       5.328   4.493  22.487  0.00  0.00    +0.060 A 
BRANCH  16  18
ATOM     18  O   UNL     1       4.001   6.409  21.830  0.00  0.00    -0.503 OA
ATOM     19  H   UNL     1       3.227   5.977  21.430  0.00  0.00    +0.292 HD
ENDBRANCH  16  18
BRANCH  15  20
ATOM     20  O   UNL     1       3.396   6.943  24.412  0.00  0.00    -0.503 OA
ATOM     21  H   UNL     1       3.955   7.502  24.990  0.00  0.00    +0.292 HD
ENDBRANCH  15  20
ENDBRANCH  11  12
BRANCH  10  22
ATOM     22  O   UNL     1      10.479  -0.831  22.432  0.00  0.00    -0.506 OA
ATOM     23  H   UNL     1      10.814  -1.722  22.245  0.00  0.00    +0.292 HD
ENDBRANCH  10  22
BRANCH   7  24
ATOM     24  O   UNL     1       6.818  -3.437  23.840  0.00  0.00    -0.461 OA
BRANCH  24  25
ATOM     25  C   UNL     1       6.065  -4.190  22.875  0.00  0.00    +0.339 C 
ATOM     26  O   UNL     1       4.705  -3.757  22.796  0.00  0.00    -0.331 OA
ATOM     27  C   UNL     1       3.686  -4.375  23.586  0.00  0.00    +0.179 C 
ATOM     28  C   UNL     1       3.850  -5.894  23.714  0.00  0.00    +0.177 C 
ATOM     29  C   UNL     1       5.276  -6.262  24.138  0.00  0.00    +0.180 C 
ATOM     30  C   UNL     1       6.279  -5.700  23.123  0.00  0.00    +0.214 C 
BRANCH  29  31
ATOM     31  O   UNL     1       5.531  -5.843  25.480  0.00  0.00    -0.386 OA
ATOM     32  H   UNL     1       6.040  -6.534  25.947  0.00  0.00    +0.210 HD
ENDBRANCH  29  31
BRANCH  30  33
ATOM     33  O   UNL     1       6.156  -6.424  21.880  0.00  0.00    -0.383 OA
ATOM     34  H   UNL     1       6.826  -7.141  21.912  0.00  0.00    +0.210 HD
ENDBRANCH  30  33
BRANCH  28  35
ATOM     35  O   UNL     1       3.579  -6.481  22.428  0.00  0.00    -0.386 OA
ATOM     36  H   UNL     1       4.380  -6.372  21.884  0.00  0.00    +0.210 HD
ENDBRANCH  28  35
BRANCH  27  37
ATOM     37  C   UNL     1       3.410  -3.667  24.927  0.00  0.00    +0.190 C 
BRANCH  37  38
ATOM     38  O   UNL     1       4.624  -3.170  25.498  0.00  0.00    -0.392 OA
ATOM     39  H   UNL     1       4.659  -2.207  25.364  0.00  0.00    +0.210 HD
ENDBRANCH  37  38
ENDBRANCH  27  37
ENDBRANCH  24  25
ENDBRANCH   7  24
BRANCH   1  40
ATOM     40  O   UNL     1       8.657   4.096  22.750  0.00  0.00    -0.453 OA
BRANCH  40  43
ATOM     41  C   UNL     1       9.188   6.040  25.769  0.00  0.00    +0.198 C 
ATOM     42  O   UNL     1       8.582   5.605  24.557  0.00  0.00    -0.337 OA
ATOM     43  C   UNL     1       9.341   4.566  23.923  0.00  0.00    +0.339 C 
ATOM     44  C   UNL     1      10.755   5.068  23.532  0.00  0.00    +0.214 C 
ATOM     45  C   UNL     1      11.441   5.659  24.780  0.00  0.00    +0.180 C 
ATOM     46  C   UNL     1      10.541   6.682  25.483  0.00  0.00    +0.171 C 
BRANCH  46  47
ATOM     47  O   UNL     1      11.185   7.107  26.685  0.00  0.00    -0.387 OA
ATOM     48  H   UNL     1      12.044   7.492  26.432  0.00  0.00    +0.210 HD
ENDBRANCH  46  47
BRANCH  45  49
ATOM     49  O   UNL     1      12.689   6.278  24.437  0.00  0.00    -0.386 OA
ATOM     50  H   UNL     1      12.972   5.856  23.598  0.00  0.00    +0.210 HD
ENDBRANCH  45  49
BRANCH  44  51
ATOM     51  O   UNL     1      11.538   3.988  22.987  0.00  0.00    -0.383 OA
ATOM     52  H   UNL     1      11.124   3.689  22.162  0.00  0.00    +0.210 HD
ENDBRANCH  44  51
ENDBRANCH  40  43
ENDBRANCH   1  40
TORSDOF 16
ENDMDL
MODEL 3
REMARK VINA RESULT:      -7.4      1.675      3.019
REMARK  Name = 
REMARK  16 active torsions:
REMARK  status: ('A' for Active; 'I' for Inactive)
REMARK    1  A    between atoms: C_2  and  O_51
REMARK    2  A    between atoms: C_4  and  O_50
REMARK    3  A    between atoms: C_6  and  O_49
REMARK    4  A    between atoms: C_8  and  O_11
REMARK    5  A    between atoms: O_11  and  C_12
REMARK    6  A    between atoms: C_13  and  C_41
REMARK    7  A    between atoms: C_17  and  O_24
REMARK    8  A    between atoms: C_19  and  O_23
REMARK    9  A    between atoms: O_24  and  C_25
REMARK   10  A    between atoms: C_27  and  O_40
REMARK   11  A    between atoms: C_29  and  O_39
REMARK   12  A    between atoms: C_31  and  O_38
REMARK   13  A    between atoms: C_33  and  C_36
REMARK   14  A    between atoms: C_36  and  O_37
REMARK   15  A    between atoms: C_43  and  O_48
REMARK   16  A    between atoms: C_44  and  O_47
REMARK                            x       y       z     vdW  Elec       q    Type
REMARK                         _______ _______ _______ _____ _____    ______ ____
ROOT
ATOM      1  C   UNL     1       8.174  -3.806  25.397  0.00  0.00    +0.214 A 
ATOM      2  C   UNL     1       9.153  -2.957  24.642  0.00  0.00    +0.238 A 
ATOM      3  O   UNL     1      10.157  -3.426  24.119  0.00  0.00    -0.283 OA
ATOM      4  C   UNL     1       8.916  -1.507  24.637  0.00  0.00    +0.109 A 
ATOM      5  C   UNL     1       8.064  -0.998  25.605  0.00  0.00    +0.147 A 
ATOM      6  C   UNL     1       7.867   0.382  25.715  0.00  0.00    +0.093 A 
ATOM      7  C   UNL     1       8.482   1.265  24.819  0.00  0.00    +0.131 A 
ATOM      8  C   UNL     1       9.352   0.753  23.853  0.00  0.00    +0.092 A 
ATOM      9  O   UNL     1       7.382  -1.797  26.485  0.00  0.00    -0.451 OA
ATOM     10  C   UNL     1       9.556  -0.628  23.754  0.00  0.00    +0.135 A 
ATOM     11  C   UNL     1       7.389  -3.175  26.297  0.00  0.00    +0.181 A 
ENDROOT
BRANCH  11  12
ATOM     12  C   UNL     1       6.456  -3.868  27.241  0.00  0.00    +0.025 A 
ATOM     13  C   UNL     1       5.156  -3.383  27.483  0.00  0.00    +0.015 A 
ATOM     14  C   UNL     1       4.247  -4.093  28.281  0.00  0.00    +0.050 A 
ATOM     15  C   UNL     1       4.628  -5.301  28.828  0.00  0.00    +0.158 A 
ATOM     16  C   UNL     1       5.899  -5.806  28.605  0.00  0.00    +0.159 A 
ATOM     17  C   UNL     1       6.820  -5.100  27.826  0.00  0.00    +0.060 A 
BRANCH  16  18
ATOM     18  O   UNL     1       6.207  -7.016  29.173  0.00  0.00    -0.503 OA
ATOM     19  H   UNL     1       5.402  -7.560  29.194  0.00  0.00    +0.292 HD
ENDBRANCH  16  18
BRANCH  15  20
ATOM     20  O   UNL     1       3.727  -6.010  29.571  0.00  0.00    -0.503 OA
ATOM     21  H   UNL     1       3.994  -6.945  29.455  0.00  0.00    +0.292 HD
ENDBRANCH  15  20
ENDBRANCH  11  12
BRANCH  10  22
ATOM     22  O   UNL     1      10.345  -1.104  22.745  0.00  0.00    -0.506 OA
ATOM     23  H   UNL     1      10.399  -0.457  22.024  0.00  0.00    +0.292 HD
ENDBRANCH  10  22
BRANCH   7  24
ATOM     24  O   UNL     1       8.274   2.623  24.744  0.00  0.00    -0.461 OA
BRANCH  24  25
ATOM     25  C   UNL     1       8.335   3.211  23.434  0.00  0.00    +0.339 C 
ATOM     26  O   UNL     1       9.248   4.309  23.378  0.00  0.00    -0.331 OA
ATOM     27  C   UNL     1       8.806   5.651  23.601  0.00  0.00    +0.179 C 
ATOM     28  C   UNL     1       7.432   5.950  22.988  0.00  0.00    +0.177 C 
ATOM     29  C   UNL     1       6.406   4.882  23.381  0.00  0.00    +0.180 C 
ATOM     30  C   UNL     1       6.901   3.500  22.935  0.00  0.00    +0.214 C 
BRANCH  29  31
ATOM     31  O   UNL     1       6.107   4.955  24.776  0.00  0.00    -0.386 OA
ATOM     32  H   UNL     1       5.360   5.567  24.918  0.00  0.00    +0.210 HD
ENDBRANCH  29  31
BRANCH  30  33
ATOM     33  O   UNL     1       6.857   3.420  21.495  0.00  0.00    -0.383 OA
ATOM     34  H   UNL     1       7.169   4.288  21.160  0.00  0.00    +0.210 HD
ENDBRANCH  30  33
BRANCH  28  35
ATOM     35  O   UNL     1       7.577   5.954  21.555  0.00  0.00    -0.386 OA
ATOM     36  H   UNL     1       8.201   6.668  21.328  0.00  0.00    +0.210 HD
ENDBRANCH  28  35
BRANCH  27  37
ATOM     37  C   UNL     1       8.950   6.129  25.059  0.00  0.00    +0.190 C 
BRANCH  37  38
ATOM     38  O   UNL     1       8.680   5.062  25.973  0.00  0.00    -0.392 OA
ATOM     39  H   UNL     1       8.369   4.291  25.467  0.00  0.00    +0.210 HD
ENDBRANCH  37  38
ENDBRANCH  27  37
ENDBRANCH  24  25
ENDBRANCH   7  24
BRANCH   1  40
ATOM     40  O   UNL     1       8.150  -5.191  25.231  0.00  0.00    -0.453 OA
BRANCH  40  43
ATOM     41  C   UNL     1       7.681  -5.559  21.650  0.00  0.00    +0.198 C 
ATOM     42  O   UNL     1       8.182  -5.047  22.880  0.00  0.00    -0.337 OA
ATOM     43  C   UNL     1       7.561  -5.672  24.012  0.00  0.00    +0.339 C 
ATOM     44  C   UNL     1       6.034  -5.399  24.031  0.00  0.00    +0.214 C 
ATOM     45  C   UNL     1       5.430  -5.829  22.679  0.00  0.00    +0.180 C 
ATOM     46  C   UNL     1       6.202  -5.222  21.502  0.00  0.00    +0.171 C 
BRANCH  46  47
ATOM     47  O   UNL     1       5.664  -5.745  20.286  0.00  0.00    -0.387 OA
ATOM     48  H   UNL     1       5.747  -6.714  20.326  0.00  0.00    +0.210 HD
ENDBRANCH  46  47
BRANCH  45  49
ATOM     49  O   UNL     1       4.049  -5.451  22.589  0.00  0.00    -0.386 OA
ATOM     50  H   UNL     1       3.806  -5.560  21.646  0.00  0.00    +0.210 HD
ENDBRANCH  45  49
BRANCH  44  51
ATOM     51  O   UNL     1       5.410  -6.113  25.115  0.00  0.00    -0.383 OA
ATOM     52  H   UNL     1       4.463  -6.203  24.923  0.00  0.00    +0.210 HD
ENDBRANCH  44  51
ENDBRANCH  40  43
ENDBRANCH   1  40
TORSDOF 16
ENDMDL
MODEL 4
REMARK VINA RESULT:      -7.4      2.312      9.644
REMARK  Name = 
REMARK  16 active torsions:
REMARK  status: ('A' for Active; 'I' for Inactive)
REMARK    1  A    between atoms: C_2  and  O_51
REMARK    2  A    between atoms: C_4  and  O_50
REMARK    3  A    between atoms: C_6  and  O_49
REMARK    4  A    between atoms: C_8  and  O_11
REMARK    5  A    between atoms: O_11  and  C_12
REMARK    6  A    between atoms: C_13  and  C_41
REMARK    7  A    between atoms: C_17  and  O_24
REMARK    8  A    between atoms: C_19  and  O_23
REMARK    9  A    between atoms: O_24  and  C_25
REMARK   10  A    between atoms: C_27  and  O_40
REMARK   11  A    between atoms: C_29  and  O_39
REMARK   12  A    between atoms: C_31  and  O_38
REMARK   13  A    between atoms: C_33  and  C_36
REMARK   14  A    between atoms: C_36  and  O_37
REMARK   15  A    between atoms: C_43  and  O_48
REMARK   16  A    between atoms: C_44  and  O_47
REMARK                            x       y       z     vdW  Elec       q    Type
REMARK                         _______ _______ _______ _____ _____    ______ ____
ROOT
ATOM      1  C   UNL     1       8.001   3.474  23.425  0.00  0.00    +0.214 A 
ATOM      2  C   UNL     1       8.339   2.309  22.544  0.00  0.00    +0.238 A 
ATOM      3  O   UNL     1       8.892   2.449  21.459  0.00  0.00    -0.283 OA
ATOM      4  C   UNL     1       7.890   0.982  22.988  0.00  0.00    +0.109 A 
ATOM      5  C   UNL     1       6.893   0.937  23.949  0.00  0.00    +0.147 A 
ATOM      6  C   UNL     1       6.355  -0.291  24.349  0.00  0.00    +0.093 A 
ATOM      7  C   UNL     1       6.850  -1.491  23.826  0.00  0.00    +0.131 A 
ATOM      8  C   UNL     1       7.844  -1.445  22.846  0.00  0.00    +0.092 A 
ATOM      9  O   UNL     1       6.391   2.062  24.550  0.00  0.00    -0.451 OA
ATOM     10  C   UNL     1       8.372  -0.213  22.440  0.00  0.00    +0.135 A 
ATOM     11  C   UNL     1       7.020   3.284  24.334  0.00  0.00    +0.181 A 
ENDROOT
BRANCH  11  12
ATOM     12  C   UNL     1       6.448   4.362  25.202  0.00  0.00    +0.025 A 
ATOM     13  C   UNL     1       5.401   5.192  24.755  0.00  0.00    +0.015 A 
ATOM     14  C   UNL     1       4.794   6.126  25.607  0.00  0.00    +0.050 A 
ATOM     15  C   UNL     1       5.219   6.224  26.916  0.00  0.00    +0.158 A 
ATOM     16  C   UNL     1       6.245   5.419  27.386  0.00  0.00    +0.159 A 
ATOM     17  C   UNL     1       6.871   4.496  26.542  0.00  0.00    +0.060 A 
BRANCH  16  18
ATOM     18  O   UNL     1       6.612   5.565  28.700  0.00  0.00    -0.503 OA
ATOM     19  H   UNL     1       7.517   5.228  28.806  0.00  0.00    +0.292 HD
ENDBRANCH  16  18
BRANCH  15  20
ATOM     20  O   UNL     1       4.599   7.107  27.754  0.00  0.00    -0.503 OA
ATOM     21  H   UNL     1       4.648   7.966  27.287  0.00  0.00    +0.292 HD
ENDBRANCH  15  20
ENDBRANCH  11  12
BRANCH  10  22
ATOM     22  O   UNL     1       9.402  -0.205  21.543  0.00  0.00    -0.506 OA
ATOM     23  H   UNL     1      10.170  -0.674  21.906  0.00  0.00    +0.292 HD
ENDBRANCH  10  22
BRANCH   7  24
ATOM     24  O   UNL     1       6.493  -2.759  24.224  0.00  0.00    -0.461 OA
BRANCH  24  25
ATOM     25  C   UNL     1       6.441  -2.997  25.640  0.00  0.00    +0.339 C 
ATOM     26  O   UNL     1       7.743  -3.031  26.229  0.00  0.00    -0.331 OA
ATOM     27  C   UNL     1       8.455  -4.262  26.380  0.00  0.00    +0.179 C 
ATOM     28  C   UNL     1       7.558  -5.440  26.783  0.00  0.00    +0.177 C 
ATOM     29  C   UNL     1       6.331  -5.537  25.870  0.00  0.00    +0.180 C 
ATOM     30  C   UNL     1       5.542  -4.223  25.922  0.00  0.00    +0.214 C 
BRANCH  29  31
ATOM     31  O   UNL     1       6.711  -5.919  24.547  0.00  0.00    -0.386 OA
ATOM     32  H   UNL     1       5.976  -6.404  24.123  0.00  0.00    +0.210 HD
ENDBRANCH  29  31
BRANCH  30  33
ATOM     33  O   UNL     1       4.922  -4.089  27.218  0.00  0.00    -0.383 OA
ATOM     34  H   UNL     1       4.484  -4.948  27.404  0.00  0.00    +0.210 HD
ENDBRANCH  30  33
BRANCH  28  35
ATOM     35  O   UNL     1       7.118  -5.221  28.136  0.00  0.00    -0.386 OA
ATOM     36  H   UNL     1       7.699  -5.745  28.718  0.00  0.00    +0.210 HD
ENDBRANCH  28  35
BRANCH  27  37
ATOM     37  C   UNL     1       9.414  -4.584  25.218  0.00  0.00    +0.190 C 
BRANCH  37  38
ATOM     38  O   UNL     1       9.778  -5.968  25.228  0.00  0.00    -0.392 OA
ATOM     39  H   UNL     1       9.611  -6.339  24.343  0.00  0.00    +0.210 HD
ENDBRANCH  37  38
ENDBRANCH  27  37
ENDBRANCH  24  25
ENDBRANCH   7  24
BRANCH   1  40
ATOM     40  O   UNL     1       8.614   4.714  23.241  0.00  0.00    -0.453 OA
BRANCH  40  43
ATOM     41  C   UNL     1      10.492   6.539  25.755  0.00  0.00    +0.198 C 
ATOM     42  O   UNL     1       9.466   6.248  24.812  0.00  0.00    -0.337 OA
ATOM     43  C   UNL     1       9.709   5.015  24.121  0.00  0.00    +0.339 C 
ATOM     44  C   UNL     1      11.026   5.084  23.305  0.00  0.00    +0.214 C 
ATOM     45  C   UNL     1      12.176   5.503  24.242  0.00  0.00    +0.180 C 
ATOM     46  C   UNL     1      11.818   6.763  25.039  0.00  0.00    +0.171 C 
BRANCH  46  47
ATOM     47  O   UNL     1      12.874   7.033  25.963  0.00  0.00    -0.387 OA
ATOM     48  H   UNL     1      13.618   6.449  25.730  0.00  0.00    +0.210 HD
ENDBRANCH  46  47
BRANCH  45  49
ATOM     49  O   UNL     1      13.384   5.733  23.503  0.00  0.00    -0.386 OA
ATOM     50  H   UNL     1      13.831   6.481  23.952  0.00  0.00    +0.210 HD
ENDBRANCH  45  49
BRANCH  44  51
ATOM     51  O   UNL     1      11.307   3.809  22.697  0.00  0.00    -0.383 OA
ATOM     52  H   UNL     1      12.062   3.405  23.155  0.00  0.00    +0.210 HD
ENDBRANCH  44  51
ENDBRANCH  40  43
ENDBRANCH   1  40
TORSDOF 16
ENDMDL
MODEL 5
REMARK VINA RESULT:      -7.3      1.208      2.162
REMARK  Name = 
REMARK  16 active torsions:
REMARK  status: ('A' for Active; 'I' for Inactive)
REMARK    1  A    between atoms: C_2  and  O_51
REMARK    2  A    between atoms: C_4  and  O_50
REMARK    3  A    between atoms: C_6  and  O_49
REMARK    4  A    between atoms: C_8  and  O_11
REMARK    5  A    between atoms: O_11  and  C_12
REMARK    6  A    between atoms: C_13  and  C_41
REMARK    7  A    between atoms: C_17  and  O_24
REMARK    8  A    between atoms: C_19  and  O_23
REMARK    9  A    between atoms: O_24  and  C_25
REMARK   10  A    between atoms: C_27  and  O_40
REMARK   11  A    between atoms: C_29  and  O_39
REMARK   12  A    between atoms: C_31  and  O_38
REMARK   13  A    between atoms: C_33  and  C_36
REMARK   14  A    between atoms: C_36  and  O_37
REMARK   15  A    between atoms: C_43  and  O_48
REMARK   16  A    between atoms: C_44  and  O_47
REMARK                            x       y       z     vdW  Elec       q    Type
REMARK                         _______ _______ _______ _____ _____    ______ ____
ROOT
ATOM      1  C   UNL     1       8.735  -1.950  23.107  0.00  0.00    +0.214 A 
ATOM      2  C   UNL     1       9.117  -0.709  22.356  0.00  0.00    +0.238 A 
ATOM      3  O   UNL     1       9.599  -0.749  21.230  0.00  0.00    -0.283 OA
ATOM      4  C   UNL     1       8.983   0.571  23.066  0.00  0.00    +0.109 A 
ATOM      5  C   UNL     1       8.887   0.524  24.449  0.00  0.00    +0.147 A 
ATOM      6  C   UNL     1       8.850   1.708  25.193  0.00  0.00    +0.093 A 
ATOM      7  C   UNL     1       8.856   2.953  24.553  0.00  0.00    +0.131 A 
ATOM      8  C   UNL     1       8.968   3.000  23.161  0.00  0.00    +0.092 A 
ATOM      9  O   UNL     1       8.821  -0.653  25.147  0.00  0.00    -0.451 OA
ATOM     10  C   UNL     1       9.016   1.813  22.421  0.00  0.00    +0.135 A 
ATOM     11  C   UNL     1       8.659  -1.847  24.452  0.00  0.00    +0.181 A 
ENDROOT
BRANCH  11  12
ATOM     12  C   UNL     1       8.432  -3.001  25.378  0.00  0.00    +0.025 A 
ATOM     13  C   UNL     1       7.377  -3.003  26.311  0.00  0.00    +0.015 A 
ATOM     14  C   UNL     1       7.101  -4.129  27.101  0.00  0.00    +0.050 A 
ATOM     15  C   UNL     1       7.867  -5.266  26.949  0.00  0.00    +0.158 A 
ATOM     16  C   UNL     1       8.910  -5.296  26.036  0.00  0.00    +0.159 A 
ATOM     17  C   UNL     1       9.207  -4.175  25.256  0.00  0.00    +0.060 A 
BRANCH  16  18
ATOM     18  O   UNL     1       9.625  -6.462  25.932  0.00  0.00    -0.503 OA
ATOM     19  H   UNL     1       9.188  -7.141  26.474  0.00  0.00    +0.292 HD
ENDBRANCH  16  18
BRANCH  15  20
ATOM     20  O   UNL     1       7.570  -6.374  27.690  0.00  0.00    -0.503 OA
ATOM     21  H   UNL     1       6.593  -6.435  27.663  0.00  0.00    +0.292 HD
ENDBRANCH  15  20
ENDBRANCH  11  12
BRANCH  10  22
ATOM     22  O   UNL     1       9.039   1.891  21.057  0.00  0.00    -0.506 OA
ATOM     23  H   UNL     1       8.666   2.736  20.761  0.00  0.00    +0.292 HD
ENDBRANCH  10  22
BRANCH   7  24
ATOM     24  O   UNL     1       8.701   4.179  25.160  0.00  0.00    -0.461 OA
BRANCH  24  25
ATOM     25  C   UNL     1       7.490   4.893  24.864  0.00  0.00    +0.339 C 
ATOM     26  O   UNL     1       7.642   6.305  25.032  0.00  0.00    -0.331 OA
ATOM     27  C   UNL     1       7.326   6.940  26.274  0.00  0.00    +0.179 C 
ATOM     28  C   UNL     1       6.079   6.362  26.955  0.00  0.00    +0.177 C 
ATOM     29  C   UNL     1       6.153   4.833  27.038  0.00  0.00    +0.180 C 
ATOM     30  C   UNL     1       6.314   4.246  25.630  0.00  0.00    +0.214 C 
BRANCH  29  31
ATOM     31  O   UNL     1       7.178   4.423  27.944  0.00  0.00    -0.386 OA
ATOM     32  H   UNL     1       7.971   4.978  27.814  0.00  0.00    +0.210 HD
ENDBRANCH  29  31
BRANCH  30  33
ATOM     33  O   UNL     1       5.086   4.431  24.893  0.00  0.00    -0.383 OA
ATOM     34  H   UNL     1       4.405   4.685  25.552  0.00  0.00    +0.210 HD
ENDBRANCH  30  33
BRANCH  28  35
ATOM     35  O   UNL     1       4.931   6.733  26.169  0.00  0.00    -0.386 OA
ATOM     36  H   UNL     1       4.138   6.503  26.687  0.00  0.00    +0.210 HD
ENDBRANCH  28  35
BRANCH  27  37
ATOM     37  C   UNL     1       8.529   7.105  27.222  0.00  0.00    +0.190 C 
BRANCH  37  38
ATOM     38  O   UNL     1       9.694   6.476  26.679  0.00  0.00    -0.392 OA
ATOM     39  H   UNL     1       9.873   6.859  25.802  0.00  0.00    +0.210 HD
ENDBRANCH  37  38
ENDBRANCH  27  37
ENDBRANCH  24  25
ENDBRANCH   7  24
BRANCH   1  40
ATOM     40  O   UNL     1       8.561  -3.164  22.443  0.00  0.00    -0.453 OA
BRANCH  40  43
ATOM     41  C   UNL     1       4.943  -3.073  22.734  0.00  0.00    +0.198 C 
ATOM     42  O   UNL     1       6.306  -2.742  22.978  0.00  0.00    -0.337 OA
ATOM     43  C   UNL     1       7.201  -3.582  22.236  0.00  0.00    +0.339 C 
ATOM     44  C   UNL     1       7.047  -5.067  22.653  0.00  0.00    +0.214 C 
ATOM     45  C   UNL     1       5.566  -5.474  22.521  0.00  0.00    +0.180 C 
ATOM     46  C   UNL     1       4.644  -4.481  23.237  0.00  0.00    +0.171 C 
BRANCH  46  47
ATOM     47  O   UNL     1       3.288  -4.852  22.984  0.00  0.00    -0.387 OA
ATOM     48  H   UNL     1       2.869  -4.111  22.510  0.00  0.00    +0.210 HD
ENDBRANCH  46  47
BRANCH  45  49
ATOM     49  O   UNL     1       5.345  -6.793  23.044  0.00  0.00    -0.386 OA
ATOM     50  H   UNL     1       5.570  -6.740  23.996  0.00  0.00    +0.210 HD
ENDBRANCH  45  49
BRANCH  44  51
ATOM     51  O   UNL     1       7.879  -5.909  21.833  0.00  0.00    -0.383 OA
ATOM     52  H   UNL     1       7.868  -6.808  22.197  0.00  0.00    +0.210 HD
ENDBRANCH  44  51
ENDBRANCH  40  43
ENDBRANCH   1  40
TORSDOF 16
ENDMDL
MODEL 6
REMARK VINA RESULT:      -7.3      2.228      9.716
REMARK  Name = 
REMARK  16 active torsions:
REMARK  status: ('A' for Active; 'I' for Inactive)
REMARK    1  A    between atoms: C_2  and  O_51
REMARK    2  A    between atoms: C_4  and  O_50
REMARK    3  A    between atoms: C_6  and  O_49
REMARK    4  A    between atoms: C_8  and  O_11
REMARK    5  A    between atoms: O_11  and  C_12
REMARK    6  A    between atoms: C_13  and  C_41
REMARK    7  A    between atoms: C_17  and  O_24
REMARK    8  A    between atoms: C_19  and  O_23
REMARK    9  A    between atoms: O_24  and  C_25
REMARK   10  A    between atoms: C_27  and  O_40
REMARK   11  A    between atoms: C_29  and  O_39
REMARK   12  A    between atoms: C_31  and  O_38
REMARK   13  A    between atoms: C_33  and  C_36
REMARK   14  A    between atoms: C_36  and  O_37
REMARK   15  A    between atoms: C_43  and  O_48
REMARK   16  A    between atoms: C_44  and  O_47
REMARK                            x       y       z     vdW  Elec       q    Type
REMARK                         _______ _______ _______ _____ _____    ______ ____
ROOT
ATOM      1  C   UNL     1       8.169   2.943  22.909  0.00  0.00    +0.214 A 
ATOM      2  C   UNL     1       8.960   1.737  22.499  0.00  0.00    +0.238 A 
ATOM      3  O   UNL     1       9.960   1.820  21.795  0.00  0.00    -0.283 OA
ATOM      4  C   UNL     1       8.432   0.423  22.893  0.00  0.00    +0.109 A 
ATOM      5  C   UNL     1       7.098   0.360  23.264  0.00  0.00    +0.147 A 
ATOM      6  C   UNL     1       6.507  -0.872  23.562  0.00  0.00    +0.093 A 
ATOM      7  C   UNL     1       7.264  -2.050  23.541  0.00  0.00    +0.131 A 
ATOM      8  C   UNL     1       8.604  -1.987  23.152  0.00  0.00    +0.092 A 
ATOM      9  O   UNL     1       6.302   1.472  23.362  0.00  0.00    -0.451 OA
ATOM     10  C   UNL     1       9.188  -0.753  22.844  0.00  0.00    +0.135 A 
ATOM     11  C   UNL     1       6.883   2.733  23.267  0.00  0.00    +0.181 A 
ENDROOT
BRANCH  11  12
ATOM     12  C   UNL     1       5.900   3.820  23.570  0.00  0.00    +0.025 A 
ATOM     13  C   UNL     1       5.729   4.319  24.877  0.00  0.00    +0.015 A 
ATOM     14  C   UNL     1       4.888   5.410  25.139  0.00  0.00    +0.050 A 
ATOM     15  C   UNL     1       4.226   6.020  24.093  0.00  0.00    +0.158 A 
ATOM     16  C   UNL     1       4.376   5.554  22.796  0.00  0.00    +0.159 A 
ATOM     17  C   UNL     1       5.197   4.457  22.524  0.00  0.00    +0.060 A 
BRANCH  16  18
ATOM     18  O   UNL     1       3.694   6.213  21.806  0.00  0.00    -0.503 OA
ATOM     19  H   UNL     1       2.790   5.858  21.766  0.00  0.00    +0.292 HD
ENDBRANCH  16  18
BRANCH  15  20
ATOM     20  O   UNL     1       3.439   7.108  24.346  0.00  0.00    -0.503 OA
ATOM     21  H   UNL     1       4.067   7.809  24.616  0.00  0.00    +0.292 HD
ENDBRANCH  15  20
ENDBRANCH  11  12
BRANCH  10  22
ATOM     22  O   UNL     1      10.522  -0.714  22.550  0.00  0.00    -0.506 OA
ATOM     23  H   UNL     1      10.662  -0.833  21.597  0.00  0.00    +0.292 HD
ENDBRANCH  10  22
BRANCH   7  24
ATOM     24  O   UNL     1       6.834  -3.298  23.929  0.00  0.00    -0.461 OA
BRANCH  24  25
ATOM     25  C   UNL     1       7.665  -4.000  24.868  0.00  0.00    +0.339 C 
ATOM     26  O   UNL     1       7.408  -5.406  24.871  0.00  0.00    -0.331 OA
ATOM     27  C   UNL     1       6.462  -5.982  25.776  0.00  0.00    +0.179 C 
ATOM     28  C   UNL     1       6.493  -5.352  27.174  0.00  0.00    +0.177 C 
ATOM     29  C   UNL     1       6.425  -3.823  27.092  0.00  0.00    +0.180 C 
ATOM     30  C   UNL     1       7.590  -3.298  26.243  0.00  0.00    +0.214 C 
BRANCH  29  31
ATOM     31  O   UNL     1       5.145  -3.396  26.625  0.00  0.00    -0.386 OA
ATOM     32  H   UNL     1       4.925  -3.867  25.798  0.00  0.00    +0.210 HD
ENDBRANCH  29  31
BRANCH  30  33
ATOM     33  O   UNL     1       8.828  -3.489  26.961  0.00  0.00    -0.383 OA
ATOM     34  H   UNL     1       8.969  -4.459  27.013  0.00  0.00    +0.210 HD
ENDBRANCH  30  33
BRANCH  28  35
ATOM     35  O   UNL     1       7.730  -5.732  27.806  0.00  0.00    -0.386 OA
ATOM     36  H   UNL     1       8.079  -4.942  28.260  0.00  0.00    +0.210 HD
ENDBRANCH  28  35
BRANCH  27  37
ATOM     37  C   UNL     1       5.043  -6.132  25.196  0.00  0.00    +0.190 C 
BRANCH  37  38
ATOM     38  O   UNL     1       4.066  -6.144  26.242  0.00  0.00    -0.392 OA
ATOM     39  H   UNL     1       4.083  -7.017  26.672  0.00  0.00    +0.210 HD
ENDBRANCH  37  38
ENDBRANCH  27  37
ENDBRANCH  24  25
ENDBRANCH   7  24
BRANCH   1  40
ATOM     40  O   UNL     1       8.719   4.222  22.831  0.00  0.00    -0.453 OA
BRANCH  40  43
ATOM     41  C   UNL     1       9.446   6.066  25.873  0.00  0.00    +0.198 C 
ATOM     42  O   UNL     1       8.763   5.670  24.689  0.00  0.00    -0.337 OA
ATOM     43  C   UNL     1       9.478   4.654  23.973  0.00  0.00    +0.339 C 
ATOM     44  C   UNL     1      10.864   5.172  23.507  0.00  0.00    +0.214 C 
ATOM     45  C   UNL     1      11.629   5.723  24.727  0.00  0.00    +0.180 C 
ATOM     46  C   UNL     1      10.777   6.719  25.521  0.00  0.00    +0.171 C 
BRANCH  46  47
ATOM     47  O   UNL     1      11.498   7.106  26.692  0.00  0.00    -0.387 OA
ATOM     48  H   UNL     1      11.114   6.618  27.442  0.00  0.00    +0.210 HD
ENDBRANCH  46  47
BRANCH  45  49
ATOM     49  O   UNL     1      12.853   6.355  24.325  0.00  0.00    -0.386 OA
ATOM     50  H   UNL     1      13.408   5.642  23.945  0.00  0.00    +0.210 HD
ENDBRANCH  45  49
BRANCH  44  51
ATOM     51  O   UNL     1      11.610   4.113  22.877  0.00  0.00    -0.383 OA
ATOM     52  H   UNL     1      11.144   3.842  22.070  0.00  0.00    +0.210 HD
ENDBRANCH  44  51
ENDBRANCH  40  43
ENDBRANCH   1  40
TORSDOF 16
ENDMDL
MODEL 7
REMARK VINA RESULT:      -7.3      1.784      2.985
REMARK  Name = 
REMARK  16 active torsions:
REMARK  status: ('A' for Active; 'I' for Inactive)
REMARK    1  A    between atoms: C_2  and  O_51
REMARK    2  A    between atoms: C_4  and  O_50
REMARK    3  A    between atoms: C_6  and  O_49
REMARK    4  A    between atoms: C_8  and  O_11
REMARK    5  A    between atoms: O_11  and  C_12
REMARK    6  A    between atoms: C_13  and  C_41
REMARK    7  A    between atoms: C_17  and  O_24
REMARK    8  A    between atoms: C_19  and  O_23
REMARK    9  A    between atoms: O_24  and  C_25
REMARK   10  A    between atoms: C_27  and  O_40
REMARK   11  A    between atoms: C_29  and  O_39
REMARK   12  A    between atoms: C_31  and  O_38
REMARK   13  A    between atoms: C_33  and  C_36
REMARK   14  A    between atoms: C_36  and  O_37
REMARK   15  A    between atoms: C_43  and  O_48
REMARK   16  A    between atoms: C_44  and  O_47
REMARK                            x       y       z     vdW  Elec       q    Type
REMARK                         _______ _______ _______ _____ _____    ______ ____
ROOT
ATOM      1  C   UNL     1       7.715  -3.097  25.234  0.00  0.00    +0.214 A 
ATOM      2  C   UNL     1       8.906  -2.439  24.605  0.00  0.00    +0.238 A 
ATOM      3  O   UNL     1       9.850  -3.082  24.160  0.00  0.00    -0.283 OA
ATOM      4  C   UNL     1       8.950  -0.970  24.629  0.00  0.00    +0.109 A 
ATOM      5  C   UNL     1       8.118  -0.324  25.532  0.00  0.00    +0.147 A 
ATOM      6  C   UNL     1       8.176   1.066  25.672  0.00  0.00    +0.093 A 
ATOM      7  C   UNL     1       9.032   1.830  24.870  0.00  0.00    +0.131 A 
ATOM      8  C   UNL     1       9.879   1.178  23.971  0.00  0.00    +0.092 A 
ATOM      9  O   UNL     1       7.214  -0.993  26.315  0.00  0.00    -0.451 OA
ATOM     10  C   UNL     1       9.827  -0.215  23.842  0.00  0.00    +0.135 A 
ATOM     11  C   UNL     1       6.980  -2.344  26.079  0.00  0.00    +0.181 A 
ENDROOT
BRANCH  11  12
ATOM     12  C   UNL     1       5.844  -2.861  26.906  0.00  0.00    +0.025 A 
ATOM     13  C   UNL     1       4.515  -2.460  26.670  0.00  0.00    +0.015 A 
ATOM     14  C   UNL     1       3.443  -3.028  27.372  0.00  0.00    +0.050 A 
ATOM     15  C   UNL     1       3.692  -4.015  28.304  0.00  0.00    +0.158 A 
ATOM     16  C   UNL     1       4.989  -4.434  28.557  0.00  0.00    +0.159 A 
ATOM     17  C   UNL     1       6.068  -3.862  27.877  0.00  0.00    +0.060 A 
BRANCH  16  18
ATOM     18  O   UNL     1       5.163  -5.423  29.491  0.00  0.00    -0.503 OA
ATOM     19  H   UNL     1       4.288  -5.757  29.752  0.00  0.00    +0.292 HD
ENDBRANCH  16  18
BRANCH  15  20
ATOM     20  O   UNL     1       2.643  -4.595  28.959  0.00  0.00    -0.503 OA
ATOM     21  H   UNL     1       1.847  -4.243  28.510  0.00  0.00    +0.292 HD
ENDBRANCH  15  20
ENDBRANCH  11  12
BRANCH  10  22
ATOM     22  O   UNL     1      10.607  -0.816  22.895  0.00  0.00    -0.506 OA
ATOM     23  H   UNL     1      10.836  -1.718  23.168  0.00  0.00    +0.292 HD
ENDBRANCH  10  22
BRANCH   7  24
ATOM     24  O   UNL     1       9.093   3.204  24.825  0.00  0.00    -0.461 OA
BRANCH  24  25
ATOM     25  C   UNL     1       9.065   3.806  23.520  0.00  0.00    +0.339 C 
ATOM     26  O   UNL     1       9.760   5.055  23.488  0.00  0.00    -0.331 OA
ATOM     27  C   UNL     1       9.073   6.289  23.712  0.00  0.00    +0.179 C 
ATOM     28  C   UNL     1       7.679   6.335  23.076  0.00  0.00    +0.177 C 
ATOM     29  C   UNL     1       6.862   5.092  23.444  0.00  0.00    +0.180 C 
ATOM     30  C   UNL     1       7.611   3.830  22.998  0.00  0.00    +0.214 C 
BRANCH  29  31
ATOM     31  O   UNL     1       6.531   5.094  24.833  0.00  0.00    -0.386 OA
ATOM     32  H   UNL     1       6.947   4.325  25.269  0.00  0.00    +0.210 HD
ENDBRANCH  29  31
BRANCH  30  33
ATOM     33  O   UNL     1       7.606   3.757  21.556  0.00  0.00    -0.383 OA
ATOM     34  H   UNL     1       6.930   3.086  21.317  0.00  0.00    +0.210 HD
ENDBRANCH  30  33
BRANCH  28  35
ATOM     35  O   UNL     1       7.843   6.380  21.646  0.00  0.00    -0.386 OA
ATOM     36  H   UNL     1       8.247   7.240  21.427  0.00  0.00    +0.210 HD
ENDBRANCH  28  35
BRANCH  27  37
ATOM     37  C   UNL     1       9.102   6.771  25.175  0.00  0.00    +0.190 C 
BRANCH  37  38
ATOM     38  O   UNL     1       9.037   5.662  26.077  0.00  0.00    -0.392 OA
ATOM     39  H   UNL     1       8.599   5.953  26.896  0.00  0.00    +0.210 HD
ENDBRANCH  37  38
ENDBRANCH  27  37
ENDBRANCH  24  25
ENDBRANCH   7  24
BRANCH   1  40
ATOM     40  O   UNL     1       7.446  -4.449  25.017  0.00  0.00    -0.453 OA
BRANCH  40  43
ATOM     41  C   UNL     1       4.162  -5.934  24.585  0.00  0.00    +0.198 C 
ATOM     42  O   UNL     1       5.440  -5.676  25.156  0.00  0.00    -0.337 OA
ATOM     43  C   UNL     1       6.200  -4.749  24.367  0.00  0.00    +0.339 C 
ATOM     44  C   UNL     1       6.478  -5.319  22.952  0.00  0.00    +0.214 C 
ATOM     45  C   UNL     1       5.140  -5.729  22.305  0.00  0.00    +0.180 C 
ATOM     46  C   UNL     1       4.317  -6.627  23.236  0.00  0.00    +0.171 C 
BRANCH  46  47
ATOM     47  O   UNL     1       3.050  -6.878  22.626  0.00  0.00    -0.387 OA
ATOM     48  H   UNL     1       3.055  -6.437  21.757  0.00  0.00    +0.210 HD
ENDBRANCH  46  47
BRANCH  45  49
ATOM     49  O   UNL     1       5.357  -6.406  21.058  0.00  0.00    -0.386 OA
ATOM     50  H   UNL     1       5.638  -5.712  20.425  0.00  0.00    +0.210 HD
ENDBRANCH  45  49
BRANCH  44  51
ATOM     51  O   UNL     1       7.155  -4.341  22.141  0.00  0.00    -0.383 OA
ATOM     52  H   UNL     1       8.111  -4.496  22.199  0.00  0.00    +0.210 HD
ENDBRANCH  44  51
ENDBRANCH  40  43
ENDBRANCH   1  40
TORSDOF 16
ENDMDL
MODEL 8
REMARK VINA RESULT:      -7.3      2.092      3.650
REMARK  Name = 
REMARK  16 active torsions:
REMARK  status: ('A' for Active; 'I' for Inactive)
REMARK    1  A    between atoms: C_2  and  O_51
REMARK    2  A    between atoms: C_4  and  O_50
REMARK    3  A    between atoms: C_6  and  O_49
REMARK    4  A    between atoms: C_8  and  O_11
REMARK    5  A    between atoms: O_11  and  C_12
REMARK    6  A    between atoms: C_13  and  C_41
REMARK    7  A    between atoms: C_17  and  O_24
REMARK    8  A    between atoms: C_19  and  O_23
REMARK    9  A    between atoms: O_24  and  C_25
REMARK   10  A    between atoms: C_27  and  O_40
REMARK   11  A    between atoms: C_29  and  O_39
REMARK   12  A    between atoms: C_31  and  O_38
REMARK   13  A    between atoms: C_33  and  C_36
REMARK   14  A    between atoms: C_36  and  O_37
REMARK   15  A    between atoms: C_43  and  O_48
REMARK   16  A    between atoms: C_44  and  O_47
REMARK                            x       y       z     vdW  Elec       q    Type
REMARK                         _______ _______ _______ _____ _____    ______ ____
ROOT
ATOM      1  C   UNL     1       7.458  -4.457  25.816  0.00  0.00    +0.214 A 
ATOM      2  C   UNL     1       8.622  -3.960  25.011  0.00  0.00    +0.238 A 
ATOM      3  O   UNL     1       9.434  -4.721  24.498  0.00  0.00    -0.283 OA
ATOM      4  C   UNL     1       8.815  -2.505  24.942  0.00  0.00    +0.109 A 
ATOM      5  C   UNL     1       8.171  -1.732  25.896  0.00  0.00    +0.147 A 
ATOM      6  C   UNL     1       8.384  -0.351  25.945  0.00  0.00    +0.093 A 
ATOM      7  C   UNL     1       9.206   0.278  25.002  0.00  0.00    +0.131 A 
ATOM      8  C   UNL     1       9.866  -0.502  24.050  0.00  0.00    +0.092 A 
ATOM      9  O   UNL     1       7.309  -2.262  26.821  0.00  0.00    -0.451 OA
ATOM     10  C   UNL     1       9.659  -1.886  24.012  0.00  0.00    +0.135 A 
ATOM     11  C   UNL     1       6.913  -3.590  26.696  0.00  0.00    +0.181 A 
ENDROOT
BRANCH  11  12
ATOM     12  C   UNL     1       5.843  -3.943  27.681  0.00  0.00    +0.025 A 
ATOM     13  C   UNL     1       4.604  -3.272  27.700  0.00  0.00    +0.015 A 
ATOM     14  C   UNL     1       3.565  -3.678  28.550  0.00  0.00    +0.050 A 
ATOM     15  C   UNL     1       3.753  -4.768  29.374  0.00  0.00    +0.158 A 
ATOM     16  C   UNL     1       4.959  -5.451  29.377  0.00  0.00    +0.159 A 
ATOM     17  C   UNL     1       6.009  -5.046  28.547  0.00  0.00    +0.060 A 
BRANCH  16  18
ATOM     18  O   UNL     1       5.073  -6.530  30.216  0.00  0.00    -0.503 OA
ATOM     19  H   UNL     1       6.017  -6.731  30.333  0.00  0.00    +0.292 HD
ENDBRANCH  16  18
BRANCH  15  20
ATOM     20  O   UNL     1       2.725  -5.185  30.172  0.00  0.00    -0.503 OA
ATOM     21  H   UNL     1       2.119  -5.658  29.566  0.00  0.00    +0.292 HD
ENDBRANCH  15  20
ENDBRANCH  11  12
BRANCH  10  22
ATOM     22  O   UNL     1      10.251  -2.611  23.017  0.00  0.00    -0.506 OA
ATOM     23  H   UNL     1      11.217  -2.556  23.088  0.00  0.00    +0.292 HD
ENDBRANCH  10  22
BRANCH   7  24
ATOM     24  O   UNL     1       9.398   1.634  24.867  0.00  0.00    -0.461 OA
BRANCH  24  25
ATOM     25  C   UNL     1       9.168   2.190  23.562  0.00  0.00    +0.339 C 
ATOM     26  O   UNL     1       9.663   3.526  23.449  0.00  0.00    -0.331 OA
ATOM     27  C   UNL     1       8.821   4.651  23.716  0.00  0.00    +0.179 C 
ATOM     28  C   UNL     1       7.386   4.474  23.207  0.00  0.00    +0.177 C 
ATOM     29  C   UNL     1       6.799   3.134  23.664  0.00  0.00    +0.180 C 
ATOM     30  C   UNL     1       7.687   1.984  23.171  0.00  0.00    +0.214 C 
BRANCH  29  31
ATOM     31  O   UNL     1       6.593   3.126  25.078  0.00  0.00    -0.386 OA
ATOM     32  H   UNL     1       7.307   3.629  25.515  0.00  0.00    +0.210 HD
ENDBRANCH  29  31
BRANCH  30  33
ATOM     33  O   UNL     1       7.568   1.871  21.737  0.00  0.00    -0.383 OA
ATOM     34  H   UNL     1       6.708   1.429  21.566  0.00  0.00    +0.210 HD
ENDBRANCH  30  33
BRANCH  28  35
ATOM     35  O   UNL     1       7.417   4.503  21.767  0.00  0.00    -0.386 OA
ATOM     36  H   UNL     1       6.547   4.820  21.464  0.00  0.00    +0.210 HD
ENDBRANCH  28  35
BRANCH  27  37
ATOM     37  C   UNL     1       8.905   5.172  25.164  0.00  0.00    +0.190 C 
BRANCH  37  38
ATOM     38  O   UNL     1       7.728   5.911  25.505  0.00  0.00    -0.392 OA
ATOM     39  H   UNL     1       7.885   6.852  25.311  0.00  0.00    +0.210 HD
ENDBRANCH  37  38
ENDBRANCH  27  37
ENDBRANCH  24  25
ENDBRANCH   7  24
BRANCH   1  40
ATOM     40  O   UNL     1       7.031  -5.781  25.714  0.00  0.00    -0.453 OA
BRANCH  40  43
ATOM     41  C   UNL     1       4.750  -5.144  22.963  0.00  0.00    +0.198 C 
ATOM     42  O   UNL     1       5.765  -4.905  23.932  0.00  0.00    -0.337 OA
ATOM     43  C   UNL     1       5.944  -6.027  24.806  0.00  0.00    +0.339 C 
ATOM     44  C   UNL     1       4.651  -6.317  25.613  0.00  0.00    +0.214 C 
ATOM     45  C   UNL     1       3.474  -6.482  24.631  0.00  0.00    +0.180 C 
ATOM     46  C   UNL     1       3.397  -5.309  23.646  0.00  0.00    +0.171 C 
BRANCH  46  47
ATOM     47  O   UNL     1       2.360  -5.575  22.700  0.00  0.00    -0.387 OA
ATOM     48  H   UNL     1       1.511  -5.473  23.165  0.00  0.00    +0.210 HD
ENDBRANCH  46  47
BRANCH  45  49
ATOM     49  O   UNL     1       2.229  -6.596  25.335  0.00  0.00    -0.386 OA
ATOM     50  H   UNL     1       2.465  -6.862  26.248  0.00  0.00    +0.210 HD
ENDBRANCH  45  49
BRANCH  44  51
ATOM     51  O   UNL     1       4.814  -7.504  26.412  0.00  0.00    -0.383 OA
ATOM     52  H   UNL     1       5.761  -7.646  26.570  0.00  0.00    +0.210 HD
ENDBRANCH  44  51
ENDBRANCH  40  43
ENDBRANCH   1  40
TORSDOF 16
ENDMDL
MODEL 9
REMARK VINA RESULT:      -7.2      1.995      3.051
REMARK  Name = 
REMARK  16 active torsions:
REMARK  status: ('A' for Active; 'I' for Inactive)
REMARK    1  A    between atoms: C_2  and  O_51
REMARK    2  A    between atoms: C_4  and  O_50
REMARK    3  A    between atoms: C_6  and  O_49
REMARK    4  A    between atoms: C_8  and  O_11
REMARK    5  A    between atoms: O_11  and  C_12
REMARK    6  A    between atoms: C_13  and  C_41
REMARK    7  A    between atoms: C_17  and  O_24
REMARK    8  A    between atoms: C_19  and  O_23
REMARK    9  A    between atoms: O_24  and  C_25
REMARK   10  A    between atoms: C_27  and  O_40
REMARK   11  A    between atoms: C_29  and  O_39
REMARK   12  A    between atoms: C_31  and  O_38
REMARK   13  A    between atoms: C_33  and  C_36
REMARK   14  A    between atoms: C_36  and  O_37
REMARK   15  A    between atoms: C_43  and  O_48
REMARK   16  A    between atoms: C_44  and  O_47
REMARK                            x       y       z     vdW  Elec       q    Type
REMARK                         _______ _______ _______ _____ _____    ______ ____
ROOT
ATOM      1  C   UNL     1       6.952  -4.394  24.885  0.00  0.00    +0.214 A 
ATOM      2  C   UNL     1       7.702  -3.648  23.823  0.00  0.00    +0.238 A 
ATOM      3  O   UNL     1       8.132  -4.199  22.816  0.00  0.00    -0.283 OA
ATOM      4  C   UNL     1       7.994  -2.230  24.080  0.00  0.00    +0.109 A 
ATOM      5  C   UNL     1       7.905  -1.791  25.392  0.00  0.00    +0.147 A 
ATOM      6  C   UNL     1       8.258  -0.479  25.721  0.00  0.00    +0.093 A 
ATOM      7  C   UNL     1       8.656   0.424  24.727  0.00  0.00    +0.131 A 
ATOM      8  C   UNL     1       8.759  -0.023  23.408  0.00  0.00    +0.092 A 
ATOM      9  O   UNL     1       7.474  -2.595  26.415  0.00  0.00    -0.451 OA
ATOM     10  C   UNL     1       8.416  -1.341  23.085  0.00  0.00    +0.135 A 
ATOM     11  C   UNL     1       6.929  -3.840  26.116  0.00  0.00    +0.181 A 
ENDROOT
BRANCH  11  12
ATOM     12  C   UNL     1       6.356  -4.499  27.332  0.00  0.00    +0.025 A 
ATOM     13  C   UNL     1       5.171  -4.033  27.936  0.00  0.00    +0.015 A 
ATOM     14  C   UNL     1       4.578  -4.717  29.007  0.00  0.00    +0.050 A 
ATOM     15  C   UNL     1       5.156  -5.882  29.469  0.00  0.00    +0.158 A 
ATOM     16  C   UNL     1       6.320  -6.368  28.893  0.00  0.00    +0.159 A 
ATOM     17  C   UNL     1       6.931  -5.686  27.837  0.00  0.00    +0.060 A 
BRANCH  16  18
ATOM     18  O   UNL     1       6.835  -7.535  29.397  0.00  0.00    -0.503 OA
ATOM     19  H   UNL     1       6.213  -7.886  30.057  0.00  0.00    +0.292 HD
ENDBRANCH  16  18
BRANCH  15  20
ATOM     20  O   UNL     1       4.554  -6.568  30.485  0.00  0.00    -0.503 OA
ATOM     21  H   UNL     1       3.770  -6.984  30.071  0.00  0.00    +0.292 HD
ENDBRANCH  15  20
ENDBRANCH  11  12
BRANCH  10  22
ATOM     22  O   UNL     1       8.446  -1.724  21.773  0.00  0.00    -0.506 OA
ATOM     23  H   UNL     1       8.038  -2.598  21.667  0.00  0.00    +0.292 HD
ENDBRANCH  10  22
BRANCH   7  24
ATOM     24  O   UNL     1       8.909   1.765  24.902  0.00  0.00    -0.461 OA
BRANCH  24  25
ATOM     25  C   UNL     1       7.873   2.539  25.528  0.00  0.00    +0.339 C 
ATOM     26  O   UNL     1       6.592   2.301  24.940  0.00  0.00    -0.331 OA
ATOM     27  C   UNL     1       6.106   3.120  23.873  0.00  0.00    +0.179 C 
ATOM     28  C   UNL     1       6.449   4.606  24.039  0.00  0.00    +0.177 C 
ATOM     29  C   UNL     1       7.939   4.798  24.342  0.00  0.00    +0.180 C 
ATOM     30  C   UNL     1       8.314   4.018  25.608  0.00  0.00    +0.214 C 
BRANCH  29  31
ATOM     31  O   UNL     1       8.736   4.455  23.208  0.00  0.00    -0.386 OA
ATOM     32  H   UNL     1       8.365   3.662  22.775  0.00  0.00    +0.210 HD
ENDBRANCH  29  31
BRANCH  30  33
ATOM     33  O   UNL     1       7.708   4.650  26.756  0.00  0.00    -0.383 OA
ATOM     34  H   UNL     1       8.344   4.547  27.496  0.00  0.00    +0.210 HD
ENDBRANCH  30  33
BRANCH  28  35
ATOM     35  O   UNL     1       5.678   5.121  25.141  0.00  0.00    -0.386 OA
ATOM     36  H   UNL     1       5.234   5.931  24.831  0.00  0.00    +0.210 HD
ENDBRANCH  28  35
BRANCH  27  37
ATOM     37  C   UNL     1       6.405   2.569  22.466  0.00  0.00    +0.190 C 
BRANCH  37  38
ATOM     38  O   UNL     1       6.333   3.610  21.487  0.00  0.00    -0.392 OA
ATOM     39  H   UNL     1       5.631   4.233  21.747  0.00  0.00    +0.210 HD
ENDBRANCH  37  38
ENDBRANCH  27  37
ENDBRANCH  24  25
ENDBRANCH   7  24
BRANCH   1  40
ATOM     40  O   UNL     1       6.389  -5.643  24.621  0.00  0.00    -0.453 OA
BRANCH  40  43
ATOM     41  C   UNL     1       3.132  -6.735  25.795  0.00  0.00    +0.198 C 
ATOM     42  O   UNL     1       4.547  -6.693  25.648  0.00  0.00    -0.337 OA
ATOM     43  C   UNL     1       4.955  -5.716  24.681  0.00  0.00    +0.339 C 
ATOM     44  C   UNL     1       4.395  -6.055  23.275  0.00  0.00    +0.214 C 
ATOM     45  C   UNL     1       2.866  -6.227  23.372  0.00  0.00    +0.180 C 
ATOM     46  C   UNL     1       2.480  -7.195  24.496  0.00  0.00    +0.171 C 
BRANCH  46  47
ATOM     47  O   UNL     1       1.056  -7.225  24.605  0.00  0.00    -0.387 OA
ATOM     48  H   UNL     1       0.784  -6.408  25.060  0.00  0.00    +0.210 HD
ENDBRANCH  46  47
BRANCH  45  49
ATOM     49  O   UNL     1       2.320  -6.695  22.130  0.00  0.00    -0.386 OA
ATOM     50  H   UNL     1       1.347  -6.638  22.230  0.00  0.00    +0.210 HD
ENDBRANCH  45  49
BRANCH  44  51
ATOM     51  O   UNL     1       4.729  -5.015  22.337  0.00  0.00    -0.383 OA
ATOM     52  H   UNL     1       4.707  -4.161  22.797  0.00  0.00    +0.210 HD
ENDBRANCH  44  51
ENDBRANCH  40  43
ENDBRANCH   1  40
TORSDOF 16
ENDMDL
