MODEL 1
REMARK VINA RESULT:      -7.1      0.000      0.000
REMARK  Name = 
REMARK  17 active torsions:
REMARK  status: ('A' for Active; 'I' for Inactive)
REMARK    1  A    between atoms: C_1  and  C_2
REMARK    2  A    between atoms: C_4  and  O_53
REMARK    3  A    between atoms: C_6  and  O_52
REMARK    4  A    between atoms: C_8  and  O_51
REMARK    5  A    between atoms: C_10  and  O_13
REMARK    6  A    between atoms: O_13  and  C_14
REMARK    7  A    between atoms: C_16  and  O_50
REMARK    8  A    between atoms: C_21  and  C_42
REMARK    9  A    between atoms: C_22  and  O_25
REMARK   10  A    between atoms: O_25  and  C_26
REMARK   11  A    between atoms: C_28  and  O_41
REMARK   12  A    between atoms: C_30  and  O_40
REMARK   13  A    between atoms: C_32  and  O_39
REMARK   14  A    between atoms: C_34  and  C_37
REMARK   15  A    between atoms: C_37  and  O_38
REMARK   16  A    between atoms: C_44  and  O_49
REMARK   17  A    between atoms: C_45  and  O_48
REMARK                            x       y       z     vdW  Elec       q    Type
REMARK                         _______ _______ _______ _____ _____    ______ ____
ROOT
ATOM      1  C   UNL     1       4.683  -5.313  25.274  0.00  0.00    +0.131 A 
ATOM      2  C   UNL     1       4.640  -4.109  26.004  0.00  0.00    +0.093 A 
ATOM      3  C   UNL     1       5.744  -3.243  26.009  0.00  0.00    +0.147 A 
ATOM      4  O   UNL     1       5.692  -2.074  26.743  0.00  0.00    -0.451 OA
ATOM      5  C   UNL     1       6.637  -1.083  26.449  0.00  0.00    +0.181 A 
ATOM      6  C   UNL     1       7.747  -1.277  25.703  0.00  0.00    +0.214 A 
ATOM      7  C   UNL     1       8.039  -2.713  25.428  0.00  0.00    +0.238 A 
ATOM      8  O   UNL     1       9.184  -3.153  25.416  0.00  0.00    -0.283 OA
ATOM      9  C   UNL     1       6.883  -3.590  25.294  0.00  0.00    +0.109 A 
ATOM     10  C   UNL     1       6.921  -4.759  24.538  0.00  0.00    +0.135 A 
ATOM     11  C   UNL     1       5.835  -5.628  24.545  0.00  0.00    +0.092 A 
ENDROOT
BRANCH   5  12
ATOM     12  C   UNL     1       6.389   0.196  27.144  0.00  0.00    +0.025 A 
ATOM     13  C   UNL     1       5.192   0.892  26.863  0.00  0.00    +0.015 A 
ATOM     14  C   UNL     1       4.889   2.098  27.501  0.00  0.00    +0.050 A 
ATOM     15  C   UNL     1       5.780   2.601  28.433  0.00  0.00    +0.158 A 
ATOM     16  C   UNL     1       6.969   1.931  28.718  0.00  0.00    +0.159 A 
ATOM     17  C   UNL     1       7.287   0.730  28.078  0.00  0.00    +0.060 A 
BRANCH  16  18
ATOM     18  O   UNL     1       7.801   2.505  29.643  0.00  0.00    -0.503 OA
ATOM     19  H   UNL     1       7.730   2.004  30.473  0.00  0.00    +0.292 HD
ENDBRANCH  16  18
BRANCH  15  20
ATOM     20  O   UNL     1       5.481   3.771  29.071  0.00  0.00    -0.503 OA
ATOM     21  H   UNL     1       4.602   3.619  29.472  0.00  0.00    +0.292 HD
ENDBRANCH  15  20
ENDBRANCH   5  12
BRANCH  10  22
ATOM     22  O   UNL     1       7.999  -5.039  23.753  0.00  0.00    -0.506 OA
ATOM     23  H   UNL     1       8.674  -5.528  24.252  0.00  0.00    +0.292 HD
ENDBRANCH  10  22
BRANCH   6  24
ATOM     24  O   UNL     1       8.599  -0.248  25.294  0.00  0.00    -0.453 OA
BRANCH  24  25
ATOM     25  C   UNL     1       8.108   0.540  24.184  0.00  0.00    +0.340 C 
ATOM     26  O   UNL     1       8.158  -0.191  22.950  0.00  0.00    -0.331 OA
ATOM     27  C   UNL     1       9.378  -0.206  22.207  0.00  0.00    +0.179 C 
ATOM     28  C   UNL     1       9.990   1.196  22.046  0.00  0.00    +0.177 C 
ATOM     29  C   UNL     1      10.143   1.893  23.402  0.00  0.00    +0.180 C 
ATOM     30  C   UNL     1       8.786   1.939  24.118  0.00  0.00    +0.214 C 
BRANCH  30  31
ATOM     31  O   UNL     1       7.933   2.886  23.456  0.00  0.00    -0.383 OA
ATOM     32  H   UNL     1       8.470   3.698  23.325  0.00  0.00    +0.210 HD
ENDBRANCH  30  31
BRANCH  29  33
ATOM     33  O   UNL     1      11.173   1.302  24.197  0.00  0.00    -0.386 OA
ATOM     34  H   UNL     1      11.463   1.943  24.869  0.00  0.00    +0.210 HD
ENDBRANCH  29  33
BRANCH  28  35
ATOM     35  O   UNL     1       9.097   1.981  21.223  0.00  0.00    -0.386 OA
ATOM     36  H   UNL     1       9.630   2.369  20.503  0.00  0.00    +0.210 HD
ENDBRANCH  28  35
BRANCH  27  37
ATOM     37  C   UNL     1      10.348  -1.267  22.737  0.00  0.00    +0.190 C 
BRANCH  37  38
ATOM     38  O   UNL     1       9.782  -2.566  22.607  0.00  0.00    -0.392 OA
ATOM     39  H   UNL     1      10.172  -2.970  21.812  0.00  0.00    +0.210 HD
ENDBRANCH  37  38
ENDBRANCH  27  37
ENDBRANCH  24  25
ENDBRANCH   6  24
BRANCH   1  40
ATOM     40  O   UNL     1       3.554  -6.101  25.327  0.00  0.00    -0.461 OA
BRANCH  40  44
ATOM     41  C   UNL     1       1.507  -7.913  26.724  0.00  0.00    +0.041 C 
ATOM     42  C   UNL     1       1.656  -8.478  25.315  0.00  0.00    +0.150 C 
ATOM     43  O   UNL     1       2.998  -8.371  24.807  0.00  0.00    -0.334 OA
ATOM     44  C   UNL     1       3.390  -7.091  24.291  0.00  0.00    +0.339 C 
ATOM     45  C   UNL     1       2.410  -6.592  23.211  0.00  0.00    +0.214 C 
ATOM     46  C   UNL     1       0.975  -6.572  23.738  0.00  0.00    +0.180 C 
ATOM     47  C   UNL     1       0.614  -7.952  24.307  0.00  0.00    +0.174 C 
BRANCH  47  48
ATOM     48  O   UNL     1       0.528  -8.884  23.212  0.00  0.00    -0.387 OA
ATOM     49  H   UNL     1      -0.368  -8.834  22.829  0.00  0.00    +0.210 HD
ENDBRANCH  47  48
BRANCH  46  50
ATOM     50  O   UNL     1       0.796  -5.520  24.694  0.00  0.00    -0.386 OA
ATOM     51  H   UNL     1       1.655  -5.094  24.868  0.00  0.00    +0.210 HD
ENDBRANCH  46  50
BRANCH  45  52
ATOM     52  O   UNL     1       2.796  -5.307  22.717  0.00  0.00    -0.383 OA
ATOM     53  H   UNL     1       3.377  -5.460  21.946  0.00  0.00    +0.210 HD
ENDBRANCH  45  52
ENDBRANCH  40  44
ENDBRANCH   1  40
TORSDOF 16
ENDMDL
MODEL 2
REMARK VINA RESULT:      -7.0      1.662      2.710
REMARK  Name = 
REMARK  17 active torsions:
REMARK  status: ('A' for Active; 'I' for Inactive)
REMARK    1  A    between atoms: C_1  and  C_2
REMARK    2  A    between atoms: C_4  and  O_53
REMARK    3  A    between atoms: C_6  and  O_52
REMARK    4  A    between atoms: C_8  and  O_51
REMARK    5  A    between atoms: C_10  and  O_13
REMARK    6  A    between atoms: O_13  and  C_14
REMARK    7  A    between atoms: C_16  and  O_50
REMARK    8  A    between atoms: C_21  and  C_42
REMARK    9  A    between atoms: C_22  and  O_25
REMARK   10  A    between atoms: O_25  and  C_26
REMARK   11  A    between atoms: C_28  and  O_41
REMARK   12  A    between atoms: C_30  and  O_40
REMARK   13  A    between atoms: C_32  and  O_39
REMARK   14  A    between atoms: C_34  and  C_37
REMARK   15  A    between atoms: C_37  and  O_38
REMARK   16  A    between atoms: C_44  and  O_49
REMARK   17  A    between atoms: C_45  and  O_48
REMARK                            x       y       z     vdW  Elec       q    Type
REMARK                         _______ _______ _______ _____ _____    ______ ____
ROOT
ATOM      1  C   UNL     1       3.693  -4.689  24.294  0.00  0.00    +0.131 A 
ATOM      2  C   UNL     1       4.112  -3.738  25.245  0.00  0.00    +0.093 A 
ATOM      3  C   UNL     1       5.096  -2.794  24.917  0.00  0.00    +0.147 A 
ATOM      4  O   UNL     1       5.508  -1.878  25.865  0.00  0.00    -0.451 OA
ATOM      5  C   UNL     1       6.206  -0.749  25.416  0.00  0.00    +0.181 A 
ATOM      6  C   UNL     1       6.737  -0.617  24.181  0.00  0.00    +0.214 A 
ATOM      7  C   UNL     1       6.758  -1.886  23.399  0.00  0.00    +0.238 A 
ATOM      8  O   UNL     1       7.694  -2.183  22.665  0.00  0.00    -0.283 OA
ATOM      9  C   UNL     1       5.660  -2.813  23.648  0.00  0.00    +0.109 A 
ATOM     10  C   UNL     1       5.225  -3.724  22.689  0.00  0.00    +0.135 A 
ATOM     11  C   UNL     1       4.262  -4.672  23.017  0.00  0.00    +0.092 A 
ENDROOT
BRANCH   5  12
ATOM     12  C   UNL     1       6.437   0.262  26.467  0.00  0.00    +0.025 A 
ATOM     13  C   UNL     1       5.671   1.448  26.438  0.00  0.00    +0.015 A 
ATOM     14  C   UNL     1       5.828   2.435  27.414  0.00  0.00    +0.050 A 
ATOM     15  C   UNL     1       6.744   2.228  28.431  0.00  0.00    +0.158 A 
ATOM     16  C   UNL     1       7.512   1.066  28.472  0.00  0.00    +0.159 A 
ATOM     17  C   UNL     1       7.371   0.077  27.495  0.00  0.00    +0.060 A 
BRANCH  16  18
ATOM     18  O   UNL     1       8.405   0.945  29.505  0.00  0.00    -0.503 OA
ATOM     19  H   UNL     1       8.446   1.795  29.976  0.00  0.00    +0.292 HD
ENDBRANCH  16  18
BRANCH  15  20
ATOM     20  O   UNL     1       6.890   3.182  29.396  0.00  0.00    -0.503 OA
ATOM     21  H   UNL     1       5.977   3.394  29.679  0.00  0.00    +0.292 HD
ENDBRANCH  15  20
ENDBRANCH   5  12
BRANCH  10  22
ATOM     22  O   UNL     1       5.704  -3.667  21.414  0.00  0.00    -0.506 OA
ATOM     23  H   UNL     1       5.423  -4.443  20.903  0.00  0.00    +0.292 HD
ENDBRANCH  10  22
BRANCH   6  24
ATOM     24  O   UNL     1       7.297   0.568  23.698  0.00  0.00    -0.453 OA
BRANCH  24  25
ATOM     25  C   UNL     1       8.638   0.842  24.168  0.00  0.00    +0.340 C 
ATOM     26  O   UNL     1       8.735   2.142  24.770  0.00  0.00    -0.331 OA
ATOM     27  C   UNL     1       8.958   3.275  23.929  0.00  0.00    +0.179 C 
ATOM     28  C   UNL     1      10.095   3.046  22.918  0.00  0.00    +0.177 C 
ATOM     29  C   UNL     1       9.871   1.759  22.114  0.00  0.00    +0.180 C 
ATOM     30  C   UNL     1       9.708   0.571  23.071  0.00  0.00    +0.214 C 
BRANCH  30  31
ATOM     31  O   UNL     1      10.978   0.265  23.667  0.00  0.00    -0.383 OA
ATOM     32  H   UNL     1      11.649   0.783  23.170  0.00  0.00    +0.210 HD
ENDBRANCH  30  31
BRANCH  29  33
ATOM     33  O   UNL     1       8.787   1.884  21.191  0.00  0.00    -0.386 OA
ATOM     34  H   UNL     1       9.120   2.265  20.360  0.00  0.00    +0.210 HD
ENDBRANCH  29  33
BRANCH  28  35
ATOM     35  O   UNL     1      11.331   2.918  23.656  0.00  0.00    -0.386 OA
ATOM     36  H   UNL     1      11.103   2.618  24.556  0.00  0.00    +0.210 HD
ENDBRANCH  28  35
BRANCH  27  37
ATOM     37  C   UNL     1       7.652   3.788  23.313  0.00  0.00    +0.190 C 
BRANCH  37  38
ATOM     38  O   UNL     1       7.926   4.660  22.224  0.00  0.00    -0.392 OA
ATOM     39  H   UNL     1       8.894   4.711  22.134  0.00  0.00    +0.210 HD
ENDBRANCH  37  38
ENDBRANCH  27  37
ENDBRANCH  24  25
ENDBRANCH   6  24
BRANCH   1  40
ATOM     40  O   UNL     1       2.723  -5.577  24.705  0.00  0.00    -0.461 OA
BRANCH  40  44
ATOM     41  C   UNL     1       0.508  -5.296  26.812  0.00  0.00    +0.041 C 
ATOM     42  C   UNL     1       1.305  -6.531  27.221  0.00  0.00    +0.150 C 
ATOM     43  O   UNL     1       2.713  -6.405  26.951  0.00  0.00    -0.334 OA
ATOM     44  C   UNL     1       3.131  -6.634  25.598  0.00  0.00    +0.339 C 
ATOM     45  C   UNL     1       2.648  -8.003  25.080  0.00  0.00    +0.214 C 
ATOM     46  C   UNL     1       1.133  -8.144  25.234  0.00  0.00    +0.180 C 
ATOM     47  C   UNL     1       0.732  -7.860  26.688  0.00  0.00    +0.174 C 
BRANCH  47  48
ATOM     48  O   UNL     1       1.228  -8.933  27.512  0.00  0.00    -0.387 OA
ATOM     49  H   UNL     1       1.160  -8.665  28.448  0.00  0.00    +0.210 HD
ENDBRANCH  47  48
BRANCH  46  50
ATOM     50  O   UNL     1       0.443  -7.305  24.300  0.00  0.00    -0.386 OA
ATOM     51  H   UNL     1       0.936  -6.471  24.193  0.00  0.00    +0.210 HD
ENDBRANCH  46  50
BRANCH  45  52
ATOM     52  O   UNL     1       3.051  -8.214  23.724  0.00  0.00    -0.383 OA
ATOM     53  H   UNL     1       3.725  -7.537  23.519  0.00  0.00    +0.210 HD
ENDBRANCH  45  52
ENDBRANCH  40  44
ENDBRANCH   1  40
TORSDOF 16
ENDMDL
MODEL 3
REMARK VINA RESULT:      -6.6      2.298      3.851
REMARK  Name = 
REMARK  17 active torsions:
REMARK  status: ('A' for Active; 'I' for Inactive)
REMARK    1  A    between atoms: C_1  and  C_2
REMARK    2  A    between atoms: C_4  and  O_53
REMARK    3  A    between atoms: C_6  and  O_52
REMARK    4  A    between atoms: C_8  and  O_51
REMARK    5  A    between atoms: C_10  and  O_13
REMARK    6  A    between atoms: O_13  and  C_14
REMARK    7  A    between atoms: C_16  and  O_50
REMARK    8  A    between atoms: C_21  and  C_42
REMARK    9  A    between atoms: C_22  and  O_25
REMARK   10  A    between atoms: O_25  and  C_26
REMARK   11  A    between atoms: C_28  and  O_41
REMARK   12  A    between atoms: C_30  and  O_40
REMARK   13  A    between atoms: C_32  and  O_39
REMARK   14  A    between atoms: C_34  and  C_37
REMARK   15  A    between atoms: C_37  and  O_38
REMARK   16  A    between atoms: C_44  and  O_49
REMARK   17  A    between atoms: C_45  and  O_48
REMARK                            x       y       z     vdW  Elec       q    Type
REMARK                         _______ _______ _______ _____ _____    ______ ____
ROOT
ATOM      1  C   UNL     1       6.087  -2.877  23.597  0.00  0.00    +0.131 A 
ATOM      2  C   UNL     1       5.760  -1.919  24.577  0.00  0.00    +0.093 A 
ATOM      3  C   UNL     1       6.609  -0.827  24.811  0.00  0.00    +0.147 A 
ATOM      4  O   UNL     1       6.283   0.095  25.786  0.00  0.00    -0.451 OA
ATOM      5  C   UNL     1       6.938   1.333  25.753  0.00  0.00    +0.181 A 
ATOM      6  C   UNL     1       8.041   1.597  25.019  0.00  0.00    +0.214 A 
ATOM      7  C   UNL     1       8.680   0.382  24.438  0.00  0.00    +0.238 A 
ATOM      8  O   UNL     1       9.897   0.259  24.365  0.00  0.00    -0.283 OA
ATOM      9  C   UNL     1       7.780  -0.705  24.075  0.00  0.00    +0.109 A 
ATOM     10  C   UNL     1       8.092  -1.626  23.077  0.00  0.00    +0.135 A 
ATOM     11  C   UNL     1       7.262  -2.719  22.855  0.00  0.00    +0.092 A 
ENDROOT
BRANCH   5  12
ATOM     12  C   UNL     1       6.392   2.318  26.708  0.00  0.00    +0.025 A 
ATOM     13  C   UNL     1       5.078   2.793  26.506  0.00  0.00    +0.015 A 
ATOM     14  C   UNL     1       4.497   3.711  27.385  0.00  0.00    +0.050 A 
ATOM     15  C   UNL     1       5.229   4.144  28.476  0.00  0.00    +0.158 A 
ATOM     16  C   UNL     1       6.530   3.691  28.689  0.00  0.00    +0.159 A 
ATOM     17  C   UNL     1       7.124   2.781  27.811  0.00  0.00    +0.060 A 
BRANCH  16  18
ATOM     18  O   UNL     1       7.189   4.179  29.786  0.00  0.00    -0.503 OA
ATOM     19  H   UNL     1       6.540   4.612  30.367  0.00  0.00    +0.292 HD
ENDBRANCH  16  18
BRANCH  15  20
ATOM     20  O   UNL     1       4.660   5.029  29.347  0.00  0.00    -0.503 OA
ATOM     21  H   UNL     1       4.312   4.476  30.075  0.00  0.00    +0.292 HD
ENDBRANCH  15  20
ENDBRANCH   5  12
BRANCH  10  22
ATOM     22  O   UNL     1       9.186  -1.441  22.284  0.00  0.00    -0.506 OA
ATOM     23  H   UNL     1       9.896  -2.058  22.524  0.00  0.00    +0.292 HD
ENDBRANCH  10  22
BRANCH   6  24
ATOM     24  O   UNL     1       8.594   2.873  24.878  0.00  0.00    -0.453 OA
BRANCH  24  25
ATOM     25  C   UNL     1       8.529   3.419  23.540  0.00  0.00    +0.340 C 
ATOM     26  O   UNL     1       9.587   4.358  23.297  0.00  0.00    -0.331 OA
ATOM     27  C   UNL     1       9.408   5.717  23.700  0.00  0.00    +0.179 C 
ATOM     28  C   UNL     1       8.048   6.288  23.263  0.00  0.00    +0.177 C 
ATOM     29  C   UNL     1       6.895   5.388  23.721  0.00  0.00    +0.180 C 
ATOM     30  C   UNL     1       7.111   3.961  23.199  0.00  0.00    +0.214 C 
BRANCH  30  31
ATOM     31  O   UNL     1       6.886   3.937  21.781  0.00  0.00    -0.383 OA
ATOM     32  H   UNL     1       6.957   2.997  21.505  0.00  0.00    +0.210 HD
ENDBRANCH  30  31
BRANCH  29  33
ATOM     33  O   UNL     1       6.702   5.440  25.136  0.00  0.00    -0.386 OA
ATOM     34  H   UNL     1       7.371   4.882  25.569  0.00  0.00    +0.210 HD
ENDBRANCH  29  33
BRANCH  28  35
ATOM     35  O   UNL     1       8.034   6.354  21.819  0.00  0.00    -0.386 OA
ATOM     36  H   UNL     1       7.110   6.230  21.531  0.00  0.00    +0.210 HD
ENDBRANCH  28  35
BRANCH  27  37
ATOM     37  C   UNL     1       9.733   5.914  25.184  0.00  0.00    +0.190 C 
BRANCH  37  38
ATOM     38  O   UNL     1       9.117   7.098  25.674  0.00  0.00    -0.392 OA
ATOM     39  H   UNL     1       8.366   6.822  26.228  0.00  0.00    +0.210 HD
ENDBRANCH  37  38
ENDBRANCH  27  37
ENDBRANCH  24  25
ENDBRANCH   6  24
BRANCH   1  40
ATOM     40  O   UNL     1       5.196  -3.915  23.436  0.00  0.00    -0.461 OA
BRANCH  40  44
ATOM     41  C   UNL     1       3.311  -4.174  25.846  0.00  0.00    +0.041 C 
ATOM     42  C   UNL     1       4.026  -5.517  25.742  0.00  0.00    +0.150 C 
ATOM     43  O   UNL     1       5.393  -5.393  25.310  0.00  0.00    -0.334 OA
ATOM     44  C   UNL     1       5.608  -5.217  23.902  0.00  0.00    +0.339 C 
ATOM     45  C   UNL     1       4.927  -6.330  23.081  0.00  0.00    +0.214 C 
ATOM     46  C   UNL     1       3.439  -6.427  23.417  0.00  0.00    +0.180 C 
ATOM     47  C   UNL     1       3.259  -6.583  24.934  0.00  0.00    +0.174 C 
BRANCH  47  48
ATOM     48  O   UNL     1       3.748  -7.884  25.315  0.00  0.00    -0.387 OA
ATOM     49  H   UNL     1       4.712  -7.910  25.171  0.00  0.00    +0.210 HD
ENDBRANCH  47  48
BRANCH  46  50
ATOM     50  O   UNL     1       2.722  -5.304  22.891  0.00  0.00    -0.386 OA
ATOM     51  H   UNL     1       2.903  -4.521  23.442  0.00  0.00    +0.210 HD
ENDBRANCH  46  50
BRANCH  45  52
ATOM     52  O   UNL     1       5.129  -6.136  21.679  0.00  0.00    -0.383 OA
ATOM     53  H   UNL     1       4.245  -6.111  21.264  0.00  0.00    +0.210 HD
ENDBRANCH  45  52
ENDBRANCH  40  44
ENDBRANCH   1  40
TORSDOF 16
ENDMDL
MODEL 4
REMARK VINA RESULT:      -6.6      2.673      4.754
REMARK  Name = 
REMARK  17 active torsions:
REMARK  status: ('A' for Active; 'I' for Inactive)
REMARK    1  A    between atoms: C_1  and  C_2
REMARK    2  A    between atoms: C_4  and  O_53
REMARK    3  A    between atoms: C_6  and  O_52
REMARK    4  A    between atoms: C_8  and  O_51
REMARK    5  A    between atoms: C_10  and  O_13
REMARK    6  A    between atoms: O_13  and  C_14
REMARK    7  A    between atoms: C_16  and  O_50
REMARK    8  A    between atoms: C_21  and  C_42
REMARK    9  A    between atoms: C_22  and  O_25
REMARK   10  A    between atoms: O_25  and  C_26
REMARK   11  A    between atoms: C_28  and  O_41
REMARK   12  A    between atoms: C_30  and  O_40
REMARK   13  A    between atoms: C_32  and  O_39
REMARK   14  A    between atoms: C_34  and  C_37
REMARK   15  A    between atoms: C_37  and  O_38
REMARK   16  A    between atoms: C_44  and  O_49
REMARK   17  A    between atoms: C_45  and  O_48
REMARK                            x       y       z     vdW  Elec       q    Type
REMARK                         _______ _______ _______ _____ _____    ______ ____
ROOT
ATOM      1  C   UNL     1       7.382  -2.345  24.071  0.00  0.00    +0.131 A 
ATOM      2  C   UNL     1       6.829  -1.401  24.958  0.00  0.00    +0.093 A 
ATOM      3  C   UNL     1       7.411  -0.133  25.100  0.00  0.00    +0.147 A 
ATOM      4  O   UNL     1       6.865   0.775  25.986  0.00  0.00    -0.451 OA
ATOM      5  C   UNL     1       7.234   2.119  25.846  0.00  0.00    +0.181 A 
ATOM      6  C   UNL     1       8.271   2.556  25.098  0.00  0.00    +0.214 A 
ATOM      7  C   UNL     1       9.175   1.466  24.632  0.00  0.00    +0.238 A 
ATOM      8  O   UNL     1      10.391   1.609  24.578  0.00  0.00    -0.283 OA
ATOM      9  C   UNL     1       8.545   0.180  24.362  0.00  0.00    +0.109 A 
ATOM     10  C   UNL     1       9.077  -0.732  23.453  0.00  0.00    +0.135 A 
ATOM     11  C   UNL     1       8.513  -1.996  23.324  0.00  0.00    +0.092 A 
ENDROOT
BRANCH   5  12
ATOM     12  C   UNL     1       6.461   3.038  26.705  0.00  0.00    +0.025 A 
ATOM     13  C   UNL     1       5.100   3.258  26.401  0.00  0.00    +0.015 A 
ATOM     14  C   UNL     1       4.309   4.101  27.186  0.00  0.00    +0.050 A 
ATOM     15  C   UNL     1       4.880   4.714  28.288  0.00  0.00    +0.158 A 
ATOM     16  C   UNL     1       6.223   4.513  28.601  0.00  0.00    +0.159 A 
ATOM     17  C   UNL     1       7.026   3.681  27.816  0.00  0.00    +0.060 A 
BRANCH  16  18
ATOM     18  O   UNL     1       6.713   5.168  29.700  0.00  0.00    -0.503 OA
ATOM     19  H   UNL     1       7.064   4.507  30.321  0.00  0.00    +0.292 HD
ENDBRANCH  16  18
BRANCH  15  20
ATOM     20  O   UNL     1       4.108   5.526  29.068  0.00  0.00    -0.503 OA
ATOM     21  H   UNL     1       4.655   5.708  29.859  0.00  0.00    +0.292 HD
ENDBRANCH  15  20
ENDBRANCH   5  12
BRANCH  10  22
ATOM     22  O   UNL     1      10.124  -0.379  22.653  0.00  0.00    -0.506 OA
ATOM     23  H   UNL     1      10.920  -0.206  23.181  0.00  0.00    +0.292 HD
ENDBRANCH  10  22
BRANCH   6  24
ATOM     24  O   UNL     1       8.534   3.905  24.847  0.00  0.00    -0.453 OA
BRANCH  24  25
ATOM     25  C   UNL     1       8.333   4.318  23.475  0.00  0.00    +0.340 C 
ATOM     26  O   UNL     1       9.207   5.396  23.111  0.00  0.00    -0.331 OA
ATOM     27  C   UNL     1       8.813   6.735  23.415  0.00  0.00    +0.179 C 
ATOM     28  C   UNL     1       7.362   7.034  23.000  0.00  0.00    +0.177 C 
ATOM     29  C   UNL     1       6.395   5.996  23.580  0.00  0.00    +0.180 C 
ATOM     30  C   UNL     1       6.833   4.586  23.160  0.00  0.00    +0.214 C 
BRANCH  30  31
ATOM     31  O   UNL     1       6.567   4.406  21.760  0.00  0.00    -0.383 OA
ATOM     32  H   UNL     1       7.212   4.971  21.281  0.00  0.00    +0.210 HD
ENDBRANCH  30  31
BRANCH  29  33
ATOM     33  O   UNL     1       6.244   6.134  24.994  0.00  0.00    -0.386 OA
ATOM     34  H   UNL     1       6.713   6.934  25.287  0.00  0.00    +0.210 HD
ENDBRANCH  29  33
BRANCH  28  35
ATOM     35  O   UNL     1       7.289   6.975  21.557  0.00  0.00    -0.386 OA
ATOM     36  H   UNL     1       8.162   6.686  21.233  0.00  0.00    +0.210 HD
ENDBRANCH  28  35
BRANCH  27  37
ATOM     37  C   UNL     1       9.150   7.108  24.862  0.00  0.00    +0.190 C 
BRANCH  37  38
ATOM     38  O   UNL     1      10.338   6.446  25.281  0.00  0.00    -0.392 OA
ATOM     39  H   UNL     1      10.494   6.697  26.208  0.00  0.00    +0.210 HD
ENDBRANCH  37  38
ENDBRANCH  27  37
ENDBRANCH  24  25
ENDBRANCH   6  24
BRANCH   1  40
ATOM     40  O   UNL     1       6.745  -3.564  23.998  0.00  0.00    -0.461 OA
BRANCH  40  44
ATOM     41  C   UNL     1       7.059  -6.003  22.161  0.00  0.00    +0.041 C 
ATOM     42  C   UNL     1       5.590  -5.604  22.060  0.00  0.00    +0.150 C 
ATOM     43  O   UNL     1       5.391  -4.180  22.122  0.00  0.00    -0.334 OA
ATOM     44  C   UNL     1       5.421  -3.583  23.427  0.00  0.00    +0.339 C 
ATOM     45  C   UNL     1       4.424  -4.266  24.384  0.00  0.00    +0.214 C 
ATOM     46  C   UNL     1       4.669  -5.774  24.448  0.00  0.00    +0.180 C 
ATOM     47  C   UNL     1       4.659  -6.360  23.028  0.00  0.00    +0.174 C 
BRANCH  47  48
ATOM     48  O   UNL     1       3.313  -6.287  22.518  0.00  0.00    -0.387 OA
ATOM     49  H   UNL     1       2.953  -5.401  22.714  0.00  0.00    +0.210 HD
ENDBRANCH  47  48
BRANCH  46  50
ATOM     50  O   UNL     1       5.880  -6.067  25.154  0.00  0.00    -0.386 OA
ATOM     51  H   UNL     1       6.222  -5.248  25.557  0.00  0.00    +0.210 HD
ENDBRANCH  46  50
BRANCH  45  52
ATOM     52  O   UNL     1       4.475  -3.679  25.687  0.00  0.00    -0.383 OA
ATOM     53  H   UNL     1       3.722  -3.060  25.751  0.00  0.00    +0.210 HD
ENDBRANCH  45  52
ENDBRANCH  40  44
ENDBRANCH   1  40
TORSDOF 16
ENDMDL
MODEL 5
REMARK VINA RESULT:      -6.5      2.873      9.984
REMARK  Name = 
REMARK  17 active torsions:
REMARK  status: ('A' for Active; 'I' for Inactive)
REMARK    1  A    between atoms: C_1  and  C_2
REMARK    2  A    between atoms: C_4  and  O_53
REMARK    3  A    between atoms: C_6  and  O_52
REMARK    4  A    between atoms: C_8  and  O_51
REMARK    5  A    between atoms: C_10  and  O_13
REMARK    6  A    between atoms: O_13  and  C_14
REMARK    7  A    between atoms: C_16  and  O_50
REMARK    8  A    between atoms: C_21  and  C_42
REMARK    9  A    between atoms: C_22  and  O_25
REMARK   10  A    between atoms: O_25  and  C_26
REMARK   11  A    between atoms: C_28  and  O_41
REMARK   12  A    between atoms: C_30  and  O_40
REMARK   13  A    between atoms: C_32  and  O_39
REMARK   14  A    between atoms: C_34  and  C_37
REMARK   15  A    between atoms: C_37  and  O_38
REMARK   16  A    between atoms: C_44  and  O_49
REMARK   17  A    between atoms: C_45  and  O_48
REMARK                            x       y       z     vdW  Elec       q    Type
REMARK                         _______ _______ _______ _____ _____    ______ ____
ROOT
ATOM      1  C   UNL     1       6.101   2.880  25.010  0.00  0.00    +0.131 A 
ATOM      2  C   UNL     1       6.547   1.686  24.410  0.00  0.00    +0.093 A 
ATOM      3  C   UNL     1       6.143   0.442  24.919  0.00  0.00    +0.147 A 
ATOM      4  O   UNL     1       6.603  -0.719  24.329  0.00  0.00    -0.451 OA
ATOM      5  C   UNL     1       5.918  -1.907  24.617  0.00  0.00    +0.181 A 
ATOM      6  C   UNL     1       5.024  -2.053  25.620  0.00  0.00    +0.214 A 
ATOM      7  C   UNL     1       5.011  -0.914  26.582  0.00  0.00    +0.238 A 
ATOM      8  O   UNL     1       4.864  -1.083  27.787  0.00  0.00    -0.283 OA
ATOM      9  C   UNL     1       5.306   0.401  26.025  0.00  0.00    +0.109 A 
ATOM     10  C   UNL     1       4.828   1.575  26.602  0.00  0.00    +0.135 A 
ATOM     11  C   UNL     1       5.241   2.809  26.111  0.00  0.00    +0.092 A 
ENDROOT
BRANCH   5  12
ATOM     12  C   UNL     1       6.356  -3.056  23.801  0.00  0.00    +0.025 A 
ATOM     13  C   UNL     1       7.362  -3.902  24.317  0.00  0.00    +0.015 A 
ATOM     14  C   UNL     1       7.807  -5.017  23.602  0.00  0.00    +0.050 A 
ATOM     15  C   UNL     1       7.233  -5.294  22.373  0.00  0.00    +0.158 A 
ATOM     16  C   UNL     1       6.243  -4.467  21.846  0.00  0.00    +0.159 A 
ATOM     17  C   UNL     1       5.798  -3.343  22.547  0.00  0.00    +0.060 A 
BRANCH  16  18
ATOM     18  O   UNL     1       5.738  -4.804  20.617  0.00  0.00    -0.503 OA
ATOM     19  H   UNL     1       5.899  -5.752  20.469  0.00  0.00    +0.292 HD
ENDBRANCH  16  18
BRANCH  15  20
ATOM     20  O   UNL     1       7.653  -6.391  21.677  0.00  0.00    -0.503 OA
ATOM     21  H   UNL     1       8.472  -6.103  21.225  0.00  0.00    +0.292 HD
ENDBRANCH  15  20
ENDBRANCH   5  12
BRANCH  10  22
ATOM     22  O   UNL     1       3.920   1.527  27.618  0.00  0.00    -0.506 OA
ATOM     23  H   UNL     1       3.734   0.608  27.873  0.00  0.00    +0.292 HD
ENDBRANCH  10  22
BRANCH   6  24
ATOM     24  O   UNL     1       4.239  -3.195  25.801  0.00  0.00    -0.453 OA
BRANCH  24  25
ATOM     25  C   UNL     1       4.613  -4.015  26.933  0.00  0.00    +0.340 C 
ATOM     26  O   UNL     1       5.422  -5.132  26.535  0.00  0.00    -0.331 OA
ATOM     27  C   UNL     1       4.776  -6.321  26.076  0.00  0.00    +0.179 C 
ATOM     28  C   UNL     1       3.631  -6.767  27.002  0.00  0.00    +0.177 C 
ATOM     29  C   UNL     1       2.640  -5.624  27.248  0.00  0.00    +0.180 C 
ATOM     30  C   UNL     1       3.384  -4.402  27.805  0.00  0.00    +0.214 C 
BRANCH  30  31
ATOM     31  O   UNL     1       3.785  -4.668  29.158  0.00  0.00    -0.383 OA
ATOM     32  H   UNL     1       4.322  -3.898  29.444  0.00  0.00    +0.210 HD
ENDBRANCH  30  31
BRANCH  29  33
ATOM     33  O   UNL     1       1.867  -5.323  26.084  0.00  0.00    -0.386 OA
ATOM     34  H   UNL     1       2.335  -5.653  25.298  0.00  0.00    +0.210 HD
ENDBRANCH  29  33
BRANCH  28  35
ATOM     35  O   UNL     1       4.207  -7.157  28.270  0.00  0.00    -0.386 OA
ATOM     36  H   UNL     1       3.646  -6.779  28.972  0.00  0.00    +0.210 HD
ENDBRANCH  28  35
BRANCH  27  37
ATOM     37  C   UNL     1       4.395  -6.221  24.596  0.00  0.00    +0.190 C 
BRANCH  37  38
ATOM     38  O   UNL     1       4.477  -7.498  23.975  0.00  0.00    -0.392 OA
ATOM     39  H   UNL     1       5.338  -7.543  23.524  0.00  0.00    +0.210 HD
ENDBRANCH  37  38
ENDBRANCH  27  37
ENDBRANCH  24  25
ENDBRANCH   6  24
BRANCH   1  40
ATOM     40  O   UNL     1       6.549   4.053  24.444  0.00  0.00    -0.461 OA
BRANCH  40  44
ATOM     41  C   UNL     1       5.348   6.877  24.521  0.00  0.00    +0.041 C 
ATOM     42  C   UNL     1       5.491   6.535  23.041  0.00  0.00    +0.150 C 
ATOM     43  O   UNL     1       5.244   5.146  22.760  0.00  0.00    -0.334 OA
ATOM     44  C   UNL     1       6.319   4.235  23.032  0.00  0.00    +0.339 C 
ATOM     45  C   UNL     1       7.618   4.662  22.319  0.00  0.00    +0.214 C 
ATOM     46  C   UNL     1       7.992   6.101  22.677  0.00  0.00    +0.180 C 
ATOM     47  C   UNL     1       6.802   7.031  22.399  0.00  0.00    +0.174 C 
BRANCH  47  48
ATOM     48  O   UNL     1       6.612   7.107  20.973  0.00  0.00    -0.387 OA
ATOM     49  H   UNL     1       5.749   6.710  20.752  0.00  0.00    +0.210 HD
ENDBRANCH  47  48
BRANCH  46  50
ATOM     50  O   UNL     1       8.452   6.187  24.031  0.00  0.00    -0.386 OA
ATOM     51  H   UNL     1       8.466   5.295  24.423  0.00  0.00    +0.210 HD
ENDBRANCH  46  50
BRANCH  45  52
ATOM     52  O   UNL     1       8.688   3.761  22.611  0.00  0.00    -0.383 OA
ATOM     53  H   UNL     1       8.769   3.157  21.848  0.00  0.00    +0.210 HD
ENDBRANCH  45  52
ENDBRANCH  40  44
ENDBRANCH   1  40
TORSDOF 16
ENDMDL
MODEL 6
REMARK VINA RESULT:      -6.5      2.857      9.817
REMARK  Name = 
REMARK  17 active torsions:
REMARK  status: ('A' for Active; 'I' for Inactive)
REMARK    1  A    between atoms: C_1  and  C_2
REMARK    2  A    between atoms: C_4  and  O_53
REMARK    3  A    between atoms: C_6  and  O_52
REMARK    4  A    between atoms: C_8  and  O_51
REMARK    5  A    between atoms: C_10  and  O_13
REMARK    6  A    between atoms: O_13  and  C_14
REMARK    7  A    between atoms: C_16  and  O_50
REMARK    8  A    between atoms: C_21  and  C_42
REMARK    9  A    between atoms: C_22  and  O_25
REMARK   10  A    between atoms: O_25  and  C_26
REMARK   11  A    between atoms: C_28  and  O_41
REMARK   12  A    between atoms: C_30  and  O_40
REMARK   13  A    between atoms: C_32  and  O_39
REMARK   14  A    between atoms: C_34  and  C_37
REMARK   15  A    between atoms: C_37  and  O_38
REMARK   16  A    between atoms: C_44  and  O_49
REMARK   17  A    between atoms: C_45  and  O_48
REMARK                            x       y       z     vdW  Elec       q    Type
REMARK                         _______ _______ _______ _____ _____    ______ ____
ROOT
ATOM      1  C   UNL     1       5.070   2.601  25.076  0.00  0.00    +0.131 A 
ATOM      2  C   UNL     1       5.590   1.446  24.459  0.00  0.00    +0.093 A 
ATOM      3  C   UNL     1       5.497   0.199  25.095  0.00  0.00    +0.147 A 
ATOM      4  O   UNL     1       6.026  -0.921  24.485  0.00  0.00    -0.451 OA
ATOM      5  C   UNL     1       5.610  -2.173  24.957  0.00  0.00    +0.181 A 
ATOM      6  C   UNL     1       4.951  -2.375  26.119  0.00  0.00    +0.214 A 
ATOM      7  C   UNL     1       4.927  -1.180  27.009  0.00  0.00    +0.238 A 
ATOM      8  O   UNL     1       5.034  -1.274  28.227  0.00  0.00    -0.283 OA
ATOM      9  C   UNL     1       4.895   0.117  26.344  0.00  0.00    +0.109 A 
ATOM     10  C   UNL     1       4.343   1.246  26.944  0.00  0.00    +0.135 A 
ATOM     11  C   UNL     1       4.450   2.486  26.324  0.00  0.00    +0.092 A 
ENDROOT
BRANCH   5  12
ATOM     12  C   UNL     1       6.075  -3.303  24.127  0.00  0.00    +0.025 A 
ATOM     13  C   UNL     1       7.447  -3.636  24.153  0.00  0.00    +0.015 A 
ATOM     14  C   UNL     1       7.947  -4.706  23.406  0.00  0.00    +0.050 A 
ATOM     15  C   UNL     1       7.068  -5.452  22.640  0.00  0.00    +0.158 A 
ATOM     16  C   UNL     1       5.712  -5.134  22.597  0.00  0.00    +0.159 A 
ATOM     17  C   UNL     1       5.203  -4.060  23.333  0.00  0.00    +0.060 A 
BRANCH  16  18
ATOM     18  O   UNL     1       4.913  -5.916  21.804  0.00  0.00    -0.503 OA
ATOM     19  H   UNL     1       5.145  -6.847  21.957  0.00  0.00    +0.292 HD
ENDBRANCH  16  18
BRANCH  15  20
ATOM     20  O   UNL     1       7.549  -6.508  21.920  0.00  0.00    -0.503 OA
ATOM     21  H   UNL     1       7.780  -7.183  22.590  0.00  0.00    +0.292 HD
ENDBRANCH  15  20
ENDBRANCH   5  12
BRANCH  10  22
ATOM     22  O   UNL     1       3.658   1.139  28.118  0.00  0.00    -0.506 OA
ATOM     23  H   UNL     1       3.295   1.999  28.387  0.00  0.00    +0.292 HD
ENDBRANCH  10  22
BRANCH   6  24
ATOM     24  O   UNL     1       4.412  -3.606  26.503  0.00  0.00    -0.453 OA
BRANCH  24  25
ATOM     25  C   UNL     1       5.307  -4.448  27.267  0.00  0.00    +0.340 C 
ATOM     26  O   UNL     1       5.751  -5.580  26.504  0.00  0.00    -0.331 OA
ATOM     27  C   UNL     1       4.928  -6.748  26.461  0.00  0.00    +0.179 C 
ATOM     28  C   UNL     1       4.436  -7.176  27.854  0.00  0.00    +0.177 C 
ATOM     29  C   UNL     1       3.758  -6.012  28.585  0.00  0.00    +0.180 C 
ATOM     30  C   UNL     1       4.717  -4.816  28.659  0.00  0.00    +0.214 C 
BRANCH  30  31
ATOM     31  O   UNL     1       5.766  -5.108  29.594  0.00  0.00    -0.383 OA
ATOM     32  H   UNL     1       6.354  -5.761  29.156  0.00  0.00    +0.210 HD
ENDBRANCH  30  31
BRANCH  29  33
ATOM     33  O   UNL     1       2.494  -5.678  28.007  0.00  0.00    -0.386 OA
ATOM     34  H   UNL     1       2.370  -4.714  28.050  0.00  0.00    +0.210 HD
ENDBRANCH  29  33
BRANCH  28  35
ATOM     35  O   UNL     1       5.585  -7.595  28.625  0.00  0.00    -0.386 OA
ATOM     36  H   UNL     1       5.831  -8.488  28.319  0.00  0.00    +0.210 HD
ENDBRANCH  28  35
BRANCH  27  37
ATOM     37  C   UNL     1       3.823  -6.621  25.407  0.00  0.00    +0.190 C 
BRANCH  37  38
ATOM     38  O   UNL     1       4.041  -7.543  24.347  0.00  0.00    -0.392 OA
ATOM     39  H   UNL     1       4.416  -7.041  23.602  0.00  0.00    +0.210 HD
ENDBRANCH  37  38
ENDBRANCH  27  37
ENDBRANCH  24  25
ENDBRANCH   6  24
BRANCH   1  40
ATOM     40  O   UNL     1       5.208   3.781  24.378  0.00  0.00    -0.461 OA
BRANCH  40  44
ATOM     41  C   UNL     1       6.867   3.118  21.882  0.00  0.00    +0.041 C 
ATOM     42  C   UNL     1       7.658   4.190  22.624  0.00  0.00    +0.150 C 
ATOM     43  O   UNL     1       7.562   4.069  24.054  0.00  0.00    -0.334 OA
ATOM     44  C   UNL     1       6.370   4.585  24.665  0.00  0.00    +0.339 C 
ATOM     45  C   UNL     1       6.126   6.056  24.274  0.00  0.00    +0.214 C 
ATOM     46  C   UNL     1       6.099   6.223  22.754  0.00  0.00    +0.180 C 
ATOM     47  C   UNL     1       7.378   5.629  22.146  0.00  0.00    +0.174 C 
BRANCH  47  48
ATOM     48  O   UNL     1       8.490   6.462  22.529  0.00  0.00    -0.387 OA
ATOM     49  H   UNL     1       8.687   7.076  21.798  0.00  0.00    +0.210 HD
ENDBRANCH  47  48
BRANCH  46  50
ATOM     50  O   UNL     1       4.909   5.652  22.197  0.00  0.00    -0.386 OA
ATOM     51  H   UNL     1       5.017   4.685  22.134  0.00  0.00    +0.210 HD
ENDBRANCH  46  50
BRANCH  45  52
ATOM     52  O   UNL     1       4.926   6.556  24.870  0.00  0.00    -0.383 OA
ATOM     53  H   UNL     1       4.181   6.235  24.324  0.00  0.00    +0.210 HD
ENDBRANCH  45  52
ENDBRANCH  40  44
ENDBRANCH   1  40
TORSDOF 16
ENDMDL
MODEL 7
REMARK VINA RESULT:      -6.5      2.624      9.703
REMARK  Name = 
REMARK  17 active torsions:
REMARK  status: ('A' for Active; 'I' for Inactive)
REMARK    1  A    between atoms: C_1  and  C_2
REMARK    2  A    between atoms: C_4  and  O_53
REMARK    3  A    between atoms: C_6  and  O_52
REMARK    4  A    between atoms: C_8  and  O_51
REMARK    5  A    between atoms: C_10  and  O_13
REMARK    6  A    between atoms: O_13  and  C_14
REMARK    7  A    between atoms: C_16  and  O_50
REMARK    8  A    between atoms: C_21  and  C_42
REMARK    9  A    between atoms: C_22  and  O_25
REMARK   10  A    between atoms: O_25  and  C_26
REMARK   11  A    between atoms: C_28  and  O_41
REMARK   12  A    between atoms: C_30  and  O_40
REMARK   13  A    between atoms: C_32  and  O_39
REMARK   14  A    between atoms: C_34  and  C_37
REMARK   15  A    between atoms: C_37  and  O_38
REMARK   16  A    between atoms: C_44  and  O_49
REMARK   17  A    between atoms: C_45  and  O_48
REMARK                            x       y       z     vdW  Elec       q    Type
REMARK                         _______ _______ _______ _____ _____    ______ ____
ROOT
ATOM      1  C   UNL     1       5.790   3.046  25.710  0.00  0.00    +0.131 A 
ATOM      2  C   UNL     1       6.594   1.891  25.780  0.00  0.00    +0.093 A 
ATOM      3  C   UNL     1       6.026   0.649  26.102  0.00  0.00    +0.147 A 
ATOM      4  O   UNL     1       6.830  -0.470  26.182  0.00  0.00    -0.451 OA
ATOM      5  C   UNL     1       6.203  -1.723  26.147  0.00  0.00    +0.181 A 
ATOM      6  C   UNL     1       4.877  -1.921  26.310  0.00  0.00    +0.214 A 
ATOM      7  C   UNL     1       4.147  -0.718  26.801  0.00  0.00    +0.238 A 
ATOM      8  O   UNL     1       3.230  -0.798  27.611  0.00  0.00    -0.283 OA
ATOM      9  C   UNL     1       4.664   0.572  26.360  0.00  0.00    +0.109 A 
ATOM     10  C   UNL     1       3.854   1.700  26.255  0.00  0.00    +0.135 A 
ATOM     11  C   UNL     1       4.417   2.935  25.954  0.00  0.00    +0.092 A 
ENDROOT
BRANCH   5  12
ATOM     12  C   UNL     1       7.146  -2.854  26.045  0.00  0.00    +0.025 A 
ATOM     13  C   UNL     1       8.164  -2.795  25.068  0.00  0.00    +0.015 A 
ATOM     14  C   UNL     1       9.098  -3.825  24.933  0.00  0.00    +0.050 A 
ATOM     15  C   UNL     1       9.023  -4.910  25.789  0.00  0.00    +0.158 A 
ATOM     16  C   UNL     1       8.022  -4.988  26.756  0.00  0.00    +0.159 A 
ATOM     17  C   UNL     1       7.075  -3.969  26.892  0.00  0.00    +0.060 A 
BRANCH  16  18
ATOM     18  O   UNL     1       8.010  -6.103  27.553  0.00  0.00    -0.503 OA
ATOM     19  H   UNL     1       7.305  -6.695  27.241  0.00  0.00    +0.292 HD
ENDBRANCH  16  18
BRANCH  15  20
ATOM     20  O   UNL     1       9.944  -5.912  25.672  0.00  0.00    -0.503 OA
ATOM     21  H   UNL     1      10.697  -5.625  26.226  0.00  0.00    +0.292 HD
ENDBRANCH  15  20
ENDBRANCH   5  12
BRANCH  10  22
ATOM     22  O   UNL     1       2.502   1.597  26.403  0.00  0.00    -0.506 OA
ATOM     23  H   UNL     1       2.171   2.254  27.036  0.00  0.00    +0.292 HD
ENDBRANCH  10  22
BRANCH   6  24
ATOM     24  O   UNL     1       4.247  -3.154  26.124  0.00  0.00    -0.453 OA
BRANCH  24  25
ATOM     25  C   UNL     1       3.743  -3.382  24.787  0.00  0.00    +0.340 C 
ATOM     26  O   UNL     1       2.360  -3.767  24.798  0.00  0.00    -0.331 OA
ATOM     27  C   UNL     1       2.028  -5.142  24.998  0.00  0.00    +0.179 C 
ATOM     28  C   UNL     1       2.859  -6.085  24.110  0.00  0.00    +0.177 C 
ATOM     29  C   UNL     1       4.360  -5.819  24.270  0.00  0.00    +0.180 C 
ATOM     30  C   UNL     1       4.659  -4.343  23.974  0.00  0.00    +0.214 C 
BRANCH  30  31
ATOM     31  O   UNL     1       4.522  -4.105  22.565  0.00  0.00    -0.383 OA
ATOM     32  H   UNL     1       4.088  -3.228  22.473  0.00  0.00    +0.210 HD
ENDBRANCH  30  31
BRANCH  29  33
ATOM     33  O   UNL     1       4.848  -6.242  25.544  0.00  0.00    -0.386 OA
ATOM     34  H   UNL     1       5.821  -6.231  25.531  0.00  0.00    +0.210 HD
ENDBRANCH  29  33
BRANCH  28  35
ATOM     35  O   UNL     1       2.492  -5.841  22.733  0.00  0.00    -0.386 OA
ATOM     36  H   UNL     1       2.670  -4.900  22.547  0.00  0.00    +0.210 HD
ENDBRANCH  28  35
BRANCH  27  37
ATOM     37  C   UNL     1       2.021  -5.510  26.485  0.00  0.00    +0.190 C 
BRANCH  37  38
ATOM     38  O   UNL     1       2.131  -6.919  26.647  0.00  0.00    -0.392 OA
ATOM     39  H   UNL     1       2.793  -7.230  26.005  0.00  0.00    +0.210 HD
ENDBRANCH  37  38
ENDBRANCH  27  37
ENDBRANCH  24  25
ENDBRANCH   6  24
BRANCH   1  40
ATOM     40  O   UNL     1       6.433   4.221  25.388  0.00  0.00    -0.461 OA
BRANCH  40  44
ATOM     41  C   UNL     1       6.240   5.203  22.486  0.00  0.00    +0.041 C 
ATOM     42  C   UNL     1       7.731   5.043  22.763  0.00  0.00    +0.150 C 
ATOM     43  O   UNL     1       8.025   3.928  23.624  0.00  0.00    -0.334 OA
ATOM     44  C   UNL     1       7.828   4.133  25.031  0.00  0.00    +0.339 C 
ATOM     45  C   UNL     1       8.600   5.367  25.537  0.00  0.00    +0.214 C 
ATOM     46  C   UNL     1       8.234   6.612  24.729  0.00  0.00    +0.180 C 
ATOM     47  C   UNL     1       8.431   6.335  23.232  0.00  0.00    +0.174 C 
BRANCH  47  48
ATOM     48  O   UNL     1       9.844   6.206  22.978  0.00  0.00    -0.387 OA
ATOM     49  H   UNL     1      10.272   5.840  23.775  0.00  0.00    +0.210 HD
ENDBRANCH  47  48
BRANCH  46  50
ATOM     50  O   UNL     1       6.904   7.049  25.036  0.00  0.00    -0.386 OA
ATOM     51  H   UNL     1       6.501   6.429  25.671  0.00  0.00    +0.210 HD
ENDBRANCH  46  50
BRANCH  45  52
ATOM     52  O   UNL     1       8.381   5.575  26.934  0.00  0.00    -0.383 OA
ATOM     53  H   UNL     1       9.253   5.764  27.334  0.00  0.00    +0.210 HD
ENDBRANCH  45  52
ENDBRANCH  40  44
ENDBRANCH   1  40
TORSDOF 16
ENDMDL
MODEL 8
REMARK VINA RESULT:      -6.3      2.648      9.854
REMARK  Name = 
REMARK  17 active torsions:
REMARK  status: ('A' for Active; 'I' for Inactive)
REMARK    1  A    between atoms: C_1  and  C_2
REMARK    2  A    between atoms: C_4  and  O_53
REMARK    3  A    between atoms: C_6  and  O_52
REMARK    4  A    between atoms: C_8  and  O_51
REMARK    5  A    between atoms: C_10  and  O_13
REMARK    6  A    between atoms: O_13  and  C_14
REMARK    7  A    between atoms: C_16  and  O_50
REMARK    8  A    between atoms: C_21  and  C_42
REMARK    9  A    between atoms: C_22  and  O_25
REMARK   10  A    between atoms: O_25  and  C_26
REMARK   11  A    between atoms: C_28  and  O_41
REMARK   12  A    between atoms: C_30  and  O_40
REMARK   13  A    between atoms: C_32  and  O_39
REMARK   14  A    between atoms: C_34  and  C_37
REMARK   15  A    between atoms: C_37  and  O_38
REMARK   16  A    between atoms: C_44  and  O_49
REMARK   17  A    between atoms: C_45  and  O_48
REMARK                            x       y       z     vdW  Elec       q    Type
REMARK                         _______ _______ _______ _____ _____    ______ ____
ROOT
ATOM      1  C   UNL     1       5.840   2.985  25.767  0.00  0.00    +0.131 A 
ATOM      2  C   UNL     1       6.645   1.831  25.682  0.00  0.00    +0.093 A 
ATOM      3  C   UNL     1       6.096   0.564  25.929  0.00  0.00    +0.147 A 
ATOM      4  O   UNL     1       6.902  -0.556  25.857  0.00  0.00    -0.451 OA
ATOM      5  C   UNL     1       6.271  -1.802  25.752  0.00  0.00    +0.181 A 
ATOM      6  C   UNL     1       4.957  -2.019  25.983  0.00  0.00    +0.214 A 
ATOM      7  C   UNL     1       4.263  -0.867  26.625  0.00  0.00    +0.238 A 
ATOM      8  O   UNL     1       3.401  -1.022  27.482  0.00  0.00    -0.283 OA
ATOM      9  C   UNL     1       4.753   0.459  26.267  0.00  0.00    +0.109 A 
ATOM     10  C   UNL     1       3.941   1.589  26.316  0.00  0.00    +0.135 A 
ATOM     11  C   UNL     1       4.486   2.848  26.089  0.00  0.00    +0.092 A 
ENDROOT
BRANCH   5  12
ATOM     12  C   UNL     1       7.203  -2.917  25.490  0.00  0.00    +0.025 A 
ATOM     13  C   UNL     1       7.254  -3.457  24.186  0.00  0.00    +0.015 A 
ATOM     14  C   UNL     1       8.127  -4.500  23.868  0.00  0.00    +0.050 A 
ATOM     15  C   UNL     1       8.962  -4.995  24.855  0.00  0.00    +0.158 A 
ATOM     16  C   UNL     1       8.922  -4.477  26.149  0.00  0.00    +0.159 A 
ATOM     17  C   UNL     1       8.044  -3.442  26.480  0.00  0.00    +0.060 A 
BRANCH  16  18
ATOM     18  O   UNL     1       9.772  -5.033  27.069  0.00  0.00    -0.503 OA
ATOM     19  H   UNL     1      10.287  -4.318  27.481  0.00  0.00    +0.292 HD
ENDBRANCH  16  18
BRANCH  15  20
ATOM     20  O   UNL     1       9.829  -6.003  24.546  0.00  0.00    -0.503 OA
ATOM     21  H   UNL     1      10.626  -5.551  24.201  0.00  0.00    +0.292 HD
ENDBRANCH  15  20
ENDBRANCH   5  12
BRANCH  10  22
ATOM     22  O   UNL     1       2.601   1.468  26.540  0.00  0.00    -0.506 OA
ATOM     23  H   UNL     1       2.336   1.966  27.331  0.00  0.00    +0.292 HD
ENDBRANCH  10  22
BRANCH   6  24
ATOM     24  O   UNL     1       4.314  -3.233  25.729  0.00  0.00    -0.453 OA
BRANCH  24  25
ATOM     25  C   UNL     1       4.142  -4.082  26.887  0.00  0.00    +0.340 C 
ATOM     26  O   UNL     1       5.037  -5.204  26.861  0.00  0.00    -0.331 OA
ATOM     27  C   UNL     1       4.657  -6.373  26.133  0.00  0.00    +0.179 C 
ATOM     28  C   UNL     1       3.218  -6.819  26.441  0.00  0.00    +0.177 C 
ATOM     29  C   UNL     1       2.226  -5.666  26.250  0.00  0.00    +0.180 C 
ATOM     30  C   UNL     1       2.651  -4.469  27.111  0.00  0.00    +0.214 C 
BRANCH  30  31
ATOM     31  O   UNL     1       2.407  -4.769  28.494  0.00  0.00    -0.383 OA
ATOM     32  H   UNL     1       3.066  -5.451  28.749  0.00  0.00    +0.210 HD
ENDBRANCH  30  31
BRANCH  29  33
ATOM     33  O   UNL     1       2.053  -5.328  24.872  0.00  0.00    -0.386 OA
ATOM     34  H   UNL     1       1.130  -5.497  24.617  0.00  0.00    +0.210 HD
ENDBRANCH  29  33
BRANCH  28  35
ATOM     35  O   UNL     1       3.168  -7.245  27.822  0.00  0.00    -0.386 OA
ATOM     36  H   UNL     1       3.849  -7.933  27.939  0.00  0.00    +0.210 HD
ENDBRANCH  28  35
BRANCH  27  37
ATOM     37  C   UNL     1       4.975  -6.235  24.640  0.00  0.00    +0.190 C 
BRANCH  37  38
ATOM     38  O   UNL     1       4.375  -7.295  23.906  0.00  0.00    -0.392 OA
ATOM     39  H   UNL     1       4.394  -8.085  24.475  0.00  0.00    +0.210 HD
ENDBRANCH  37  38
ENDBRANCH  27  37
ENDBRANCH  24  25
ENDBRANCH   6  24
BRANCH   1  40
ATOM     40  O   UNL     1       6.464   4.186  25.510  0.00  0.00    -0.461 OA
BRANCH  40  44
ATOM     41  C   UNL     1       6.148   5.062  22.585  0.00  0.00    +0.041 C 
ATOM     42  C   UNL     1       7.652   4.967  22.822  0.00  0.00    +0.150 C 
ATOM     43  O   UNL     1       8.014   3.893  23.709  0.00  0.00    -0.334 OA
ATOM     44  C   UNL     1       7.850   4.138  25.114  0.00  0.00    +0.339 C 
ATOM     45  C   UNL     1       8.588   5.417  25.556  0.00  0.00    +0.214 C 
ATOM     46  C   UNL     1       8.152   6.619  24.719  0.00  0.00    +0.180 C 
ATOM     47  C   UNL     1       8.315   6.299  23.226  0.00  0.00    +0.174 C 
BRANCH  47  48
ATOM     48  O   UNL     1       9.724   6.214  22.934  0.00  0.00    -0.387 OA
ATOM     49  H   UNL     1      10.178   5.815  23.700  0.00  0.00    +0.210 HD
ENDBRANCH  47  48
BRANCH  46  50
ATOM     50  O   UNL     1       6.816   7.016  25.052  0.00  0.00    -0.386 OA
ATOM     51  H   UNL     1       6.798   7.977  25.216  0.00  0.00    +0.210 HD
ENDBRANCH  46  50
BRANCH  45  52
ATOM     52  O   UNL     1       8.403   5.664  26.952  0.00  0.00    -0.383 OA
ATOM     53  H   UNL     1       7.447   5.809  27.091  0.00  0.00    +0.210 HD
ENDBRANCH  45  52
ENDBRANCH  40  44
ENDBRANCH   1  40
TORSDOF 16
ENDMDL
MODEL 9
REMARK VINA RESULT:      -6.3      3.090      8.709
REMARK  Name = 
REMARK  17 active torsions:
REMARK  status: ('A' for Active; 'I' for Inactive)
REMARK    1  A    between atoms: C_1  and  C_2
REMARK    2  A    between atoms: C_4  and  O_53
REMARK    3  A    between atoms: C_6  and  O_52
REMARK    4  A    between atoms: C_8  and  O_51
REMARK    5  A    between atoms: C_10  and  O_13
REMARK    6  A    between atoms: O_13  and  C_14
REMARK    7  A    between atoms: C_16  and  O_50
REMARK    8  A    between atoms: C_21  and  C_42
REMARK    9  A    between atoms: C_22  and  O_25
REMARK   10  A    between atoms: O_25  and  C_26
REMARK   11  A    between atoms: C_28  and  O_41
REMARK   12  A    between atoms: C_30  and  O_40
REMARK   13  A    between atoms: C_32  and  O_39
REMARK   14  A    between atoms: C_34  and  C_37
REMARK   15  A    between atoms: C_37  and  O_38
REMARK   16  A    between atoms: C_44  and  O_49
REMARK   17  A    between atoms: C_45  and  O_48
REMARK                            x       y       z     vdW  Elec       q    Type
REMARK                         _______ _______ _______ _____ _____    ______ ____
ROOT
ATOM      1  C   UNL     1       7.598  -0.816  23.056  0.00  0.00    +0.131 A 
ATOM      2  C   UNL     1       6.534  -0.690  23.971  0.00  0.00    +0.093 A 
ATOM      3  C   UNL     1       5.801  -1.819  24.366  0.00  0.00    +0.147 A 
ATOM      4  O   UNL     1       4.750  -1.677  25.251  0.00  0.00    -0.451 OA
ATOM      5  C   UNL     1       4.282  -2.831  25.891  0.00  0.00    +0.181 A 
ATOM      6  C   UNL     1       4.589  -4.093  25.519  0.00  0.00    +0.214 A 
ATOM      7  C   UNL     1       5.264  -4.179  24.193  0.00  0.00    +0.238 A 
ATOM      8  O   UNL     1       5.028  -5.084  23.400  0.00  0.00    -0.283 OA
ATOM      9  C   UNL     1       6.129  -3.061  23.838  0.00  0.00    +0.109 A 
ATOM     10  C   UNL     1       7.204  -3.202  22.964  0.00  0.00    +0.135 A 
ATOM     11  C   UNL     1       7.921  -2.082  22.557  0.00  0.00    +0.092 A 
ENDROOT
BRANCH   5  12
ATOM     12  C   UNL     1       3.293  -2.559  26.954  0.00  0.00    +0.025 A 
ATOM     13  C   UNL     1       2.133  -3.363  27.014  0.00  0.00    +0.015 A 
ATOM     14  C   UNL     1       1.169  -3.168  28.007  0.00  0.00    +0.050 A 
ATOM     15  C   UNL     1       1.374  -2.177  28.951  0.00  0.00    +0.158 A 
ATOM     16  C   UNL     1       2.511  -1.371  28.904  0.00  0.00    +0.159 A 
ATOM     17  C   UNL     1       3.476  -1.549  27.909  0.00  0.00    +0.060 A 
BRANCH  16  18
ATOM     18  O   UNL     1       2.630  -0.404  29.867  0.00  0.00    -0.503 OA
ATOM     19  H   UNL     1       2.644   0.464  29.430  0.00  0.00    +0.292 HD
ENDBRANCH  16  18
BRANCH  15  20
ATOM     20  O   UNL     1       0.443  -1.994  29.932  0.00  0.00    -0.503 OA
ATOM     21  H   UNL     1      -0.362  -2.441  29.601  0.00  0.00    +0.292 HD
ENDBRANCH  15  20
ENDBRANCH   5  12
BRANCH  10  22
ATOM     22  O   UNL     1       7.589  -4.437  22.535  0.00  0.00    -0.506 OA
ATOM     23  H   UNL     1       8.163  -4.867  23.190  0.00  0.00    +0.292 HD
ENDBRANCH  10  22
BRANCH   6  24
ATOM     24  O   UNL     1       4.238  -5.228  26.255  0.00  0.00    -0.453 OA
BRANCH  24  25
ATOM     25  C   UNL     1       5.354  -6.049  26.674  0.00  0.00    +0.340 C 
ATOM     26  O   UNL     1       4.914  -7.266  27.295  0.00  0.00    -0.331 OA
ATOM     27  C   UNL     1       4.593  -7.252  28.687  0.00  0.00    +0.179 C 
ATOM     28  C   UNL     1       5.670  -6.555  29.536  0.00  0.00    +0.177 C 
ATOM     29  C   UNL     1       5.980  -5.154  28.996  0.00  0.00    +0.180 C 
ATOM     30  C   UNL     1       6.385  -5.245  27.518  0.00  0.00    +0.214 C 
BRANCH  30  31
ATOM     31  O   UNL     1       7.690  -5.835  27.420  0.00  0.00    -0.383 OA
ATOM     32  H   UNL     1       7.571  -6.698  26.967  0.00  0.00    +0.210 HD
ENDBRANCH  30  31
BRANCH  29  33
ATOM     33  O   UNL     1       4.906  -4.240  29.224  0.00  0.00    -0.386 OA
ATOM     34  H   UNL     1       5.108  -3.701  30.008  0.00  0.00    +0.210 HD
ENDBRANCH  29  33
BRANCH  28  35
ATOM     35  O   UNL     1       6.876  -7.350  29.470  0.00  0.00    -0.386 OA
ATOM     36  H   UNL     1       7.628  -6.753  29.638  0.00  0.00    +0.210 HD
ENDBRANCH  28  35
BRANCH  27  37
ATOM     37  C   UNL     1       3.166  -6.751  28.933  0.00  0.00    +0.190 C 
BRANCH  37  38
ATOM     38  O   UNL     1       2.342  -7.029  27.807  0.00  0.00    -0.392 OA
ATOM     39  H   UNL     1       1.658  -7.655  28.101  0.00  0.00    +0.210 HD
ENDBRANCH  37  38
ENDBRANCH  27  37
ENDBRANCH  24  25
ENDBRANCH   6  24
BRANCH   1  40
ATOM     40  O   UNL     1       8.260   0.346  22.725  0.00  0.00    -0.461 OA
BRANCH  40  44
ATOM     41  C   UNL     1      10.960   0.689  24.146  0.00  0.00    +0.041 C 
ATOM     42  C   UNL     1      10.134   1.909  24.541  0.00  0.00    +0.150 C 
ATOM     43  O   UNL     1       8.735   1.611  24.702  0.00  0.00    -0.334 OA
ATOM     44  C   UNL     1       7.955   1.524  23.500  0.00  0.00    +0.339 C 
ATOM     45  C   UNL     1       8.096   2.795  22.640  0.00  0.00    +0.214 C 
ATOM     46  C   UNL     1       9.565   3.093  22.338  0.00  0.00    +0.180 C 
ATOM     47  C   UNL     1      10.362   3.145  23.649  0.00  0.00    +0.174 C 
BRANCH  47  48
ATOM     48  O   UNL     1       9.953   4.318  24.381  0.00  0.00    -0.387 OA
ATOM     49  H   UNL     1      10.338   5.104  23.951  0.00  0.00    +0.210 HD
ENDBRANCH  47  48
BRANCH  46  50
ATOM     50  O   UNL     1      10.099   2.144  21.408  0.00  0.00    -0.386 OA
ATOM     51  H   UNL     1      10.596   2.617  20.716  0.00  0.00    +0.210 HD
ENDBRANCH  46  50
BRANCH  45  52
ATOM     52  O   UNL     1       7.332   2.691  21.436  0.00  0.00    -0.383 OA
ATOM     53  H   UNL     1       6.520   3.219  21.567  0.00  0.00    +0.210 HD
ENDBRANCH  45  52
ENDBRANCH  40  44
ENDBRANCH   1  40
TORSDOF 16
ENDMDL
