MODEL 1
REMARK VINA RESULT:      -7.1      0.000      0.000
REMARK  Name = 
REMARK  23 active torsions:
REMARK  status: ('A' for Active; 'I' for Inactive)
REMARK    1  A    between atoms: C_1  and  C_2
REMARK    2  A    between atoms: C_3  and  O_62
REMARK    3  A    between atoms: C_5  and  O_61
REMARK    4  A    between atoms: C_6  and  O_60
REMARK    5  A    between atoms: C_8  and  O_11
REMARK    6  A    between atoms: O_11  and  C_12
REMARK    7  A    between atoms: C_13  and  O_38
REMARK    8  A    between atoms: C_16  and  C_22
REMARK    9  A    between atoms: C_17  and  O_21
REMARK   10  A    between atoms: C_19  and  O_20
REMARK   11  A    between atoms: C_22  and  O_23
REMARK   12  A    between atoms: O_23  and  C_24
REMARK   13  A    between atoms: C_26  and  O_37
REMARK   14  A    between atoms: C_27  and  O_36
REMARK   15  A    between atoms: C_29  and  O_35
REMARK   16  A    between atoms: C_31  and  C_33
REMARK   17  A    between atoms: C_33  and  O_34
REMARK   18  A    between atoms: O_38  and  C_39
REMARK   19  A    between atoms: C_40  and  C_52
REMARK   20  A    between atoms: C_44  and  O_51
REMARK   21  A    between atoms: C_46  and  O_50
REMARK   22  A    between atoms: C_54  and  O_59
REMARK   23  A    between atoms: C_55  and  O_58
REMARK                            x       y       z     vdW  Elec       q    Type
REMARK                         _______ _______ _______ _____ _____    ______ ____
ROOT
ATOM      1  C   UNL     1       4.804  -0.570  27.523  0.00  0.00    +0.221 C 
ATOM      2  C   UNL     1       3.607  -1.542  27.502  0.00  0.00    +0.180 C 
ATOM      3  C   UNL     1       4.064  -3.000  27.599  0.00  0.00    +0.177 C 
ATOM      4  C   UNL     1       5.159  -3.296  26.574  0.00  0.00    +0.179 C 
ATOM      5  O   UNL     1       6.276  -2.416  26.747  0.00  0.00    -0.331 OA
ATOM      6  C   UNL     1       5.983  -1.028  26.611  0.00  0.00    +0.340 C 
ENDROOT
BRANCH   3   7
ATOM      7  O   UNL     1       4.569  -3.296  28.907  0.00  0.00    -0.386 OA
ATOM      8  H   UNL     1       5.489  -2.967  28.953  0.00  0.00    +0.210 HD
ENDBRANCH   3   7
BRANCH   2   9
ATOM      9  O   UNL     1       2.781  -1.381  26.340  0.00  0.00    -0.386 OA
ATOM     10  H   UNL     1       2.609  -0.439  26.176  0.00  0.00    +0.210 HD
ENDBRANCH   2   9
BRANCH   6  11
ATOM     11  O   UNL     1       5.834  -0.558  25.260  0.00  0.00    -0.453 OA
BRANCH  11  12
ATOM     12  C   UNL     1       6.907   0.180  24.731  0.00  0.00    +0.214 A 
ATOM     13  C   UNL     1       7.024   1.671  24.944  0.00  0.00    +0.238 A 
ATOM     14  O   UNL     1       6.095   2.326  25.406  0.00  0.00    -0.283 OA
ATOM     15  C   UNL     1       8.246   2.344  24.468  0.00  0.00    +0.109 A 
ATOM     16  C   UNL     1       9.171   1.579  23.770  0.00  0.00    +0.147 A 
ATOM     17  C   UNL     1      10.349   2.151  23.277  0.00  0.00    +0.092 A 
ATOM     18  C   UNL     1      10.580   3.515  23.461  0.00  0.00    +0.124 A 
ATOM     19  C   UNL     1       9.654   4.297  24.136  0.00  0.00    +0.091 A 
ATOM     20  O   UNL     1       8.978   0.259  23.482  0.00  0.00    -0.451 OA
ATOM     21  C   UNL     1       8.490   3.717  24.637  0.00  0.00    +0.135 A 
ATOM     22  C   UNL     1       7.846  -0.400  23.945  0.00  0.00    +0.181 A 
BRANCH  22  23
ATOM     23  C   UNL     1       7.808  -1.808  23.435  0.00  0.00    +0.025 A 
ATOM     24  C   UNL     1       6.954  -2.145  22.358  0.00  0.00    +0.015 A 
ATOM     25  C   UNL     1       6.760  -3.471  21.955  0.00  0.00    +0.050 A 
ATOM     26  C   UNL     1       7.405  -4.482  22.642  0.00  0.00    +0.158 A 
ATOM     27  C   UNL     1       8.254  -4.181  23.699  0.00  0.00    +0.159 A 
ATOM     28  C   UNL     1       8.469  -2.860  24.092  0.00  0.00    +0.060 A 
BRANCH  27  29
ATOM     29  O   UNL     1       8.821  -5.230  24.372  0.00  0.00    -0.503 OA
ATOM     30  H   UNL     1       9.148  -4.901  25.227  0.00  0.00    +0.292 HD
ENDBRANCH  27  29
BRANCH  26  31
ATOM     31  O   UNL     1       7.157  -5.782  22.310  0.00  0.00    -0.503 OA
ATOM     32  H   UNL     1       8.002  -6.245  22.482  0.00  0.00    +0.292 HD
ENDBRANCH  26  31
ENDBRANCH  22  23
BRANCH  21  33
ATOM     33  O   UNL     1       7.590   4.517  25.282  0.00  0.00    -0.506 OA
ATOM     34  H   UNL     1       7.461   4.208  26.192  0.00  0.00    +0.292 HD
ENDBRANCH  21  33
BRANCH  18  35
ATOM     35  O   UNL     1      11.723   4.117  23.013  0.00  0.00    -0.507 OA
ATOM     36  H   UNL     1      11.561   5.073  22.936  0.00  0.00    +0.292 HD
ENDBRANCH  18  35
ENDBRANCH  11  12
ENDBRANCH   6  11
BRANCH   4  37
ATOM     37  C   UNL     1       4.652  -3.261  25.133  0.00  0.00    +0.197 C 
BRANCH  37  38
ATOM     38  O   UNL     1       3.698  -4.284  24.843  0.00  0.00    -0.346 OA
BRANCH  38  39
ATOM     39  C   UNL     1       4.048  -5.214  23.815  0.00  0.00    +0.282 C 
ATOM     40  O   UNL     1       2.866  -5.515  23.056  0.00  0.00    -0.341 OA
ATOM     41  C   UNL     1       1.814  -6.054  23.870  0.00  0.00    +0.178 C 
ATOM     42  C   UNL     1       2.247  -7.345  24.604  0.00  0.00    +0.177 C 
ATOM     43  C   UNL     1       3.579  -7.151  25.333  0.00  0.00    +0.179 C 
ATOM     44  C   UNL     1       4.617  -6.527  24.381  0.00  0.00    +0.201 C 
BRANCH  43  45
ATOM     45  O   UNL     1       3.407  -6.374  26.527  0.00  0.00    -0.386 OA
ATOM     46  H   UNL     1       2.880  -5.579  26.313  0.00  0.00    +0.210 HD
ENDBRANCH  43  45
BRANCH  44  47
ATOM     47  O   UNL     1       5.883  -6.361  25.030  0.00  0.00    -0.384 OA
ATOM     48  H   UNL     1       6.259  -5.515  24.721  0.00  0.00    +0.210 HD
ENDBRANCH  44  47
BRANCH  42  49
ATOM     49  O   UNL     1       2.372  -8.420  23.665  0.00  0.00    -0.386 OA
ATOM     50  H   UNL     1       1.481  -8.659  23.355  0.00  0.00    +0.210 HD
ENDBRANCH  42  49
BRANCH  41  51
ATOM     51  C   UNL     1       0.575  -6.269  22.996  0.00  0.00    +0.190 C 
BRANCH  51  52
ATOM     52  O   UNL     1       0.911  -6.958  21.795  0.00  0.00    -0.392 OA
ATOM     53  H   UNL     1       0.105  -6.989  21.250  0.00  0.00    +0.210 HD
ENDBRANCH  51  52
ENDBRANCH  41  51
ENDBRANCH  38  39
ENDBRANCH  37  38
ENDBRANCH   4  37
BRANCH   1  54
ATOM     54  O   UNL     1       5.225  -0.468  28.903  0.00  0.00    -0.337 OA
BRANCH  54  58
ATOM     55  C   UNL     1       4.095   3.490  29.868  0.00  0.00    +0.041 C 
ATOM     56  C   UNL     1       5.138   3.169  28.795  0.00  0.00    +0.149 C 
ATOM     57  O   UNL     1       5.065   1.795  28.374  0.00  0.00    -0.343 OA
ATOM     58  C   UNL     1       5.473   0.860  29.378  0.00  0.00    +0.282 C 
ATOM     59  C   UNL     1       6.946   1.091  29.778  0.00  0.00    +0.201 C 
ATOM     60  C   UNL     1       7.127   2.532  30.243  0.00  0.00    +0.179 C 
ATOM     61  C   UNL     1       6.574   3.525  29.216  0.00  0.00    +0.174 C 
BRANCH  61  62
ATOM     62  O   UNL     1       7.440   3.483  28.065  0.00  0.00    -0.387 OA
ATOM     63  H   UNL     1       7.227   2.646  27.590  0.00  0.00    +0.210 HD
ENDBRANCH  61  62
BRANCH  60  64
ATOM     64  O   UNL     1       8.526   2.765  30.455  0.00  0.00    -0.386 OA
ATOM     65  H   UNL     1       8.575   3.319  31.263  0.00  0.00    +0.210 HD
ENDBRANCH  60  64
BRANCH  59  66
ATOM     66  O   UNL     1       7.814   0.808  28.663  0.00  0.00    -0.384 OA
ATOM     67  H   UNL     1       7.237   0.731  27.881  0.00  0.00    +0.210 HD
ENDBRANCH  59  66
ENDBRANCH  54  58
ENDBRANCH   1  54
TORSDOF 22
ENDMDL
MODEL 2
REMARK VINA RESULT:      -6.5      1.882      5.537
REMARK  Name = 
REMARK  23 active torsions:
REMARK  status: ('A' for Active; 'I' for Inactive)
REMARK    1  A    between atoms: C_1  and  C_2
REMARK    2  A    between atoms: C_3  and  O_62
REMARK    3  A    between atoms: C_5  and  O_61
REMARK    4  A    between atoms: C_6  and  O_60
REMARK    5  A    between atoms: C_8  and  O_11
REMARK    6  A    between atoms: O_11  and  C_12
REMARK    7  A    between atoms: C_13  and  O_38
REMARK    8  A    between atoms: C_16  and  C_22
REMARK    9  A    between atoms: C_17  and  O_21
REMARK   10  A    between atoms: C_19  and  O_20
REMARK   11  A    between atoms: C_22  and  O_23
REMARK   12  A    between atoms: O_23  and  C_24
REMARK   13  A    between atoms: C_26  and  O_37
REMARK   14  A    between atoms: C_27  and  O_36
REMARK   15  A    between atoms: C_29  and  O_35
REMARK   16  A    between atoms: C_31  and  C_33
REMARK   17  A    between atoms: C_33  and  O_34
REMARK   18  A    between atoms: O_38  and  C_39
REMARK   19  A    between atoms: C_40  and  C_52
REMARK   20  A    between atoms: C_44  and  O_51
REMARK   21  A    between atoms: C_46  and  O_50
REMARK   22  A    between atoms: C_54  and  O_59
REMARK   23  A    between atoms: C_55  and  O_58
REMARK                            x       y       z     vdW  Elec       q    Type
REMARK                         _______ _______ _______ _____ _____    ______ ____
ROOT
ATOM      1  C   UNL     1       9.475   0.078  23.719  0.00  0.00    +0.221 C 
ATOM      2  C   UNL     1      10.186  -1.016  22.897  0.00  0.00    +0.180 C 
ATOM      3  C   UNL     1       9.297  -1.534  21.762  0.00  0.00    +0.177 C 
ATOM      4  C   UNL     1       7.912  -1.913  22.288  0.00  0.00    +0.179 C 
ATOM      5  O   UNL     1       7.287  -0.799  22.935  0.00  0.00    -0.331 OA
ATOM      6  C   UNL     1       7.994  -0.271  24.054  0.00  0.00    +0.340 C 
ENDROOT
BRANCH   3   7
ATOM      7  O   UNL     1       9.145  -0.547  20.735  0.00  0.00    -0.386 OA
ATOM      8  H   UNL     1       8.482   0.103  21.043  0.00  0.00    +0.210 HD
ENDBRANCH   3   7
BRANCH   2   9
ATOM      9  O   UNL     1      10.620  -2.122  23.702  0.00  0.00    -0.386 OA
ATOM     10  H   UNL     1       9.876  -2.717  23.890  0.00  0.00    +0.210 HD
ENDBRANCH   2   9
BRANCH   6  11
ATOM     11  O   UNL     1       7.879  -1.030  25.271  0.00  0.00    -0.453 OA
BRANCH  11  12
ATOM     12  C   UNL     1       7.078  -0.475  26.283  0.00  0.00    +0.214 A 
ATOM     13  C   UNL     1       7.212   0.972  26.694  0.00  0.00    +0.238 A 
ATOM     14  O   UNL     1       8.151   1.662  26.311  0.00  0.00    -0.283 OA
ATOM     15  C   UNL     1       6.244   1.506  27.671  0.00  0.00    +0.109 A 
ATOM     16  C   UNL     1       5.330   0.618  28.221  0.00  0.00    +0.147 A 
ATOM     17  C   UNL     1       4.390   1.049  29.164  0.00  0.00    +0.092 A 
ATOM     18  C   UNL     1       4.394   2.381  29.579  0.00  0.00    +0.124 A 
ATOM     19  C   UNL     1       5.317   3.275  29.056  0.00  0.00    +0.091 A 
ATOM     20  O   UNL     1       5.316  -0.714  27.925  0.00  0.00    -0.451 OA
ATOM     21  C   UNL     1       6.241   2.841  28.107  0.00  0.00    +0.135 A 
ATOM     22  C   UNL     1       6.201  -1.231  26.987  0.00  0.00    +0.181 A 
BRANCH  22  23
ATOM     23  C   UNL     1       6.060  -2.720  26.891  0.00  0.00    +0.025 A 
ATOM     24  C   UNL     1       4.797  -3.323  27.097  0.00  0.00    +0.015 A 
ATOM     25  C   UNL     1       4.645  -4.712  27.183  0.00  0.00    +0.050 A 
ATOM     26  C   UNL     1       5.765  -5.516  27.084  0.00  0.00    +0.158 A 
ATOM     27  C   UNL     1       7.017  -4.952  26.875  0.00  0.00    +0.159 A 
ATOM     28  C   UNL     1       7.172  -3.570  26.767  0.00  0.00    +0.060 A 
BRANCH  27  29
ATOM     29  O   UNL     1       8.092  -5.799  26.838  0.00  0.00    -0.503 OA
ATOM     30  H   UNL     1       8.286  -6.004  25.907  0.00  0.00    +0.292 HD
ENDBRANCH  27  29
BRANCH  26  31
ATOM     31  O   UNL     1       5.638  -6.864  27.249  0.00  0.00    -0.503 OA
ATOM     32  H   UNL     1       6.554  -7.183  27.376  0.00  0.00    +0.292 HD
ENDBRANCH  26  31
ENDBRANCH  22  23
BRANCH  21  33
ATOM     33  O   UNL     1       7.148   3.742  27.623  0.00  0.00    -0.506 OA
ATOM     34  H   UNL     1       8.039   3.360  27.639  0.00  0.00    +0.292 HD
ENDBRANCH  21  33
BRANCH  18  35
ATOM     35  O   UNL     1       3.485   2.854  30.485  0.00  0.00    -0.507 OA
ATOM     36  H   UNL     1       2.812   2.168  30.636  0.00  0.00    +0.292 HD
ENDBRANCH  18  35
ENDBRANCH  11  12
ENDBRANCH   6  11
BRANCH   4  37
ATOM     37  C   UNL     1       7.935  -3.136  23.202  0.00  0.00    +0.197 C 
BRANCH  37  38
ATOM     38  O   UNL     1       6.640  -3.692  23.437  0.00  0.00    -0.346 OA
BRANCH  38  39
ATOM     39  C   UNL     1       5.846  -3.981  22.284  0.00  0.00    +0.282 C 
ATOM     40  O   UNL     1       4.467  -3.746  22.613  0.00  0.00    -0.341 OA
ATOM     41  C   UNL     1       4.026  -4.539  23.724  0.00  0.00    +0.178 C 
ATOM     42  C   UNL     1       4.200  -6.054  23.467  0.00  0.00    +0.177 C 
ATOM     43  C   UNL     1       5.614  -6.377  22.977  0.00  0.00    +0.179 C 
ATOM     44  C   UNL     1       5.999  -5.440  21.817  0.00  0.00    +0.201 C 
BRANCH  43  45
ATOM     45  O   UNL     1       6.560  -6.320  24.054  0.00  0.00    -0.386 OA
ATOM     46  H   UNL     1       7.268  -6.974  23.886  0.00  0.00    +0.210 HD
ENDBRANCH  43  45
BRANCH  44  47
ATOM     47  O   UNL     1       7.309  -5.740  21.320  0.00  0.00    -0.384 OA
ATOM     48  H   UNL     1       7.549  -6.626  21.655  0.00  0.00    +0.210 HD
ENDBRANCH  44  47
BRANCH  42  49
ATOM     49  O   UNL     1       3.248  -6.494  22.490  0.00  0.00    -0.386 OA
ATOM     50  H   UNL     1       2.357  -6.414  22.876  0.00  0.00    +0.210 HD
ENDBRANCH  42  49
BRANCH  41  51
ATOM     51  C   UNL     1       2.578  -4.166  24.052  0.00  0.00    +0.190 C 
BRANCH  51  52
ATOM     52  O   UNL     1       1.947  -5.190  24.816  0.00  0.00    -0.392 OA
ATOM     53  H   UNL     1       1.301  -5.624  24.231  0.00  0.00    +0.210 HD
ENDBRANCH  51  52
ENDBRANCH  41  51
ENDBRANCH  38  39
ENDBRANCH  37  38
ENDBRANCH   4  37
BRANCH   1  54
ATOM     54  O   UNL     1       9.559   1.294  22.941  0.00  0.00    -0.337 OA
BRANCH  54  58
ATOM     55  C   UNL     1       5.582   2.728  22.929  0.00  0.00    +0.041 C 
ATOM     56  C   UNL     1       6.708   3.418  22.156  0.00  0.00    +0.149 C 
ATOM     57  O   UNL     1       7.845   2.553  21.986  0.00  0.00    -0.343 OA
ATOM     58  C   UNL     1       8.542   2.269  23.204  0.00  0.00    +0.282 C 
ATOM     59  C   UNL     1       9.099   3.563  23.834  0.00  0.00    +0.201 C 
ATOM     60  C   UNL     1       7.960   4.553  24.055  0.00  0.00    +0.179 C 
ATOM     61  C   UNL     1       7.141   4.758  22.776  0.00  0.00    +0.174 C 
BRANCH  61  62
ATOM     62  O   UNL     1       7.971   5.477  21.843  0.00  0.00    -0.387 OA
ATOM     63  H   UNL     1       8.151   4.856  21.099  0.00  0.00    +0.210 HD
ENDBRANCH  61  62
BRANCH  60  64
ATOM     64  O   UNL     1       8.523   5.799  24.489  0.00  0.00    -0.386 OA
ATOM     65  H   UNL     1       7.764   6.320  24.826  0.00  0.00    +0.210 HD
ENDBRANCH  60  64
BRANCH  59  66
ATOM     66  O   UNL     1      10.108   4.138  22.980  0.00  0.00    -0.384 OA
ATOM     67  H   UNL     1      10.945   3.695  23.211  0.00  0.00    +0.210 HD
ENDBRANCH  59  66
ENDBRANCH  54  58
ENDBRANCH   1  54
TORSDOF 22
ENDMDL
MODEL 3
REMARK VINA RESULT:      -6.4      2.142      8.364
REMARK  Name = 
REMARK  23 active torsions:
REMARK  status: ('A' for Active; 'I' for Inactive)
REMARK    1  A    between atoms: C_1  and  C_2
REMARK    2  A    between atoms: C_3  and  O_62
REMARK    3  A    between atoms: C_5  and  O_61
REMARK    4  A    between atoms: C_6  and  O_60
REMARK    5  A    between atoms: C_8  and  O_11
REMARK    6  A    between atoms: O_11  and  C_12
REMARK    7  A    between atoms: C_13  and  O_38
REMARK    8  A    between atoms: C_16  and  C_22
REMARK    9  A    between atoms: C_17  and  O_21
REMARK   10  A    between atoms: C_19  and  O_20
REMARK   11  A    between atoms: C_22  and  O_23
REMARK   12  A    between atoms: O_23  and  C_24
REMARK   13  A    between atoms: C_26  and  O_37
REMARK   14  A    between atoms: C_27  and  O_36
REMARK   15  A    between atoms: C_29  and  O_35
REMARK   16  A    between atoms: C_31  and  C_33
REMARK   17  A    between atoms: C_33  and  O_34
REMARK   18  A    between atoms: O_38  and  C_39
REMARK   19  A    between atoms: C_40  and  C_52
REMARK   20  A    between atoms: C_44  and  O_51
REMARK   21  A    between atoms: C_46  and  O_50
REMARK   22  A    between atoms: C_54  and  O_59
REMARK   23  A    between atoms: C_55  and  O_58
REMARK                            x       y       z     vdW  Elec       q    Type
REMARK                         _______ _______ _______ _____ _____    ______ ____
ROOT
ATOM      1  C   UNL     1       4.794  -0.162  27.455  0.00  0.00    +0.221 C 
ATOM      2  C   UNL     1       5.201   1.148  28.161  0.00  0.00    +0.180 C 
ATOM      3  C   UNL     1       4.734   2.378  27.376  0.00  0.00    +0.177 C 
ATOM      4  C   UNL     1       5.149   2.275  25.908  0.00  0.00    +0.179 C 
ATOM      5  O   UNL     1       4.629   1.082  25.310  0.00  0.00    -0.331 OA
ATOM      6  C   UNL     1       5.052  -0.137  25.918  0.00  0.00    +0.340 C 
ENDROOT
BRANCH   3   7
ATOM      7  O   UNL     1       3.310   2.521  27.442  0.00  0.00    -0.386 OA
ATOM      8  H   UNL     1       3.113   3.461  27.623  0.00  0.00    +0.210 HD
ENDBRANCH   3   7
BRANCH   2   9
ATOM      9  O   UNL     1       6.614   1.240  28.391  0.00  0.00    -0.386 OA
ATOM     10  H   UNL     1       6.952   2.098  28.085  0.00  0.00    +0.210 HD
ENDBRANCH   2   9
BRANCH   6  11
ATOM     11  O   UNL     1       6.385  -0.563  25.586  0.00  0.00    -0.453 OA
BRANCH  11  12
ATOM     12  C   UNL     1       6.497  -1.586  24.629  0.00  0.00    +0.214 A 
ATOM     13  C   UNL     1       5.590  -2.794  24.652  0.00  0.00    +0.238 A 
ATOM     14  O   UNL     1       4.865  -3.031  25.613  0.00  0.00    -0.283 OA
ATOM     15  C   UNL     1       5.688  -3.753  23.537  0.00  0.00    +0.109 A 
ATOM     16  C   UNL     1       6.673  -3.533  22.584  0.00  0.00    +0.147 A 
ATOM     17  C   UNL     1       6.834  -4.407  21.504  0.00  0.00    +0.092 A 
ATOM     18  C   UNL     1       6.015  -5.533  21.403  0.00  0.00    +0.124 A 
ATOM     19  C   UNL     1       5.042  -5.779  22.360  0.00  0.00    +0.091 A 
ATOM     20  O   UNL     1       7.563  -2.501  22.659  0.00  0.00    -0.451 OA
ATOM     21  C   UNL     1       4.878  -4.895  23.425  0.00  0.00    +0.135 A 
ATOM     22  C   UNL     1       7.470  -1.570  23.687  0.00  0.00    +0.181 A 
BRANCH  22  23
ATOM     23  C   UNL     1       8.597  -0.586  23.612  0.00  0.00    +0.025 A 
ATOM     24  C   UNL     1       9.356  -0.294  24.770  0.00  0.00    +0.015 A 
ATOM     25  C   UNL     1      10.306   0.734  24.792  0.00  0.00    +0.050 A 
ATOM     26  C   UNL     1      10.493   1.499  23.657  0.00  0.00    +0.158 A 
ATOM     27  C   UNL     1       9.767   1.231  22.503  0.00  0.00    +0.159 A 
ATOM     28  C   UNL     1       8.834   0.195  22.468  0.00  0.00    +0.060 A 
BRANCH  27  29
ATOM     29  O   UNL     1       9.960   2.058  21.429  0.00  0.00    -0.503 OA
ATOM     30  H   UNL     1      10.362   2.884  21.750  0.00  0.00    +0.292 HD
ENDBRANCH  27  29
BRANCH  26  31
ATOM     31  O   UNL     1      11.356   2.555  23.694  0.00  0.00    -0.503 OA
ATOM     32  H   UNL     1      12.028   2.300  24.358  0.00  0.00    +0.292 HD
ENDBRANCH  26  31
ENDBRANCH  22  23
BRANCH  21  33
ATOM     33  O   UNL     1       3.921  -5.174  24.360  0.00  0.00    -0.506 OA
ATOM     34  H   UNL     1       3.528  -4.351  24.691  0.00  0.00    +0.292 HD
ENDBRANCH  21  33
BRANCH  18  35
ATOM     35  O   UNL     1       6.123  -6.407  20.357  0.00  0.00    -0.507 OA
ATOM     36  H   UNL     1       6.949  -6.220  19.879  0.00  0.00    +0.292 HD
ENDBRANCH  18  35
ENDBRANCH  11  12
ENDBRANCH   6  11
BRANCH   4  37
ATOM     37  C   UNL     1       6.660   2.375  25.707  0.00  0.00    +0.197 C 
BRANCH  37  38
ATOM     38  O   UNL     1       7.059   3.534  24.973  0.00  0.00    -0.346 OA
BRANCH  38  39
ATOM     39  C   UNL     1       7.443   3.330  23.611  0.00  0.00    +0.282 C 
ATOM     40  O   UNL     1       8.582   4.161  23.333  0.00  0.00    -0.341 OA
ATOM     41  C   UNL     1       8.317   5.551  23.566  0.00  0.00    +0.178 C 
ATOM     42  C   UNL     1       7.134   6.071  22.716  0.00  0.00    +0.177 C 
ATOM     43  C   UNL     1       5.911   5.160  22.848  0.00  0.00    +0.179 C 
ATOM     44  C   UNL     1       6.319   3.691  22.624  0.00  0.00    +0.201 C 
BRANCH  43  45
ATOM     45  O   UNL     1       5.256   5.351  24.111  0.00  0.00    -0.386 OA
ATOM     46  H   UNL     1       4.458   5.898  23.971  0.00  0.00    +0.210 HD
ENDBRANCH  43  45
BRANCH  44  47
ATOM     47  O   UNL     1       5.186   2.819  22.713  0.00  0.00    -0.384 OA
ATOM     48  H   UNL     1       4.976   2.713  23.661  0.00  0.00    +0.210 HD
ENDBRANCH  44  47
BRANCH  42  49
ATOM     49  O   UNL     1       7.521   6.148  21.338  0.00  0.00    -0.386 OA
ATOM     50  H   UNL     1       8.285   6.748  21.270  0.00  0.00    +0.210 HD
ENDBRANCH  42  49
BRANCH  41  51
ATOM     51  C   UNL     1       9.603   6.346  23.322  0.00  0.00    +0.190 C 
BRANCH  51  52
ATOM     52  O   UNL     1      10.711   5.473  23.121  0.00  0.00    -0.392 OA
ATOM     53  H   UNL     1      10.355   4.569  23.063  0.00  0.00    +0.210 HD
ENDBRANCH  51  52
ENDBRANCH  41  51
ENDBRANCH  38  39
ENDBRANCH  37  38
ENDBRANCH   4  37
BRANCH   1  54
ATOM     54  O   UNL     1       3.392  -0.365  27.744  0.00  0.00    -0.337 OA
BRANCH  54  58
ATOM     55  C   UNL     1       3.829  -3.554  30.485  0.00  0.00    +0.041 C 
ATOM     56  C   UNL     1       4.035  -3.728  28.978  0.00  0.00    +0.149 C 
ATOM     57  O   UNL     1       4.224  -2.465  28.316  0.00  0.00    -0.343 OA
ATOM     58  C   UNL     1       3.052  -1.643  28.295  0.00  0.00    +0.282 C 
ATOM     59  C   UNL     1       1.906  -2.341  27.532  0.00  0.00    +0.201 C 
ATOM     60  C   UNL     1       1.628  -3.701  28.164  0.00  0.00    +0.179 C 
ATOM     61  C   UNL     1       2.911  -4.527  28.297  0.00  0.00    +0.174 C 
BRANCH  61  62
ATOM     62  O   UNL     1       3.322  -4.905  26.969  0.00  0.00    -0.387 OA
ATOM     63  H   UNL     1       4.180  -4.450  26.806  0.00  0.00    +0.210 HD
ENDBRANCH  61  62
BRANCH  60  64
ATOM     64  O   UNL     1       0.675  -4.392  27.344  0.00  0.00    -0.386 OA
ATOM     65  H   UNL     1       1.164  -4.631  26.529  0.00  0.00    +0.210 HD
ENDBRANCH  60  64
BRANCH  59  66
ATOM     66  O   UNL     1       2.253  -2.492  26.141  0.00  0.00    -0.384 OA
ATOM     67  H   UNL     1       1.723  -1.833  25.656  0.00  0.00    +0.210 HD
ENDBRANCH  59  66
ENDBRANCH  54  58
ENDBRANCH   1  54
TORSDOF 22
ENDMDL
MODEL 4
REMARK VINA RESULT:      -6.3      1.296      2.044
REMARK  Name = 
REMARK  23 active torsions:
REMARK  status: ('A' for Active; 'I' for Inactive)
REMARK    1  A    between atoms: C_1  and  C_2
REMARK    2  A    between atoms: C_3  and  O_62
REMARK    3  A    between atoms: C_5  and  O_61
REMARK    4  A    between atoms: C_6  and  O_60
REMARK    5  A    between atoms: C_8  and  O_11
REMARK    6  A    between atoms: O_11  and  C_12
REMARK    7  A    between atoms: C_13  and  O_38
REMARK    8  A    between atoms: C_16  and  C_22
REMARK    9  A    between atoms: C_17  and  O_21
REMARK   10  A    between atoms: C_19  and  O_20
REMARK   11  A    between atoms: C_22  and  O_23
REMARK   12  A    between atoms: O_23  and  C_24
REMARK   13  A    between atoms: C_26  and  O_37
REMARK   14  A    between atoms: C_27  and  O_36
REMARK   15  A    between atoms: C_29  and  O_35
REMARK   16  A    between atoms: C_31  and  C_33
REMARK   17  A    between atoms: C_33  and  O_34
REMARK   18  A    between atoms: O_38  and  C_39
REMARK   19  A    between atoms: C_40  and  C_52
REMARK   20  A    between atoms: C_44  and  O_51
REMARK   21  A    between atoms: C_46  and  O_50
REMARK   22  A    between atoms: C_54  and  O_59
REMARK   23  A    between atoms: C_55  and  O_58
REMARK                            x       y       z     vdW  Elec       q    Type
REMARK                         _______ _______ _______ _____ _____    ______ ____
ROOT
ATOM      1  C   UNL     1       4.633   0.650  27.805  0.00  0.00    +0.221 C 
ATOM      2  C   UNL     1       3.408  -0.284  27.878  0.00  0.00    +0.180 C 
ATOM      3  C   UNL     1       3.814  -1.717  28.234  0.00  0.00    +0.177 C 
ATOM      4  C   UNL     1       4.947  -2.202  27.328  0.00  0.00    +0.179 C 
ATOM      5  O   UNL     1       6.081  -1.332  27.416  0.00  0.00    -0.331 OA
ATOM      6  C   UNL     1       5.839   0.022  27.042  0.00  0.00    +0.340 C 
ENDROOT
BRANCH   3   7
ATOM      7  O   UNL     1       4.245  -1.807  29.597  0.00  0.00    -0.386 OA
ATOM      8  H   UNL     1       3.789  -2.570  30.004  0.00  0.00    +0.210 HD
ENDBRANCH   3   7
BRANCH   2   9
ATOM      9  O   UNL     1       2.644  -0.295  26.663  0.00  0.00    -0.386 OA
ATOM     10  H   UNL     1       1.703  -0.150  26.854  0.00  0.00    +0.210 HD
ENDBRANCH   2   9
BRANCH   6  11
ATOM     11  O   UNL     1       5.770   0.269  25.626  0.00  0.00    -0.453 OA
BRANCH  11  12
ATOM     12  C   UNL     1       6.893   0.879  25.041  0.00  0.00    +0.214 A 
ATOM     13  C   UNL     1       7.086   2.376  25.070  0.00  0.00    +0.238 A 
ATOM     14  O   UNL     1       6.184   3.130  25.420  0.00  0.00    -0.283 OA
ATOM     15  C   UNL     1       8.354   2.921  24.549  0.00  0.00    +0.109 A 
ATOM     16  C   UNL     1       9.251   2.029  23.979  0.00  0.00    +0.147 A 
ATOM     17  C   UNL     1      10.468   2.473  23.453  0.00  0.00    +0.092 A 
ATOM     18  C   UNL     1      10.769   3.836  23.472  0.00  0.00    +0.124 A 
ATOM     19  C   UNL     1       9.872   4.743  24.017  0.00  0.00    +0.091 A 
ATOM     20  O   UNL     1       8.993   0.694  23.851  0.00  0.00    -0.451 OA
ATOM     21  C   UNL     1       8.668   4.290  24.553  0.00  0.00    +0.135 A 
ATOM     22  C   UNL     1       7.816   0.157  24.361  0.00  0.00    +0.181 A 
BRANCH  22  23
ATOM     23  C   UNL     1       7.714  -1.300  24.028  0.00  0.00    +0.025 A 
ATOM     24  C   UNL     1       8.601  -2.225  24.630  0.00  0.00    +0.015 A 
ATOM     25  C   UNL     1       8.655  -3.565  24.230  0.00  0.00    +0.050 A 
ATOM     26  C   UNL     1       7.833  -3.993  23.205  0.00  0.00    +0.158 A 
ATOM     27  C   UNL     1       6.947  -3.110  22.601  0.00  0.00    +0.159 A 
ATOM     28  C   UNL     1       6.873  -1.778  23.008  0.00  0.00    +0.060 A 
BRANCH  27  29
ATOM     29  O   UNL     1       6.198  -3.582  21.557  0.00  0.00    -0.503 OA
ATOM     30  H   UNL     1       6.611  -3.285  20.727  0.00  0.00    +0.292 HD
ENDBRANCH  27  29
BRANCH  26  31
ATOM     31  O   UNL     1       7.937  -5.276  22.753  0.00  0.00    -0.503 OA
ATOM     32  H   UNL     1       7.520  -5.818  23.453  0.00  0.00    +0.292 HD
ENDBRANCH  26  31
ENDBRANCH  22  23
BRANCH  21  33
ATOM     33  O   UNL     1       7.798   5.210  25.068  0.00  0.00    -0.506 OA
ATOM     34  H   UNL     1       7.232   4.795  25.737  0.00  0.00    +0.292 HD
ENDBRANCH  21  33
BRANCH  18  35
ATOM     35  O   UNL     1      11.953   4.317  22.986  0.00  0.00    -0.507 OA
ATOM     36  H   UNL     1      12.487   4.639  23.732  0.00  0.00    +0.292 HD
ENDBRANCH  18  35
ENDBRANCH  11  12
ENDBRANCH   6  11
BRANCH   4  37
ATOM     37  C   UNL     1       4.510  -2.390  25.876  0.00  0.00    +0.197 C 
BRANCH  37  38
ATOM     38  O   UNL     1       4.567  -3.749  25.439  0.00  0.00    -0.346 OA
BRANCH  38  39
ATOM     39  C   UNL     1       3.323  -4.365  25.098  0.00  0.00    +0.282 C 
ATOM     40  O   UNL     1       2.777  -4.969  26.282  0.00  0.00    -0.341 OA
ATOM     41  C   UNL     1       3.663  -5.938  26.861  0.00  0.00    +0.178 C 
ATOM     42  C   UNL     1       4.017  -7.072  25.871  0.00  0.00    +0.177 C 
ATOM     43  C   UNL     1       4.481  -6.511  24.525  0.00  0.00    +0.179 C 
ATOM     44  C   UNL     1       3.483  -5.452  24.020  0.00  0.00    +0.201 C 
BRANCH  43  45
ATOM     45  O   UNL     1       5.817  -5.995  24.612  0.00  0.00    -0.386 OA
ATOM     46  H   UNL     1       5.835  -5.099  24.221  0.00  0.00    +0.210 HD
ENDBRANCH  43  45
BRANCH  44  47
ATOM     47  O   UNL     1       3.879  -4.931  22.746  0.00  0.00    -0.384 OA
ATOM     48  H   UNL     1       3.431  -4.071  22.633  0.00  0.00    +0.210 HD
ENDBRANCH  44  47
BRANCH  42  49
ATOM     49  O   UNL     1       2.874  -7.913  25.666  0.00  0.00    -0.386 OA
ATOM     50  H   UNL     1       3.008  -8.412  24.841  0.00  0.00    +0.210 HD
ENDBRANCH  42  49
BRANCH  41  51
ATOM     51  C   UNL     1       3.036  -6.467  28.154  0.00  0.00    +0.190 C 
BRANCH  51  52
ATOM     52  O   UNL     1       1.636  -6.677  27.994  0.00  0.00    -0.392 OA
ATOM     53  H   UNL     1       1.240  -6.641  28.882  0.00  0.00    +0.210 HD
ENDBRANCH  51  52
ENDBRANCH  41  51
ENDBRANCH  38  39
ENDBRANCH  37  38
ENDBRANCH   4  37
BRANCH   1  54
ATOM     54  O   UNL     1       4.991   0.965  29.170  0.00  0.00    -0.337 OA
BRANCH  54  58
ATOM     55  C   UNL     1       3.822   5.023  29.383  0.00  0.00    +0.041 C 
ATOM     56  C   UNL     1       4.955   4.538  28.475  0.00  0.00    +0.149 C 
ATOM     57  O   UNL     1       4.905   3.115  28.273  0.00  0.00    -0.343 OA
ATOM     58  C   UNL     1       5.209   2.354  29.447  0.00  0.00    +0.282 C 
ATOM     59  C   UNL     1       6.642   2.651  29.938  0.00  0.00    +0.201 C 
ATOM     60  C   UNL     1       6.796   4.148  30.182  0.00  0.00    +0.179 C 
ATOM     61  C   UNL     1       6.350   4.962  28.963  0.00  0.00    +0.174 C 
BRANCH  61  62
ATOM     62  O   UNL     1       7.317   4.739  27.918  0.00  0.00    -0.387 OA
ATOM     63  H   UNL     1       7.741   5.611  27.744  0.00  0.00    +0.210 HD
ENDBRANCH  61  62
BRANCH  60  64
ATOM     64  O   UNL     1       8.173   4.416  30.481  0.00  0.00    -0.386 OA
ATOM     65  H   UNL     1       8.241   5.393  30.526  0.00  0.00    +0.210 HD
ENDBRANCH  60  64
BRANCH  59  66
ATOM     66  O   UNL     1       7.605   2.195  28.967  0.00  0.00    -0.384 OA
ATOM     67  H   UNL     1       7.985   1.372  29.326  0.00  0.00    +0.210 HD
ENDBRANCH  59  66
ENDBRANCH  54  58
ENDBRANCH   1  54
TORSDOF 22
ENDMDL
MODEL 5
REMARK VINA RESULT:      -6.3      1.486      7.358
REMARK  Name = 
REMARK  23 active torsions:
REMARK  status: ('A' for Active; 'I' for Inactive)
REMARK    1  A    between atoms: C_1  and  C_2
REMARK    2  A    between atoms: C_3  and  O_62
REMARK    3  A    between atoms: C_5  and  O_61
REMARK    4  A    between atoms: C_6  and  O_60
REMARK    5  A    between atoms: C_8  and  O_11
REMARK    6  A    between atoms: O_11  and  C_12
REMARK    7  A    between atoms: C_13  and  O_38
REMARK    8  A    between atoms: C_16  and  C_22
REMARK    9  A    between atoms: C_17  and  O_21
REMARK   10  A    between atoms: C_19  and  O_20
REMARK   11  A    between atoms: C_22  and  O_23
REMARK   12  A    between atoms: O_23  and  C_24
REMARK   13  A    between atoms: C_26  and  O_37
REMARK   14  A    between atoms: C_27  and  O_36
REMARK   15  A    between atoms: C_29  and  O_35
REMARK   16  A    between atoms: C_31  and  C_33
REMARK   17  A    between atoms: C_33  and  O_34
REMARK   18  A    between atoms: O_38  and  C_39
REMARK   19  A    between atoms: C_40  and  C_52
REMARK   20  A    between atoms: C_44  and  O_51
REMARK   21  A    between atoms: C_46  and  O_50
REMARK   22  A    between atoms: C_54  and  O_59
REMARK   23  A    between atoms: C_55  and  O_58
REMARK                            x       y       z     vdW  Elec       q    Type
REMARK                         _______ _______ _______ _____ _____    ______ ____
ROOT
ATOM      1  C   UNL     1       5.010  -2.218  25.928  0.00  0.00    +0.221 C 
ATOM      2  C   UNL     1       4.170  -2.293  27.220  0.00  0.00    +0.180 C 
ATOM      3  C   UNL     1       3.123  -1.177  27.276  0.00  0.00    +0.177 C 
ATOM      4  C   UNL     1       3.764   0.183  26.996  0.00  0.00    +0.179 C 
ATOM      5  O   UNL     1       4.423   0.188  25.724  0.00  0.00    -0.331 OA
ATOM      6  C   UNL     1       5.468  -0.770  25.578  0.00  0.00    +0.340 C 
ENDROOT
BRANCH   3   7
ATOM      7  O   UNL     1       2.081  -1.399  26.318  0.00  0.00    -0.386 OA
ATOM      8  H   UNL     1       2.135  -2.332  26.031  0.00  0.00    +0.210 HD
ENDBRANCH   3   7
BRANCH   2   9
ATOM      9  O   UNL     1       4.973  -2.251  28.408  0.00  0.00    -0.386 OA
ATOM     10  H   UNL     1       5.706  -1.623  28.299  0.00  0.00    +0.210 HD
ENDBRANCH   2   9
BRANCH   6  11
ATOM     11  O   UNL     1       6.713  -0.428  26.213  0.00  0.00    -0.453 OA
BRANCH  11  12
ATOM     12  C   UNL     1       7.616   0.335  25.454  0.00  0.00    +0.214 A 
ATOM     13  C   UNL     1       7.654   1.842  25.548  0.00  0.00    +0.238 A 
ATOM     14  O   UNL     1       6.773   2.468  26.127  0.00  0.00    -0.283 OA
ATOM     15  C   UNL     1       8.718   2.554  24.816  0.00  0.00    +0.109 A 
ATOM     16  C   UNL     1       9.561   1.800  24.012  0.00  0.00    +0.147 A 
ATOM     17  C   UNL     1      10.586   2.407  23.279  0.00  0.00    +0.092 A 
ATOM     18  C   UNL     1      10.740   3.793  23.331  0.00  0.00    +0.124 A 
ATOM     19  C   UNL     1       9.890   4.563  24.112  0.00  0.00    +0.091 A 
ATOM     20  O   UNL     1       9.422   0.452  23.847  0.00  0.00    -0.451 OA
ATOM     21  C   UNL     1       8.881   3.949  24.851  0.00  0.00    +0.135 A 
ATOM     22  C   UNL     1       8.443  -0.242  24.549  0.00  0.00    +0.181 A 
BRANCH  22  23
ATOM     23  C   UNL     1       8.424  -1.684  24.144  0.00  0.00    +0.025 A 
ATOM     24  C   UNL     1       7.685  -2.087  23.006  0.00  0.00    +0.015 A 
ATOM     25  C   UNL     1       7.501  -3.437  22.684  0.00  0.00    +0.050 A 
ATOM     26  C   UNL     1       8.040  -4.404  23.512  0.00  0.00    +0.158 A 
ATOM     27  C   UNL     1       8.776  -4.037  24.632  0.00  0.00    +0.159 A 
ATOM     28  C   UNL     1       8.981  -2.694  24.947  0.00  0.00    +0.060 A 
BRANCH  27  29
ATOM     29  O   UNL     1       9.237  -5.041  25.439  0.00  0.00    -0.503 OA
ATOM     30  H   UNL     1       8.484  -5.403  25.936  0.00  0.00    +0.292 HD
ENDBRANCH  27  29
BRANCH  26  31
ATOM     31  O   UNL     1       7.796  -5.721  23.252  0.00  0.00    -0.503 OA
ATOM     32  H   UNL     1       6.957  -5.720  22.748  0.00  0.00    +0.292 HD
ENDBRANCH  26  31
ENDBRANCH  22  23
BRANCH  21  33
ATOM     33  O   UNL     1       8.050   4.736  25.597  0.00  0.00    -0.506 OA
ATOM     34  H   UNL     1       7.838   4.297  26.436  0.00  0.00    +0.292 HD
ENDBRANCH  21  33
BRANCH  18  35
ATOM     35  O   UNL     1      11.736   4.431  22.646  0.00  0.00    -0.507 OA
ATOM     36  H   UNL     1      12.418   3.779  22.409  0.00  0.00    +0.292 HD
ENDBRANCH  18  35
ENDBRANCH  11  12
ENDBRANCH   6  11
BRANCH   4  37
ATOM     37  C   UNL     1       4.711   0.636  28.106  0.00  0.00    +0.197 C 
BRANCH  37  38
ATOM     38  O   UNL     1       4.749   2.054  28.276  0.00  0.00    -0.346 OA
BRANCH  38  39
ATOM     39  C   UNL     1       5.183   2.536  29.550  0.00  0.00    +0.282 C 
ATOM     40  O   UNL     1       4.033   3.002  30.274  0.00  0.00    -0.341 OA
ATOM     41  C   UNL     1       3.326   4.035  29.572  0.00  0.00    +0.178 C 
ATOM     42  C   UNL     1       4.224   5.258  29.271  0.00  0.00    +0.177 C 
ATOM     43  C   UNL     1       5.542   4.833  28.618  0.00  0.00    +0.179 C 
ATOM     44  C   UNL     1       6.190   3.693  29.426  0.00  0.00    +0.201 C 
BRANCH  43  45
ATOM     45  O   UNL     1       5.346   4.476  27.242  0.00  0.00    -0.386 OA
ATOM     46  H   UNL     1       5.823   3.641  27.063  0.00  0.00    +0.210 HD
ENDBRANCH  43  45
BRANCH  44  47
ATOM     47  O   UNL     1       7.441   3.296  28.852  0.00  0.00    -0.384 OA
ATOM     48  H   UNL     1       8.064   4.038  28.974  0.00  0.00    +0.210 HD
ENDBRANCH  44  47
BRANCH  42  49
ATOM     49  O   UNL     1       4.504   5.967  30.485  0.00  0.00    -0.386 OA
ATOM     50  H   UNL     1       3.656   6.209  30.898  0.00  0.00    +0.210 HD
ENDBRANCH  42  49
BRANCH  41  51
ATOM     51  C   UNL     1       2.079   4.412  30.377  0.00  0.00    +0.190 C 
BRANCH  51  52
ATOM     52  O   UNL     1       1.173   3.316  30.457  0.00  0.00    -0.392 OA
ATOM     53  H   UNL     1       1.346   2.747  29.686  0.00  0.00    +0.210 HD
ENDBRANCH  51  52
ENDBRANCH  41  51
ENDBRANCH  38  39
ENDBRANCH  37  38
ENDBRANCH   4  37
BRANCH   1  54
ATOM     54  O   UNL     1       4.191  -2.773  24.873  0.00  0.00    -0.337 OA
BRANCH  54  58
ATOM     55  C   UNL     1       4.212  -6.516  26.839  0.00  0.00    +0.041 C 
ATOM     56  C   UNL     1       4.991  -6.260  25.547  0.00  0.00    +0.149 C 
ATOM     57  O   UNL     1       5.154  -4.853  25.293  0.00  0.00    -0.343 OA
ATOM     58  C   UNL     1       3.935  -4.180  24.964  0.00  0.00    +0.282 C 
ATOM     59  C   UNL     1       3.316  -4.762  23.675  0.00  0.00    +0.201 C 
ATOM     60  C   UNL     1       3.102  -6.262  23.846  0.00  0.00    +0.179 C 
ATOM     61  C   UNL     1       4.382  -6.959  24.319  0.00  0.00    +0.174 C 
BRANCH  61  62
ATOM     62  O   UNL     1       5.322  -6.924  23.227  0.00  0.00    -0.387 OA
ATOM     63  H   UNL     1       4.794  -6.744  22.415  0.00  0.00    +0.210 HD
ENDBRANCH  61  62
BRANCH  60  64
ATOM     64  O   UNL     1       2.679  -6.804  22.587  0.00  0.00    -0.386 OA
ATOM     65  H   UNL     1       1.743  -6.526  22.490  0.00  0.00    +0.210 HD
ENDBRANCH  60  64
BRANCH  59  66
ATOM     66  O   UNL     1       4.175  -4.500  22.548  0.00  0.00    -0.384 OA
ATOM     67  H   UNL     1       4.437  -3.563  22.618  0.00  0.00    +0.210 HD
ENDBRANCH  59  66
ENDBRANCH  54  58
ENDBRANCH   1  54
TORSDOF 22
ENDMDL
MODEL 6
REMARK VINA RESULT:      -6.3      1.752      7.318
REMARK  Name = 
REMARK  23 active torsions:
REMARK  status: ('A' for Active; 'I' for Inactive)
REMARK    1  A    between atoms: C_1  and  C_2
REMARK    2  A    between atoms: C_3  and  O_62
REMARK    3  A    between atoms: C_5  and  O_61
REMARK    4  A    between atoms: C_6  and  O_60
REMARK    5  A    between atoms: C_8  and  O_11
REMARK    6  A    between atoms: O_11  and  C_12
REMARK    7  A    between atoms: C_13  and  O_38
REMARK    8  A    between atoms: C_16  and  C_22
REMARK    9  A    between atoms: C_17  and  O_21
REMARK   10  A    between atoms: C_19  and  O_20
REMARK   11  A    between atoms: C_22  and  O_23
REMARK   12  A    between atoms: O_23  and  C_24
REMARK   13  A    between atoms: C_26  and  O_37
REMARK   14  A    between atoms: C_27  and  O_36
REMARK   15  A    between atoms: C_29  and  O_35
REMARK   16  A    between atoms: C_31  and  C_33
REMARK   17  A    between atoms: C_33  and  O_34
REMARK   18  A    between atoms: O_38  and  C_39
REMARK   19  A    between atoms: C_40  and  C_52
REMARK   20  A    between atoms: C_44  and  O_51
REMARK   21  A    between atoms: C_46  and  O_50
REMARK   22  A    between atoms: C_54  and  O_59
REMARK   23  A    between atoms: C_55  and  O_58
REMARK                            x       y       z     vdW  Elec       q    Type
REMARK                         _______ _______ _______ _____ _____    ______ ____
ROOT
ATOM      1  C   UNL     1       4.852  -2.030  26.100  0.00  0.00    +0.221 C 
ATOM      2  C   UNL     1       3.971  -2.117  27.363  0.00  0.00    +0.180 C 
ATOM      3  C   UNL     1       2.870  -1.053  27.355  0.00  0.00    +0.177 C 
ATOM      4  C   UNL     1       3.454   0.330  27.064  0.00  0.00    +0.179 C 
ATOM      5  O   UNL     1       4.157   0.339  25.817  0.00  0.00    -0.331 OA
ATOM      6  C   UNL     1       5.253  -0.570  25.730  0.00  0.00    +0.340 C 
ENDROOT
BRANCH   3   7
ATOM      7  O   UNL     1       1.876  -1.348  26.367  0.00  0.00    -0.386 OA
ATOM      8  H   UNL     1       1.925  -0.656  25.678  0.00  0.00    +0.210 HD
ENDBRANCH   3   7
BRANCH   2   9
ATOM      9  O   UNL     1       4.728  -2.008  28.577  0.00  0.00    -0.386 OA
ATOM     10  H   UNL     1       5.466  -2.640  28.574  0.00  0.00    +0.210 HD
ENDBRANCH   2   9
BRANCH   6  11
ATOM     11  O   UNL     1       6.455  -0.153  26.400  0.00  0.00    -0.453 OA
BRANCH  11  12
ATOM     12  C   UNL     1       7.415   0.508  25.613  0.00  0.00    +0.214 A 
ATOM     13  C   UNL     1       7.521   2.014  25.592  0.00  0.00    +0.238 A 
ATOM     14  O   UNL     1       6.655   2.723  26.094  0.00  0.00    -0.283 OA
ATOM     15  C   UNL     1       8.638   2.618  24.842  0.00  0.00    +0.109 A 
ATOM     16  C   UNL     1       9.467   1.766  24.126  0.00  0.00    +0.147 A 
ATOM     17  C   UNL     1      10.539   2.267  23.381  0.00  0.00    +0.092 A 
ATOM     18  C   UNL     1      10.758   3.645  23.332  0.00  0.00    +0.124 A 
ATOM     19  C   UNL     1       9.924   4.511  24.023  0.00  0.00    +0.091 A 
ATOM     20  O   UNL     1       9.269   0.417  24.060  0.00  0.00    -0.451 OA
ATOM     21  C   UNL     1       8.866   4.003  24.775  0.00  0.00    +0.135 A 
ATOM     22  C   UNL     1       8.239  -0.175  24.782  0.00  0.00    +0.181 A 
BRANCH  22  23
ATOM     23  C   UNL     1       8.163  -1.642  24.488  0.00  0.00    +0.025 A 
ATOM     24  C   UNL     1       8.929  -2.555  25.253  0.00  0.00    +0.015 A 
ATOM     25  C   UNL     1       9.021  -3.909  24.913  0.00  0.00    +0.050 A 
ATOM     26  C   UNL     1       8.361  -4.365  23.788  0.00  0.00    +0.158 A 
ATOM     27  C   UNL     1       7.597  -3.493  23.022  0.00  0.00    +0.159 A 
ATOM     28  C   UNL     1       7.484  -2.147  23.367  0.00  0.00    +0.060 A 
BRANCH  27  29
ATOM     29  O   UNL     1       7.012  -3.995  21.890  0.00  0.00    -0.503 OA
ATOM     30  H   UNL     1       7.715  -4.203  21.251  0.00  0.00    +0.292 HD
ENDBRANCH  27  29
BRANCH  26  31
ATOM     31  O   UNL     1       8.512  -5.665  23.402  0.00  0.00    -0.503 OA
ATOM     32  H   UNL     1       8.305  -6.184  24.205  0.00  0.00    +0.292 HD
ENDBRANCH  26  31
ENDBRANCH  22  23
BRANCH  21  33
ATOM     33  O   UNL     1       8.052   4.882  25.432  0.00  0.00    -0.506 OA
ATOM     34  H   UNL     1       7.260   5.063  24.903  0.00  0.00    +0.292 HD
ENDBRANCH  21  33
BRANCH  18  35
ATOM     35  O   UNL     1      11.802   4.182  22.632  0.00  0.00    -0.507 OA
ATOM     36  H   UNL     1      11.495   4.403  21.735  0.00  0.00    +0.292 HD
ENDBRANCH  18  35
ENDBRANCH  11  12
ENDBRANCH   6  11
BRANCH   4  37
ATOM     37  C   UNL     1       4.338   0.854  28.195  0.00  0.00    +0.197 C 
BRANCH  37  38
ATOM     38  O   UNL     1       4.187   2.255  28.430  0.00  0.00    -0.346 OA
BRANCH  38  39
ATOM     39  C   UNL     1       3.049   2.886  27.837  0.00  0.00    +0.282 C 
ATOM     40  O   UNL     1       3.514   3.872  26.901  0.00  0.00    -0.341 OA
ATOM     41  C   UNL     1       4.358   4.856  27.515  0.00  0.00    +0.178 C 
ATOM     42  C   UNL     1       3.645   5.599  28.669  0.00  0.00    +0.177 C 
ATOM     43  C   UNL     1       2.998   4.617  29.648  0.00  0.00    +0.179 C 
ATOM     44  C   UNL     1       2.155   3.582  28.879  0.00  0.00    +0.201 C 
BRANCH  43  45
ATOM     45  O   UNL     1       3.984   3.995  30.485  0.00  0.00    -0.386 OA
ATOM     46  H   UNL     1       3.773   4.192  31.419  0.00  0.00    +0.210 HD
ENDBRANCH  43  45
BRANCH  44  47
ATOM     47  O   UNL     1       1.514   2.666  29.776  0.00  0.00    -0.384 OA
ATOM     48  H   UNL     1       2.218   2.210  30.276  0.00  0.00    +0.210 HD
ENDBRANCH  44  47
BRANCH  42  49
ATOM     49  O   UNL     1       2.639   6.471  28.138  0.00  0.00    -0.386 OA
ATOM     50  H   UNL     1       3.061   7.317  27.904  0.00  0.00    +0.210 HD
ENDBRANCH  42  49
BRANCH  41  51
ATOM     51  C   UNL     1       4.867   5.812  26.433  0.00  0.00    +0.190 C 
BRANCH  51  52
ATOM     52  O   UNL     1       5.114   5.118  25.213  0.00  0.00    -0.392 OA
ATOM     53  H   UNL     1       5.807   5.611  24.740  0.00  0.00    +0.210 HD
ENDBRANCH  51  52
ENDBRANCH  41  51
ENDBRANCH  38  39
ENDBRANCH  37  38
ENDBRANCH   4  37
BRANCH   1  54
ATOM     54  O   UNL     1       4.100  -2.649  25.031  0.00  0.00    -0.337 OA
BRANCH  54  58
ATOM     55  C   UNL     1       4.745  -6.436  26.797  0.00  0.00    +0.041 C 
ATOM     56  C   UNL     1       5.406  -6.017  25.481  0.00  0.00    +0.149 C 
ATOM     57  O   UNL     1       5.361  -4.591  25.293  0.00  0.00    -0.343 OA
ATOM     58  C   UNL     1       4.044  -4.080  25.062  0.00  0.00    +0.282 C 
ATOM     59  C   UNL     1       3.437  -4.685  23.778  0.00  0.00    +0.201 C 
ATOM     60  C   UNL     1       3.441  -6.207  23.882  0.00  0.00    +0.179 C 
ATOM     61  C   UNL     1       4.829  -6.739  24.252  0.00  0.00    +0.174 C 
BRANCH  61  62
ATOM     62  O   UNL     1       5.690  -6.525  23.117  0.00  0.00    -0.387 OA
ATOM     63  H   UNL     1       5.512  -7.266  22.493  0.00  0.00    +0.210 HD
ENDBRANCH  61  62
BRANCH  60  64
ATOM     64  O   UNL     1       3.023  -6.746  22.620  0.00  0.00    -0.386 OA
ATOM     65  H   UNL     1       3.391  -7.654  22.594  0.00  0.00    +0.210 HD
ENDBRANCH  60  64
BRANCH  59  66
ATOM     66  O   UNL     1       4.186  -4.256  22.624  0.00  0.00    -0.384 OA
ATOM     67  H   UNL     1       3.747  -4.656  21.851  0.00  0.00    +0.210 HD
ENDBRANCH  59  66
ENDBRANCH  54  58
ENDBRANCH   1  54
TORSDOF 22
ENDMDL
MODEL 7
REMARK VINA RESULT:      -6.2      1.345      2.336
REMARK  Name = 
REMARK  23 active torsions:
REMARK  status: ('A' for Active; 'I' for Inactive)
REMARK    1  A    between atoms: C_1  and  C_2
REMARK    2  A    between atoms: C_3  and  O_62
REMARK    3  A    between atoms: C_5  and  O_61
REMARK    4  A    between atoms: C_6  and  O_60
REMARK    5  A    between atoms: C_8  and  O_11
REMARK    6  A    between atoms: O_11  and  C_12
REMARK    7  A    between atoms: C_13  and  O_38
REMARK    8  A    between atoms: C_16  and  C_22
REMARK    9  A    between atoms: C_17  and  O_21
REMARK   10  A    between atoms: C_19  and  O_20
REMARK   11  A    between atoms: C_22  and  O_23
REMARK   12  A    between atoms: O_23  and  C_24
REMARK   13  A    between atoms: C_26  and  O_37
REMARK   14  A    between atoms: C_27  and  O_36
REMARK   15  A    between atoms: C_29  and  O_35
REMARK   16  A    between atoms: C_31  and  C_33
REMARK   17  A    between atoms: C_33  and  O_34
REMARK   18  A    between atoms: O_38  and  C_39
REMARK   19  A    between atoms: C_40  and  C_52
REMARK   20  A    between atoms: C_44  and  O_51
REMARK   21  A    between atoms: C_46  and  O_50
REMARK   22  A    between atoms: C_54  and  O_59
REMARK   23  A    between atoms: C_55  and  O_58
REMARK                            x       y       z     vdW  Elec       q    Type
REMARK                         _______ _______ _______ _____ _____    ______ ____
ROOT
ATOM      1  C   UNL     1       4.366  -0.150  27.809  0.00  0.00    +0.221 C 
ATOM      2  C   UNL     1       2.839  -0.317  27.941  0.00  0.00    +0.180 C 
ATOM      3  C   UNL     1       2.461  -1.753  28.317  0.00  0.00    +0.177 C 
ATOM      4  C   UNL     1       3.146  -2.756  27.389  0.00  0.00    +0.179 C 
ATOM      5  O   UNL     1       4.569  -2.596  27.421  0.00  0.00    -0.331 OA
ATOM      6  C   UNL     1       5.046  -1.312  27.024  0.00  0.00    +0.340 C 
ENDROOT
BRANCH   3   7
ATOM      7  O   UNL     1       2.836  -2.047  29.668  0.00  0.00    -0.386 OA
ATOM      8  H   UNL     1       2.170  -1.639  30.258  0.00  0.00    +0.210 HD
ENDBRANCH   3   7
BRANCH   2   9
ATOM      9  O   UNL     1       2.133   0.063  26.751  0.00  0.00    -0.386 OA
ATOM     10  H   UNL     1       2.677   0.659  26.210  0.00  0.00    +0.210 HD
ENDBRANCH   2   9
BRANCH   6  11
ATOM     11  O   UNL     1       5.060  -1.071  25.605  0.00  0.00    -0.453 OA
BRANCH  11  12
ATOM     12  C   UNL     1       6.114  -0.282  25.114  0.00  0.00    +0.214 A 
ATOM     13  C   UNL     1       5.895   1.143  24.665  0.00  0.00    +0.238 A 
ATOM     14  O   UNL     1       4.765   1.600  24.519  0.00  0.00    -0.283 OA
ATOM     15  C   UNL     1       7.077   1.940  24.288  0.00  0.00    +0.109 A 
ATOM     16  C   UNL     1       8.308   1.299  24.281  0.00  0.00    +0.147 A 
ATOM     17  C   UNL     1       9.472   1.986  23.922  0.00  0.00    +0.092 A 
ATOM     18  C   UNL     1       9.388   3.325  23.535  0.00  0.00    +0.124 A 
ATOM     19  C   UNL     1       8.162   3.972  23.515  0.00  0.00    +0.091 A 
ATOM     20  O   UNL     1       8.458  -0.027  24.569  0.00  0.00    -0.451 OA
ATOM     21  C   UNL     1       7.008   3.284  23.887  0.00  0.00    +0.135 A 
ATOM     22  C   UNL     1       7.361  -0.788  24.953  0.00  0.00    +0.181 A 
BRANCH  22  23
ATOM     23  C   UNL     1       7.750  -2.224  25.133  0.00  0.00    +0.025 A 
ATOM     24  C   UNL     1       8.402  -2.634  26.321  0.00  0.00    +0.015 A 
ATOM     25  C   UNL     1       8.931  -3.921  26.466  0.00  0.00    +0.050 A 
ATOM     26  C   UNL     1       8.834  -4.810  25.413  0.00  0.00    +0.158 A 
ATOM     27  C   UNL     1       8.194  -4.437  24.237  0.00  0.00    +0.159 A 
ATOM     28  C   UNL     1       7.645  -3.163  24.093  0.00  0.00    +0.060 A 
BRANCH  27  29
ATOM     29  O   UNL     1       8.177  -5.345  23.213  0.00  0.00    -0.503 OA
ATOM     30  H   UNL     1       7.291  -5.745  23.175  0.00  0.00    +0.292 HD
ENDBRANCH  27  29
BRANCH  26  31
ATOM     31  O   UNL     1       9.419  -6.038  25.515  0.00  0.00    -0.503 OA
ATOM     32  H   UNL     1      10.290  -5.932  25.082  0.00  0.00    +0.292 HD
ENDBRANCH  26  31
ENDBRANCH  22  23
BRANCH  21  33
ATOM     33  O   UNL     1       5.813   3.945  23.841  0.00  0.00    -0.506 OA
ATOM     34  H   UNL     1       5.946   4.888  24.024  0.00  0.00    +0.292 HD
ENDBRANCH  21  33
BRANCH  18  35
ATOM     35  O   UNL     1      10.499   4.044  23.192  0.00  0.00    -0.507 OA
ATOM     36  H   UNL     1      10.217   4.840  22.709  0.00  0.00    +0.292 HD
ENDBRANCH  18  35
ENDBRANCH  11  12
ENDBRANCH   6  11
BRANCH   4  37
ATOM     37  C   UNL     1       2.621  -2.698  25.956  0.00  0.00    +0.197 C 
BRANCH  37  38
ATOM     38  O   UNL     1       2.979  -3.839  25.174  0.00  0.00    -0.346 OA
BRANCH  38  39
ATOM     39  C   UNL     1       2.101  -4.965  25.242  0.00  0.00    +0.282 C 
ATOM     40  O   UNL     1       2.438  -5.731  26.409  0.00  0.00    -0.341 OA
ATOM     41  C   UNL     1       3.803  -6.172  26.401  0.00  0.00    +0.178 C 
ATOM     42  C   UNL     1       4.132  -7.033  25.158  0.00  0.00    +0.177 C 
ATOM     43  C   UNL     1       3.678  -6.345  23.869  0.00  0.00    +0.179 C 
ATOM     44  C   UNL     1       2.217  -5.875  24.006  0.00  0.00    +0.201 C 
BRANCH  43  45
ATOM     45  O   UNL     1       4.561  -5.269  23.517  0.00  0.00    -0.386 OA
ATOM     46  H   UNL     1       4.329  -4.484  24.052  0.00  0.00    +0.210 HD
ENDBRANCH  43  45
BRANCH  44  47
ATOM     47  O   UNL     1       1.757  -5.252  22.800  0.00  0.00    -0.384 OA
ATOM     48  H   UNL     1       2.519  -5.204  22.190  0.00  0.00    +0.210 HD
ENDBRANCH  44  47
BRANCH  42  49
ATOM     49  O   UNL     1       3.489  -8.309  25.267  0.00  0.00    -0.386 OA
ATOM     50  H   UNL     1       2.608  -8.174  25.659  0.00  0.00    +0.210 HD
ENDBRANCH  42  49
BRANCH  41  51
ATOM     51  C   UNL     1       4.092  -6.908  27.712  0.00  0.00    +0.190 C 
BRANCH  51  52
ATOM     52  O   UNL     1       2.907  -7.503  28.235  0.00  0.00    -0.392 OA
ATOM     53  H   UNL     1       2.183  -7.278  27.624  0.00  0.00    +0.210 HD
ENDBRANCH  51  52
ENDBRANCH  41  51
ENDBRANCH  38  39
ENDBRANCH  37  38
ENDBRANCH   4  37
BRANCH   1  54
ATOM     54  O   UNL     1       4.887  -0.058  29.155  0.00  0.00    -0.337 OA
BRANCH  54  58
ATOM     55  C   UNL     1       4.278   4.043  29.983  0.00  0.00    +0.041 C 
ATOM     56  C   UNL     1       5.241   3.556  28.897  0.00  0.00    +0.149 C 
ATOM     57  O   UNL     1       4.988   2.187  28.536  0.00  0.00    -0.343 OA
ATOM     58  C   UNL     1       5.309   1.247  29.567  0.00  0.00    +0.282 C 
ATOM     59  C   UNL     1       6.811   1.310  29.919  0.00  0.00    +0.201 C 
ATOM     60  C   UNL     1       7.181   2.734  30.319  0.00  0.00    +0.179 C 
ATOM     61  C   UNL     1       6.722   3.748  29.266  0.00  0.00    +0.174 C 
BRANCH  61  62
ATOM     62  O   UNL     1       7.541   3.555  28.095  0.00  0.00    -0.387 OA
ATOM     63  H   UNL     1       6.923   3.533  27.328  0.00  0.00    +0.210 HD
ENDBRANCH  61  62
BRANCH  60  64
ATOM     64  O   UNL     1       8.604   2.800  30.485  0.00  0.00    -0.386 OA
ATOM     65  H   UNL     1       8.855   1.944  30.891  0.00  0.00    +0.210 HD
ENDBRANCH  60  64
BRANCH  59  66
ATOM     66  O   UNL     1       7.603   0.879  28.795  0.00  0.00    -0.384 OA
ATOM     67  H   UNL     1       7.089   1.105  27.997  0.00  0.00    +0.210 HD
ENDBRANCH  59  66
ENDBRANCH  54  58
ENDBRANCH   1  54
TORSDOF 22
ENDMDL
MODEL 8
REMARK VINA RESULT:      -6.2      2.095      8.466
REMARK  Name = 
REMARK  23 active torsions:
REMARK  status: ('A' for Active; 'I' for Inactive)
REMARK    1  A    between atoms: C_1  and  C_2
REMARK    2  A    between atoms: C_3  and  O_62
REMARK    3  A    between atoms: C_5  and  O_61
REMARK    4  A    between atoms: C_6  and  O_60
REMARK    5  A    between atoms: C_8  and  O_11
REMARK    6  A    between atoms: O_11  and  C_12
REMARK    7  A    between atoms: C_13  and  O_38
REMARK    8  A    between atoms: C_16  and  C_22
REMARK    9  A    between atoms: C_17  and  O_21
REMARK   10  A    between atoms: C_19  and  O_20
REMARK   11  A    between atoms: C_22  and  O_23
REMARK   12  A    between atoms: O_23  and  C_24
REMARK   13  A    between atoms: C_26  and  O_37
REMARK   14  A    between atoms: C_27  and  O_36
REMARK   15  A    between atoms: C_29  and  O_35
REMARK   16  A    between atoms: C_31  and  C_33
REMARK   17  A    between atoms: C_33  and  O_34
REMARK   18  A    between atoms: O_38  and  C_39
REMARK   19  A    between atoms: C_40  and  C_52
REMARK   20  A    between atoms: C_44  and  O_51
REMARK   21  A    between atoms: C_46  and  O_50
REMARK   22  A    between atoms: C_54  and  O_59
REMARK   23  A    between atoms: C_55  and  O_58
REMARK                            x       y       z     vdW  Elec       q    Type
REMARK                         _______ _______ _______ _____ _____    ______ ____
ROOT
ATOM      1  C   UNL     1       5.092  -2.955  24.220  0.00  0.00    +0.221 C 
ATOM      2  C   UNL     1       5.939  -2.245  23.143  0.00  0.00    +0.180 C 
ATOM      3  C   UNL     1       7.141  -3.094  22.723  0.00  0.00    +0.177 C 
ATOM      4  C   UNL     1       7.920  -3.577  23.948  0.00  0.00    +0.179 C 
ATOM      5  O   UNL     1       7.075  -4.322  24.831  0.00  0.00    -0.331 OA
ATOM      6  C   UNL     1       5.951  -3.609  25.344  0.00  0.00    +0.340 C 
ENDROOT
BRANCH   3   7
ATOM      7  O   UNL     1       6.726  -4.236  21.964  0.00  0.00    -0.386 OA
ATOM      8  H   UNL     1       7.274  -4.271  21.155  0.00  0.00    +0.210 HD
ENDBRANCH   3   7
BRANCH   2   9
ATOM      9  O   UNL     1       6.394  -0.950  23.560  0.00  0.00    -0.386 OA
ATOM     10  H   UNL     1       7.321  -0.993  23.846  0.00  0.00    +0.210 HD
ENDBRANCH   2   9
BRANCH   6  11
ATOM     11  O   UNL     1       6.239  -2.687  26.410  0.00  0.00    -0.453 OA
BRANCH  11  12
ATOM     12  C   UNL     1       5.178  -1.869  26.835  0.00  0.00    +0.214 A 
ATOM     13  C   UNL     1       5.134  -0.396  26.508  0.00  0.00    +0.238 A 
ATOM     14  O   UNL     1       6.108   0.185  26.041  0.00  0.00    -0.283 OA
ATOM     15  C   UNL     1       3.922   0.359  26.879  0.00  0.00    +0.109 A 
ATOM     16  C   UNL     1       2.938  -0.313  27.589  0.00  0.00    +0.147 A 
ATOM     17  C   UNL     1       1.767   0.340  27.986  0.00  0.00    +0.092 A 
ATOM     18  C   UNL     1       1.602   1.695  27.692  0.00  0.00    +0.124 A 
ATOM     19  C   UNL     1       2.587   2.387  27.004  0.00  0.00    +0.091 A 
ATOM     20  O   UNL     1       3.062  -1.615  27.982  0.00  0.00    -0.451 OA
ATOM     21  C   UNL     1       3.745   1.725  26.599  0.00  0.00    +0.135 A 
ATOM     22  C   UNL     1       4.183  -2.351  27.619  0.00  0.00    +0.181 A 
BRANCH  22  23
ATOM     23  C   UNL     1       4.140  -3.717  28.233  0.00  0.00    +0.025 A 
ATOM     24  C   UNL     1       2.917  -4.429  28.283  0.00  0.00    +0.015 A 
ATOM     25  C   UNL     1       2.790  -5.630  28.989  0.00  0.00    +0.050 A 
ATOM     26  C   UNL     1       3.883  -6.125  29.674  0.00  0.00    +0.158 A 
ATOM     27  C   UNL     1       5.097  -5.452  29.638  0.00  0.00    +0.159 A 
ATOM     28  C   UNL     1       5.237  -4.265  28.918  0.00  0.00    +0.060 A 
BRANCH  27  29
ATOM     29  O   UNL     1       6.126  -5.965  30.380  0.00  0.00    -0.503 OA
ATOM     30  H   UNL     1       6.080  -6.936  30.333  0.00  0.00    +0.292 HD
ENDBRANCH  27  29
BRANCH  26  31
ATOM     31  O   UNL     1       3.746  -7.251  30.433  0.00  0.00    -0.503 OA
ATOM     32  H   UNL     1       4.604  -7.345  30.892  0.00  0.00    +0.292 HD
ENDBRANCH  26  31
ENDBRANCH  22  23
BRANCH  21  33
ATOM     33  O   UNL     1       4.705   2.437  25.936  0.00  0.00    -0.506 OA
ATOM     34  H   UNL     1       5.462   1.867  25.730  0.00  0.00    +0.292 HD
ENDBRANCH  21  33
BRANCH  18  35
ATOM     35  O   UNL     1       0.468   2.373  28.044  0.00  0.00    -0.507 OA
ATOM     36  H   UNL     1      -0.249   2.116  27.439  0.00  0.00    +0.292 HD
ENDBRANCH  18  35
ENDBRANCH  11  12
ENDBRANCH   6  11
BRANCH   4  37
ATOM     37  C   UNL     1       8.627  -2.444  24.689  0.00  0.00    +0.197 C 
BRANCH  37  38
ATOM     38  O   UNL     1       8.776  -1.259  23.905  0.00  0.00    -0.346 OA
BRANCH  38  39
ATOM     39  C   UNL     1      10.042  -0.598  23.977  0.00  0.00    +0.282 C 
ATOM     40  O   UNL     1       9.858   0.658  24.650  0.00  0.00    -0.341 OA
ATOM     41  C   UNL     1       8.901   1.499  23.989  0.00  0.00    +0.178 C 
ATOM     42  C   UNL     1       9.298   1.799  22.525  0.00  0.00    +0.177 C 
ATOM     43  C   UNL     1       9.646   0.515  21.768  0.00  0.00    +0.179 C 
ATOM     44  C   UNL     1      10.642  -0.328  22.586  0.00  0.00    +0.201 C 
BRANCH  43  45
ATOM     45  O   UNL     1       8.462  -0.223  21.431  0.00  0.00    -0.386 OA
ATOM     46  H   UNL     1       7.987  -0.448  22.255  0.00  0.00    +0.210 HD
ENDBRANCH  43  45
BRANCH  44  47
ATOM     47  O   UNL     1      11.007  -1.524  21.885  0.00  0.00    -0.384 OA
ATOM     48  H   UNL     1      10.659  -2.278  22.399  0.00  0.00    +0.210 HD
ENDBRANCH  44  47
BRANCH  42  49
ATOM     49  O   UNL     1      10.425   2.685  22.499  0.00  0.00    -0.386 OA
ATOM     50  H   UNL     1      10.184   3.500  22.975  0.00  0.00    +0.210 HD
ENDBRANCH  42  49
BRANCH  41  51
ATOM     51  C   UNL     1       8.713   2.774  24.816  0.00  0.00    +0.190 C 
BRANCH  51  52
ATOM     52  O   UNL     1       7.931   2.518  25.979  0.00  0.00    -0.392 OA
ATOM     53  H   UNL     1       7.918   1.553  26.106  0.00  0.00    +0.210 HD
ENDBRANCH  51  52
ENDBRANCH  41  51
ENDBRANCH  38  39
ENDBRANCH  37  38
ENDBRANCH   4  37
BRANCH   1  54
ATOM     54  O   UNL     1       4.298  -3.947  23.529  0.00  0.00    -0.337 OA
BRANCH  54  58
ATOM     55  C   UNL     1       4.743  -7.078  26.335  0.00  0.00    +0.041 C 
ATOM     56  C   UNL     1       4.278  -7.320  24.897  0.00  0.00    +0.149 C 
ATOM     57  O   UNL     1       4.580  -6.203  24.043  0.00  0.00    -0.343 OA
ATOM     58  C   UNL     1       3.818  -5.027  24.338  0.00  0.00    +0.282 C 
ATOM     59  C   UNL     1       2.308  -5.291  24.152  0.00  0.00    +0.201 C 
ATOM     60  C   UNL     1       1.886  -6.469  25.024  0.00  0.00    +0.179 C 
ATOM     61  C   UNL     1       2.788  -7.687  24.792  0.00  0.00    +0.174 C 
BRANCH  61  62
ATOM     62  O   UNL     1       2.504  -8.189  23.472  0.00  0.00    -0.387 OA
ATOM     63  H   UNL     1       3.355  -8.544  23.124  0.00  0.00    +0.210 HD
ENDBRANCH  61  62
BRANCH  60  64
ATOM     64  O   UNL     1       0.524  -6.794  24.714  0.00  0.00    -0.386 OA
ATOM     65  H   UNL     1       0.337  -7.619  25.211  0.00  0.00    +0.210 HD
ENDBRANCH  60  64
BRANCH  59  66
ATOM     66  O   UNL     1       2.017  -5.559  22.766  0.00  0.00    -0.384 OA
ATOM     67  H   UNL     1       1.768  -4.704  22.370  0.00  0.00    +0.210 HD
ENDBRANCH  59  66
ENDBRANCH  54  58
ENDBRANCH   1  54
TORSDOF 22
ENDMDL
MODEL 9
REMARK VINA RESULT:      -5.9      2.285      8.107
REMARK  Name = 
REMARK  23 active torsions:
REMARK  status: ('A' for Active; 'I' for Inactive)
REMARK    1  A    between atoms: C_1  and  C_2
REMARK    2  A    between atoms: C_3  and  O_62
REMARK    3  A    between atoms: C_5  and  O_61
REMARK    4  A    between atoms: C_6  and  O_60
REMARK    5  A    between atoms: C_8  and  O_11
REMARK    6  A    between atoms: O_11  and  C_12
REMARK    7  A    between atoms: C_13  and  O_38
REMARK    8  A    between atoms: C_16  and  C_22
REMARK    9  A    between atoms: C_17  and  O_21
REMARK   10  A    between atoms: C_19  and  O_20
REMARK   11  A    between atoms: C_22  and  O_23
REMARK   12  A    between atoms: O_23  and  C_24
REMARK   13  A    between atoms: C_26  and  O_37
REMARK   14  A    between atoms: C_27  and  O_36
REMARK   15  A    between atoms: C_29  and  O_35
REMARK   16  A    between atoms: C_31  and  C_33
REMARK   17  A    between atoms: C_33  and  O_34
REMARK   18  A    between atoms: O_38  and  C_39
REMARK   19  A    between atoms: C_40  and  C_52
REMARK   20  A    between atoms: C_44  and  O_51
REMARK   21  A    between atoms: C_46  and  O_50
REMARK   22  A    between atoms: C_54  and  O_59
REMARK   23  A    between atoms: C_55  and  O_58
REMARK                            x       y       z     vdW  Elec       q    Type
REMARK                         _______ _______ _______ _____ _____    ______ ____
ROOT
ATOM      1  C   UNL     1       6.272  -1.009  26.908  0.00  0.00    +0.221 C 
ATOM      2  C   UNL     1       7.389  -0.192  27.589  0.00  0.00    +0.180 C 
ATOM      3  C   UNL     1       6.850   1.110  28.187  0.00  0.00    +0.177 C 
ATOM      4  C   UNL     1       6.021   1.878  27.156  0.00  0.00    +0.179 C 
ATOM      5  O   UNL     1       4.941   1.075  26.667  0.00  0.00    -0.331 OA
ATOM      6  C   UNL     1       5.327  -0.139  26.026  0.00  0.00    +0.340 C 
ENDROOT
BRANCH   3   7
ATOM      7  O   UNL     1       6.032   0.850  29.334  0.00  0.00    -0.386 OA
ATOM      8  H   UNL     1       5.306   0.257  29.054  0.00  0.00    +0.210 HD
ENDBRANCH   3   7
BRANCH   2   9
ATOM      9  O   UNL     1       8.478   0.107  26.703  0.00  0.00    -0.386 OA
ATOM     10  H   UNL     1       8.486   1.053  26.484  0.00  0.00    +0.210 HD
ENDBRANCH   2   9
BRANCH   6  11
ATOM     11  O   UNL     1       5.820   0.003  24.682  0.00  0.00    -0.453 OA
BRANCH  11  12
ATOM     12  C   UNL     1       6.064  -1.188  23.975  0.00  0.00    +0.214 A 
ATOM     13  C   UNL     1       5.114  -2.360  24.046  0.00  0.00    +0.238 A 
ATOM     14  O   UNL     1       4.209  -2.399  24.873  0.00  0.00    -0.283 OA
ATOM     15  C   UNL     1       5.379  -3.518  23.173  0.00  0.00    +0.109 A 
ATOM     16  C   UNL     1       6.537  -3.496  22.409  0.00  0.00    +0.147 A 
ATOM     17  C   UNL     1       6.861  -4.564  21.566  0.00  0.00    +0.092 A 
ATOM     18  C   UNL     1       6.024  -5.681  21.519  0.00  0.00    +0.124 A 
ATOM     19  C   UNL     1       4.875  -5.728  22.294  0.00  0.00    +0.091 A 
ATOM     20  O   UNL     1       7.444  -2.477  22.461  0.00  0.00    -0.451 OA
ATOM     21  C   UNL     1       4.552  -4.653  23.121  0.00  0.00    +0.135 A 
ATOM     22  C   UNL     1       7.199  -1.364  23.257  0.00  0.00    +0.181 A 
BRANCH  22  23
ATOM     23  C   UNL     1       8.365  -0.423  23.222  0.00  0.00    +0.025 A 
ATOM     24  C   UNL     1       9.546  -0.737  23.935  0.00  0.00    +0.015 A 
ATOM     25  C   UNL     1      10.595   0.181  24.069  0.00  0.00    +0.050 A 
ATOM     26  C   UNL     1      10.464   1.435  23.505  0.00  0.00    +0.158 A 
ATOM     27  C   UNL     1       9.319   1.769  22.794  0.00  0.00    +0.159 A 
ATOM     28  C   UNL     1       8.279   0.853  22.638  0.00  0.00    +0.060 A 
BRANCH  27  29
ATOM     29  O   UNL     1       9.229   3.045  22.305  0.00  0.00    -0.503 OA
ATOM     30  H   UNL     1       8.430   3.457  22.676  0.00  0.00    +0.292 HD
ENDBRANCH  27  29
BRANCH  26  31
ATOM     31  O   UNL     1      11.445   2.363  23.701  0.00  0.00    -0.503 OA
ATOM     32  H   UNL     1      12.252   1.836  23.870  0.00  0.00    +0.292 HD
ENDBRANCH  26  31
ENDBRANCH  22  23
BRANCH  21  33
ATOM     33  O   UNL     1       3.422  -4.736  23.885  0.00  0.00    -0.506 OA
ATOM     34  H   UNL     1       2.658  -4.950  23.328  0.00  0.00    +0.292 HD
ENDBRANCH  21  33
BRANCH  18  35
ATOM     35  O   UNL     1       6.289  -6.742  20.699  0.00  0.00    -0.507 OA
ATOM     36  H   UNL     1       7.090  -6.545  20.183  0.00  0.00    +0.292 HD
ENDBRANCH  18  35
ENDBRANCH  11  12
ENDBRANCH   6  11
BRANCH   4  37
ATOM     37  C   UNL     1       6.861   2.428  26.006  0.00  0.00    +0.197 C 
BRANCH  37  38
ATOM     38  O   UNL     1       6.213   3.476  25.282  0.00  0.00    -0.346 OA
BRANCH  38  39
ATOM     39  C   UNL     1       5.987   3.249  23.889  0.00  0.00    +0.282 C 
ATOM     40  O   UNL     1       6.715   4.239  23.145  0.00  0.00    -0.341 OA
ATOM     41  C   UNL     1       6.333   5.577  23.493  0.00  0.00    +0.178 C 
ATOM     42  C   UNL     1       4.824   5.831  23.268  0.00  0.00    +0.177 C 
ATOM     43  C   UNL     1       3.973   4.737  23.918  0.00  0.00    +0.179 C 
ATOM     44  C   UNL     1       4.498   3.347  23.513  0.00  0.00    +0.201 C 
BRANCH  43  45
ATOM     45  O   UNL     1       3.920   4.900  25.343  0.00  0.00    -0.386 OA
ATOM     46  H   UNL     1       3.390   5.696  25.549  0.00  0.00    +0.210 HD
ENDBRANCH  43  45
BRANCH  44  47
ATOM     47  O   UNL     1       3.700   2.304  24.085  0.00  0.00    -0.384 OA
ATOM     48  H   UNL     1       4.237   1.488  24.070  0.00  0.00    +0.210 HD
ENDBRANCH  44  47
BRANCH  42  49
ATOM     49  O   UNL     1       4.542   5.880  21.864  0.00  0.00    -0.386 OA
ATOM     50  H   UNL     1       3.656   6.265  21.744  0.00  0.00    +0.210 HD
ENDBRANCH  42  49
BRANCH  41  51
ATOM     51  C   UNL     1       7.211   6.560  22.713  0.00  0.00    +0.190 C 
BRANCH  51  52
ATOM     52  O   UNL     1       7.494   6.065  21.407  0.00  0.00    -0.392 OA
ATOM     53  H   UNL     1       6.739   6.306  20.842  0.00  0.00    +0.210 HD
ENDBRANCH  51  52
ENDBRANCH  41  51
ENDBRANCH  38  39
ENDBRANCH  37  38
ENDBRANCH   4  37
BRANCH   1  54
ATOM     54  O   UNL     1       5.537  -1.663  27.968  0.00  0.00    -0.337 OA
BRANCH  54  58
ATOM     55  C   UNL     1       3.092  -5.086  28.392  0.00  0.00    +0.041 C 
ATOM     56  C   UNL     1       4.548  -5.050  28.863  0.00  0.00    +0.149 C 
ATOM     57  O   UNL     1       5.037  -3.702  28.980  0.00  0.00    -0.343 OA
ATOM     58  C   UNL     1       5.185  -3.030  27.724  0.00  0.00    +0.282 C 
ATOM     59  C   UNL     1       6.205  -3.762  26.826  0.00  0.00    +0.201 C 
ATOM     60  C   UNL     1       5.770  -5.213  26.641  0.00  0.00    +0.179 C 
ATOM     61  C   UNL     1       5.493  -5.889  27.988  0.00  0.00    +0.174 C 
BRANCH  61  62
ATOM     62  O   UNL     1       6.759  -6.050  28.658  0.00  0.00    -0.387 OA
ATOM     63  H   UNL     1       6.862  -5.266  29.244  0.00  0.00    +0.210 HD
ENDBRANCH  61  62
BRANCH  60  64
ATOM     64  O   UNL     1       6.810  -5.909  25.940  0.00  0.00    -0.386 OA
ATOM     65  H   UNL     1       6.988  -6.711  26.475  0.00  0.00    +0.210 HD
ENDBRANCH  60  64
BRANCH  59  66
ATOM     66  O   UNL     1       7.519  -3.700  27.413  0.00  0.00    -0.384 OA
ATOM     67  H   UNL     1       7.469  -4.202  28.247  0.00  0.00    +0.210 HD
ENDBRANCH  59  66
ENDBRANCH  54  58
ENDBRANCH   1  54
TORSDOF 22
ENDMDL
