MODEL 1
REMARK VINA RESULT:      -7.8      0.000      0.000
REMARK  Name = 
REMARK  12 active torsions:
REMARK  status: ('A' for Active; 'I' for Inactive)
REMARK    1  A    between atoms: C_4  and  C_7
REMARK    2  A    between atoms: C_7  and  C_37
REMARK    3  A    between atoms: C_13  and  C_16
REMARK    4  A    between atoms: C_17  and  O_29
REMARK    5  A    between atoms: C_21  and  O_28
REMARK    6  A    between atoms: C_23  and  O_27
REMARK    7  A    between atoms: O_29  and  C_30
REMARK    8  A    between atoms: C_30  and  C_31
REMARK    9  A    between atoms: C_31  and  C_32
REMARK   10  A    between atoms: C_32  and  C_33
REMARK   11  A    between atoms: C_33  and  C_34
REMARK   12  A    between atoms: C_34  and  C_35
REMARK                            x       y       z     vdW  Elec       q    Type
REMARK                         _______ _______ _______ _____ _____    ______ ____
ROOT
ATOM      1  C   UNL     1       7.619  -0.914  23.013  0.00  0.00    +0.181 A 
ATOM      2  O   UNL     1       6.502  -1.725  22.816  0.00  0.00    -0.451 OA
ATOM      3  C   UNL     1       6.623  -3.083  22.901  0.00  0.00    +0.147 A 
ATOM      4  C   UNL     1       7.776  -3.701  23.353  0.00  0.00    +0.109 A 
ATOM      5  C   UNL     1       7.819  -5.095  23.486  0.00  0.00    +0.135 A 
ATOM      6  C   UNL     1       6.715  -5.872  23.131  0.00  0.00    +0.091 A 
ATOM      7  C   UNL     1       5.577  -5.244  22.644  0.00  0.00    +0.124 A 
ATOM      8  C   UNL     1       8.930  -2.856  23.668  0.00  0.00    +0.238 A 
ATOM      9  O   UNL     1       9.947  -3.384  24.114  0.00  0.00    -0.283 OA
ATOM     10  C   UNL     1       5.518  -3.856  22.525  0.00  0.00    +0.092 A 
ATOM     11  C   UNL     1       8.833  -1.381  23.397  0.00  0.00    +0.211 A 
ENDROOT
BRANCH   1  16
ATOM     12  C   UNL     1       6.141   4.745  23.574  0.00  0.00    +0.308 C 
ATOM     13  O   UNL     1       5.859   3.454  24.191  0.00  0.00    -0.440 OA
ATOM     14  C   UNL     1       6.388   2.579  23.292  0.00  0.00    +0.168 A 
ATOM     15  C   UNL     1       6.434   1.209  23.450  0.00  0.00    +0.061 A 
ATOM     16  C   UNL     1       7.268   0.466  22.601  0.00  0.00    +0.025 A 
ATOM     17  C   UNL     1       7.956   1.134  21.560  0.00  0.00    +0.015 A 
ATOM     18  C   UNL     1       7.783   2.517  21.347  0.00  0.00    +0.050 A 
ATOM     19  C   UNL     1       6.992   3.217  22.239  0.00  0.00    +0.168 A 
ATOM     20  O   UNL     1       6.747   4.558  22.253  0.00  0.00    -0.440 OA
BRANCH  12  24
ATOM     21  C   UNL     1       9.262   6.777  25.851  0.00  0.00    +0.000 A 
ATOM     22  C   UNL     1       9.054   7.108  24.514  0.00  0.00    +0.001 A 
ATOM     23  C   UNL     1       7.972   6.561  23.815  0.00  0.00    +0.011 A 
ATOM     24  C   UNL     1       7.119   5.618  24.417  0.00  0.00    +0.041 A 
ATOM     25  C   UNL     1       7.319   5.341  25.787  0.00  0.00    +0.011 A 
ATOM     26  C   UNL     1       8.374   5.922  26.496  0.00  0.00    +0.001 A 
ENDBRANCH  12  24
BRANCH  12  27
ATOM     27  C   UNL     1       4.770   5.461  23.540  0.00  0.00    +0.041 A 
ATOM     28  C   UNL     1       3.892   5.307  24.641  0.00  0.00    +0.011 A 
ATOM     29  C   UNL     1       2.690   6.005  24.731  0.00  0.00    +0.001 A 
ATOM     30  C   UNL     1       2.311   6.839  23.694  0.00  0.00    +0.000 A 
ATOM     31  C   UNL     1       3.127   6.963  22.566  0.00  0.00    +0.001 A 
ATOM     32  C   UNL     1       4.352   6.283  22.488  0.00  0.00    +0.011 A 
ENDBRANCH  12  27
ENDBRANCH   1  16
BRANCH   5  33
ATOM     33  O   UNL     1       8.917  -5.769  23.945  0.00  0.00    -0.506 OA
ATOM     34  H   UNL     1       9.467  -6.018  23.166  0.00  0.00    +0.292 HD
ENDBRANCH   5  33
BRANCH   7  35
ATOM     35  O   UNL     1       4.484  -5.967  22.276  0.00  0.00    -0.507 OA
ATOM     36  H   UNL     1       4.171  -6.488  23.039  0.00  0.00    +0.292 HD
ENDBRANCH   7  35
BRANCH  11  37
ATOM     37  O   UNL     1      10.036  -0.730  23.488  0.00  0.00    -0.485 OA
BRANCH  37  38
ATOM     38  C   UNL     1      10.354   0.059  24.625  0.00  0.00    +0.229 C 
BRANCH  38  39
ATOM     39  C   UNL     1      10.856   1.433  24.146  0.00  0.00    +0.041 C 
BRANCH  39  40
ATOM     40  C   UNL     1       9.834   2.546  24.423  0.00  0.00    +0.003 C 
BRANCH  40  41
ATOM     41  C   UNL     1      10.177   3.865  23.716  0.00  0.00    +0.001 C 
BRANCH  41  42
ATOM     42  C   UNL     1      11.662   3.889  23.331  0.00  0.00    +0.016 C 
BRANCH  42  43
ATOM     43  C   UNL     1      12.319   5.262  23.439  0.00  0.00    +0.108 C 
ATOM     44 CL   UNL     1      13.364   5.621  22.045  0.00  0.00    -0.125 Cl
ENDBRANCH  42  43
ENDBRANCH  41  42
ENDBRANCH  40  41
ENDBRANCH  39  40
ENDBRANCH  38  39
ENDBRANCH  37  38
ENDBRANCH  11  37
TORSDOF 12
ENDMDL
MODEL 2
REMARK VINA RESULT:      -7.1      4.013      9.345
REMARK  Name = 
REMARK  12 active torsions:
REMARK  status: ('A' for Active; 'I' for Inactive)
REMARK    1  A    between atoms: C_4  and  C_7
REMARK    2  A    between atoms: C_7  and  C_37
REMARK    3  A    between atoms: C_13  and  C_16
REMARK    4  A    between atoms: C_17  and  O_29
REMARK    5  A    between atoms: C_21  and  O_28
REMARK    6  A    between atoms: C_23  and  O_27
REMARK    7  A    between atoms: O_29  and  C_30
REMARK    8  A    between atoms: C_30  and  C_31
REMARK    9  A    between atoms: C_31  and  C_32
REMARK   10  A    between atoms: C_32  and  C_33
REMARK   11  A    between atoms: C_33  and  C_34
REMARK   12  A    between atoms: C_34  and  C_35
REMARK                            x       y       z     vdW  Elec       q    Type
REMARK                         _______ _______ _______ _____ _____    ______ ____
ROOT
ATOM      1  C   UNL     1       8.472   0.784  25.083  0.00  0.00    +0.181 A 
ATOM      2  O   UNL     1       7.842   1.869  25.693  0.00  0.00    -0.451 OA
ATOM      3  C   UNL     1       8.236   3.142  25.394  0.00  0.00    +0.147 A 
ATOM      4  C   UNL     1       9.124   3.425  24.371  0.00  0.00    +0.109 A 
ATOM      5  C   UNL     1       9.438   4.756  24.064  0.00  0.00    +0.135 A 
ATOM      6  C   UNL     1       8.889   5.800  24.808  0.00  0.00    +0.091 A 
ATOM      7  C   UNL     1       8.028   5.502  25.856  0.00  0.00    +0.124 A 
ATOM      8  C   UNL     1       9.718   2.300  23.645  0.00  0.00    +0.238 A 
ATOM      9  O   UNL     1      10.472   2.535  22.703  0.00  0.00    -0.283 OA
ATOM     10  C   UNL     1       7.696   4.183  26.158  0.00  0.00    +0.092 A 
ATOM     11  C   UNL     1       9.407   0.905  24.108  0.00  0.00    +0.211 A 
ENDROOT
BRANCH   1  16
ATOM     12  C   UNL     1       5.053  -3.777  26.507  0.00  0.00    +0.308 C 
ATOM     13  O   UNL     1       4.939  -2.363  26.165  0.00  0.00    -0.440 OA
ATOM     14  C   UNL     1       6.230  -1.939  26.246  0.00  0.00    +0.168 A 
ATOM     15  C   UNL     1       6.667  -0.665  25.945  0.00  0.00    +0.061 A 
ATOM     16  C   UNL     1       8.044  -0.452  25.779  0.00  0.00    +0.025 A 
ATOM     17  C   UNL     1       8.936  -1.525  26.018  0.00  0.00    +0.015 A 
ATOM     18  C   UNL     1       8.462  -2.780  26.451  0.00  0.00    +0.050 A 
ATOM     19  C   UNL     1       7.095  -2.958  26.550  0.00  0.00    +0.168 A 
ATOM     20  O   UNL     1       6.431  -4.101  26.886  0.00  0.00    -0.440 OA
BRANCH  12  24
ATOM     21  C   UNL     1       3.446  -6.473  23.473  0.00  0.00    +0.000 A 
ATOM     22  C   UNL     1       3.385  -5.096  23.277  0.00  0.00    +0.001 A 
ATOM     23  C   UNL     1       4.015  -4.228  24.177  0.00  0.00    +0.011 A 
ATOM     24  C   UNL     1       4.658  -4.718  25.330  0.00  0.00    +0.041 A 
ATOM     25  C   UNL     1       4.752  -6.119  25.476  0.00  0.00    +0.011 A 
ATOM     26  C   UNL     1       4.160  -6.985  24.553  0.00  0.00    +0.001 A 
ENDBRANCH  12  24
BRANCH  12  27
ATOM     27  C   UNL     1       4.025  -3.979  27.645  0.00  0.00    +0.041 A 
ATOM     28  C   UNL     1       4.483  -4.443  28.904  0.00  0.00    +0.011 A 
ATOM     29  C   UNL     1       3.637  -4.545  30.006  0.00  0.00    +0.001 A 
ATOM     30  C   UNL     1       2.296  -4.234  29.863  0.00  0.00    +0.000 A 
ATOM     31  C   UNL     1       1.803  -3.834  28.618  0.00  0.00    +0.001 A 
ATOM     32  C   UNL     1       2.660  -3.701  27.515  0.00  0.00    +0.011 A 
ENDBRANCH  12  27
ENDBRANCH   1  16
BRANCH   5  33
ATOM     33  O   UNL     1      10.290   5.108  23.053  0.00  0.00    -0.506 OA
ATOM     34  H   UNL     1       9.839   4.919  22.197  0.00  0.00    +0.292 HD
ENDBRANCH   5  33
BRANCH   7  35
ATOM     35  O   UNL     1       7.481   6.492  26.613  0.00  0.00    -0.507 OA
ATOM     36  H   UNL     1       6.509   6.439  26.559  0.00  0.00    +0.292 HD
ENDBRANCH   7  35
BRANCH  11  37
ATOM     37  O   UNL     1      10.201  -0.051  23.529  0.00  0.00    -0.485 OA
BRANCH  37  38
ATOM     38  C   UNL     1       9.857  -0.624  22.276  0.00  0.00    +0.229 C 
BRANCH  38  39
ATOM     39  C   UNL     1       9.138  -1.962  22.528  0.00  0.00    +0.041 C 
BRANCH  39  40
ATOM     40  C   UNL     1       7.610  -1.811  22.476  0.00  0.00    +0.003 C 
BRANCH  40  41
ATOM     41  C   UNL     1       6.880  -3.152  22.312  0.00  0.00    +0.001 C 
BRANCH  41  42
ATOM     42  C   UNL     1       7.644  -4.264  23.044  0.00  0.00    +0.016 C 
BRANCH  42  43
ATOM     43  C   UNL     1       7.195  -5.677  22.686  0.00  0.00    +0.108 C 
ATOM     44 CL   UNL     1       6.317  -5.734  21.140  0.00  0.00    -0.125 Cl
ENDBRANCH  42  43
ENDBRANCH  41  42
ENDBRANCH  40  41
ENDBRANCH  39  40
ENDBRANCH  38  39
ENDBRANCH  37  38
ENDBRANCH  11  37
TORSDOF 12
ENDMDL
MODEL 3
REMARK VINA RESULT:      -6.9      1.790      3.853
REMARK  Name = 
REMARK  12 active torsions:
REMARK  status: ('A' for Active; 'I' for Inactive)
REMARK    1  A    between atoms: C_4  and  C_7
REMARK    2  A    between atoms: C_7  and  C_37
REMARK    3  A    between atoms: C_13  and  C_16
REMARK    4  A    between atoms: C_17  and  O_29
REMARK    5  A    between atoms: C_21  and  O_28
REMARK    6  A    between atoms: C_23  and  O_27
REMARK    7  A    between atoms: O_29  and  C_30
REMARK    8  A    between atoms: C_30  and  C_31
REMARK    9  A    between atoms: C_31  and  C_32
REMARK   10  A    between atoms: C_32  and  C_33
REMARK   11  A    between atoms: C_33  and  C_34
REMARK   12  A    between atoms: C_34  and  C_35
REMARK                            x       y       z     vdW  Elec       q    Type
REMARK                         _______ _______ _______ _____ _____    ______ ____
ROOT
ATOM      1  C   UNL     1       6.166  -1.971  24.098  0.00  0.00    +0.181 A 
ATOM      2  O   UNL     1       4.989  -2.544  24.581  0.00  0.00    -0.451 OA
ATOM      3  C   UNL     1       4.512  -3.694  24.020  0.00  0.00    +0.147 A 
ATOM      4  C   UNL     1       5.237  -4.430  23.099  0.00  0.00    +0.109 A 
ATOM      5  C   UNL     1       4.726  -5.640  22.610  0.00  0.00    +0.135 A 
ATOM      6  C   UNL     1       3.471  -6.092  23.018  0.00  0.00    +0.091 A 
ATOM      7  C   UNL     1       2.737  -5.327  23.914  0.00  0.00    +0.124 A 
ATOM      8  C   UNL     1       6.528  -3.897  22.657  0.00  0.00    +0.238 A 
ATOM      9  O   UNL     1       7.206  -4.561  21.875  0.00  0.00    -0.283 OA
ATOM     10  C   UNL     1       3.244  -4.132  24.420  0.00  0.00    +0.092 A 
ATOM     11  C   UNL     1       6.951  -2.543  23.152  0.00  0.00    +0.211 A 
ENDROOT
BRANCH   1  16
ATOM     12  C   UNL     1       6.162   3.899  24.363  0.00  0.00    +0.308 C 
ATOM     13  O   UNL     1       6.553   2.825  23.456  0.00  0.00    -0.440 OA
ATOM     14  C   UNL     1       6.481   1.727  24.257  0.00  0.00    +0.168 A 
ATOM     15  C   UNL     1       6.699   0.427  23.845  0.00  0.00    +0.061 A 
ATOM     16  C   UNL     1       6.298  -0.618  24.689  0.00  0.00    +0.025 A 
ATOM     17  C   UNL     1       5.774  -0.305  25.966  0.00  0.00    +0.015 A 
ATOM     18  C   UNL     1       5.686   1.032  26.406  0.00  0.00    +0.050 A 
ATOM     19  C   UNL     1       6.045   2.031  25.521  0.00  0.00    +0.168 A 
ATOM     20  O   UNL     1       5.976   3.378  25.720  0.00  0.00    -0.440 OA
BRANCH  12  24
ATOM     21  C   UNL     1       2.763   6.207  22.889  0.00  0.00    +0.000 A 
ATOM     22  C   UNL     1       3.150   5.045  22.227  0.00  0.00    +0.001 A 
ATOM     23  C   UNL     1       4.150   4.228  22.765  0.00  0.00    +0.011 A 
ATOM     24  C   UNL     1       4.833   4.593  23.942  0.00  0.00    +0.041 A 
ATOM     25  C   UNL     1       4.385   5.745  24.622  0.00  0.00    +0.011 A 
ATOM     26  C   UNL     1       3.356   6.537  24.105  0.00  0.00    +0.001 A 
ENDBRANCH  12  24
BRANCH  12  27
ATOM     27  C   UNL     1       7.303   4.937  24.241  0.00  0.00    +0.041 A 
ATOM     28  C   UNL     1       7.984   5.344  25.415  0.00  0.00    +0.011 A 
ATOM     29  C   UNL     1       9.089   6.190  25.372  0.00  0.00    +0.001 A 
ATOM     30  C   UNL     1       9.512   6.692  24.153  0.00  0.00    +0.000 A 
ATOM     31  C   UNL     1       8.822   6.358  22.985  0.00  0.00    +0.001 A 
ATOM     32  C   UNL     1       7.726   5.482  23.024  0.00  0.00    +0.011 A 
ENDBRANCH  12  27
ENDBRANCH   1  16
BRANCH   5  33
ATOM     33  O   UNL     1       5.398  -6.427  21.716  0.00  0.00    -0.506 OA
ATOM     34  H   UNL     1       4.743  -6.777  21.068  0.00  0.00    +0.292 HD
ENDBRANCH   5  33
BRANCH   7  35
ATOM     35  O   UNL     1       1.503  -5.728  24.327  0.00  0.00    -0.507 OA
ATOM     36  H   UNL     1       1.205  -6.475  23.774  0.00  0.00    +0.292 HD
ENDBRANCH   7  35
BRANCH  11  37
ATOM     37  O   UNL     1       8.039  -2.037  22.491  0.00  0.00    -0.485 OA
BRANCH  37  38
ATOM     38  C   UNL     1       9.339  -2.116  23.057  0.00  0.00    +0.229 C 
BRANCH  38  39
ATOM     39  C   UNL     1      10.247  -1.095  22.348  0.00  0.00    +0.041 C 
BRANCH  39  40
ATOM     40  C   UNL     1       9.443  -0.117  21.477  0.00  0.00    +0.003 C 
BRANCH  40  41
ATOM     41  C   UNL     1       9.669   1.352  21.860  0.00  0.00    +0.001 C 
BRANCH  41  42
ATOM     42  C   UNL     1      10.262   1.446  23.272  0.00  0.00    +0.016 C 
BRANCH  42  43
ATOM     43  C   UNL     1      10.217   2.844  23.882  0.00  0.00    +0.108 C 
ATOM     44 CL   UNL     1      11.587   3.851  23.360  0.00  0.00    -0.125 Cl
ENDBRANCH  42  43
ENDBRANCH  41  42
ENDBRANCH  40  41
ENDBRANCH  39  40
ENDBRANCH  38  39
ENDBRANCH  37  38
ENDBRANCH  11  37
TORSDOF 12
ENDMDL
MODEL 4
REMARK VINA RESULT:      -6.7      2.571      2.865
REMARK  Name = 
REMARK  12 active torsions:
REMARK  status: ('A' for Active; 'I' for Inactive)
REMARK    1  A    between atoms: C_4  and  C_7
REMARK    2  A    between atoms: C_7  and  C_37
REMARK    3  A    between atoms: C_13  and  C_16
REMARK    4  A    between atoms: C_17  and  O_29
REMARK    5  A    between atoms: C_21  and  O_28
REMARK    6  A    between atoms: C_23  and  O_27
REMARK    7  A    between atoms: O_29  and  C_30
REMARK    8  A    between atoms: C_30  and  C_31
REMARK    9  A    between atoms: C_31  and  C_32
REMARK   10  A    between atoms: C_32  and  C_33
REMARK   11  A    between atoms: C_33  and  C_34
REMARK   12  A    between atoms: C_34  and  C_35
REMARK                            x       y       z     vdW  Elec       q    Type
REMARK                         _______ _______ _______ _____ _____    ______ ____
ROOT
ATOM      1  C   UNL     1       6.854  -1.615  25.000  0.00  0.00    +0.181 A 
ATOM      2  O   UNL     1       5.927  -1.698  26.039  0.00  0.00    -0.451 OA
ATOM      3  C   UNL     1       5.864  -2.826  26.807  0.00  0.00    +0.147 A 
ATOM      4  C   UNL     1       6.804  -3.838  26.722  0.00  0.00    +0.109 A 
ATOM      5  C   UNL     1       6.729  -4.939  27.586  0.00  0.00    +0.135 A 
ATOM      6  C   UNL     1       5.688  -5.041  28.510  0.00  0.00    +0.091 A 
ATOM      7  C   UNL     1       4.730  -4.038  28.560  0.00  0.00    +0.124 A 
ATOM      8  C   UNL     1       7.852  -3.719  25.706  0.00  0.00    +0.238 A 
ATOM      9  O   UNL     1       8.722  -4.585  25.648  0.00  0.00    -0.283 OA
ATOM     10  C   UNL     1       4.806  -2.930  27.718  0.00  0.00    +0.092 A 
ATOM     11  C   UNL     1       7.797  -2.558  24.754  0.00  0.00    +0.211 A 
ENDROOT
BRANCH   1  16
ATOM     12  C   UNL     1       5.860   4.031  23.717  0.00  0.00    +0.308 C 
ATOM     13  O   UNL     1       5.608   3.071  24.785  0.00  0.00    -0.440 OA
ATOM     14  C   UNL     1       5.915   1.886  24.190  0.00  0.00    +0.168 A 
ATOM     15  C   UNL     1       5.901   0.656  24.817  0.00  0.00    +0.061 A 
ATOM     16  C   UNL     1       6.525  -0.427  24.179  0.00  0.00    +0.025 A 
ATOM     17  C   UNL     1       7.061  -0.240  22.882  0.00  0.00    +0.015 A 
ATOM     18  C   UNL     1       6.942   0.998  22.219  0.00  0.00    +0.050 A 
ATOM     19  C   UNL     1       6.365   2.050  22.906  0.00  0.00    +0.168 A 
ATOM     20  O   UNL     1       6.212   3.334  22.476  0.00  0.00    -0.440 OA
BRANCH  12  24
ATOM     21  C   UNL     1       9.467   6.345  24.544  0.00  0.00    +0.000 A 
ATOM     22  C   UNL     1       8.884   6.401  23.280  0.00  0.00    +0.001 A 
ATOM     23  C   UNL     1       7.656   5.772  23.044  0.00  0.00    +0.011 A 
ATOM     24  C   UNL     1       7.023   5.014  24.047  0.00  0.00    +0.041 A 
ATOM     25  C   UNL     1       7.607   5.019  25.332  0.00  0.00    +0.011 A 
ATOM     26  C   UNL     1       8.811   5.685  25.577  0.00  0.00    +0.001 A 
ENDBRANCH  12  24
BRANCH  12  27
ATOM     27  C   UNL     1       4.552   4.853  23.625  0.00  0.00    +0.041 A 
ATOM     28  C   UNL     1       4.202   5.703  24.703  0.00  0.00    +0.011 A 
ATOM     29  C   UNL     1       3.100   6.552  24.647  0.00  0.00    +0.001 A 
ATOM     30  C   UNL     1       2.288   6.537  23.527  0.00  0.00    +0.000 A 
ATOM     31  C   UNL     1       2.572   5.664  22.473  0.00  0.00    +0.001 A 
ATOM     32  C   UNL     1       3.699   4.829  22.516  0.00  0.00    +0.011 A 
ENDBRANCH  12  27
ENDBRANCH   1  16
BRANCH   5  33
ATOM     33  O   UNL     1       7.635  -5.963  27.571  0.00  0.00    -0.506 OA
ATOM     34  H   UNL     1       8.514  -5.593  27.818  0.00  0.00    +0.292 HD
ENDBRANCH   5  33
BRANCH   7  35
ATOM     35  O   UNL     1       3.693  -4.106  29.439  0.00  0.00    -0.507 OA
ATOM     36  H   UNL     1       3.809  -3.425  30.128  0.00  0.00    +0.292 HD
ENDBRANCH   7  35
BRANCH  11  37
ATOM     37  O   UNL     1       8.666  -2.677  23.700  0.00  0.00    -0.485 OA
BRANCH  37  38
ATOM     38  C   UNL     1      10.013  -2.240  23.812  0.00  0.00    +0.229 C 
BRANCH  38  39
ATOM     39  C   UNL     1      10.216  -1.029  22.885  0.00  0.00    +0.041 C 
BRANCH  39  40
ATOM     40  C   UNL     1      10.867   0.154  23.619  0.00  0.00    +0.003 C 
BRANCH  40  41
ATOM     41  C   UNL     1       9.994   0.710  24.752  0.00  0.00    +0.001 C 
BRANCH  41  42
ATOM     42  C   UNL     1       9.632   2.175  24.471  0.00  0.00    +0.016 C 
BRANCH  42  43
ATOM     43  C   UNL     1      10.160   2.711  23.144  0.00  0.00    +0.108 C 
ATOM     44 CL   UNL     1      11.531   3.823  23.364  0.00  0.00    -0.125 Cl
ENDBRANCH  42  43
ENDBRANCH  41  42
ENDBRANCH  40  41
ENDBRANCH  39  40
ENDBRANCH  38  39
ENDBRANCH  37  38
ENDBRANCH  11  37
TORSDOF 12
ENDMDL
MODEL 5
REMARK VINA RESULT:      -6.7      2.782      8.698
REMARK  Name = 
REMARK  12 active torsions:
REMARK  status: ('A' for Active; 'I' for Inactive)
REMARK    1  A    between atoms: C_4  and  C_7
REMARK    2  A    between atoms: C_7  and  C_37
REMARK    3  A    between atoms: C_13  and  C_16
REMARK    4  A    between atoms: C_17  and  O_29
REMARK    5  A    between atoms: C_21  and  O_28
REMARK    6  A    between atoms: C_23  and  O_27
REMARK    7  A    between atoms: O_29  and  C_30
REMARK    8  A    between atoms: C_30  and  C_31
REMARK    9  A    between atoms: C_31  and  C_32
REMARK   10  A    between atoms: C_32  and  C_33
REMARK   11  A    between atoms: C_33  and  C_34
REMARK   12  A    between atoms: C_34  and  C_35
REMARK                            x       y       z     vdW  Elec       q    Type
REMARK                         _______ _______ _______ _____ _____    ______ ____
ROOT
ATOM      1  C   UNL     1       6.839   2.372  24.436  0.00  0.00    +0.181 A 
ATOM      2  O   UNL     1       5.725   3.058  23.952  0.00  0.00    -0.451 OA
ATOM      3  C   UNL     1       5.874   4.301  23.407  0.00  0.00    +0.147 A 
ATOM      4  C   UNL     1       7.115   4.855  23.146  0.00  0.00    +0.109 A 
ATOM      5  C   UNL     1       7.206   6.106  22.521  0.00  0.00    +0.135 A 
ATOM      6  C   UNL     1       6.051   6.816  22.191  0.00  0.00    +0.091 A 
ATOM      7  C   UNL     1       4.813   6.267  22.492  0.00  0.00    +0.124 A 
ATOM      8  C   UNL     1       8.304   4.102  23.551  0.00  0.00    +0.238 A 
ATOM      9  O   UNL     1       9.414   4.558  23.285  0.00  0.00    -0.283 OA
ATOM     10  C   UNL     1       4.711   5.015  23.097  0.00  0.00    +0.092 A 
ATOM     11  C   UNL     1       8.113   2.819  24.310  0.00  0.00    +0.211 A 
ENDROOT
BRANCH   1  16
ATOM     12  C   UNL     1       5.684  -3.263  25.634  0.00  0.00    +0.308 C 
ATOM     13  O   UNL     1       5.647  -2.332  24.511  0.00  0.00    -0.440 OA
ATOM     14  C   UNL     1       5.805  -1.128  25.126  0.00  0.00    +0.168 A 
ATOM     15  C   UNL     1       5.903   0.087  24.477  0.00  0.00    +0.061 A 
ATOM     16  C   UNL     1       6.363   1.196  25.202  0.00  0.00    +0.025 A 
ATOM     17  C   UNL     1       6.618   1.051  26.587  0.00  0.00    +0.015 A 
ATOM     18  C   UNL     1       6.381  -0.173  27.244  0.00  0.00    +0.050 A 
ATOM     19  C   UNL     1       5.978  -1.253  26.480  0.00  0.00    +0.168 A 
ATOM     20  O   UNL     1       5.758  -2.530  26.902  0.00  0.00    -0.440 OA
BRANCH  12  24
ATOM     21  C   UNL     1       9.406  -5.519  25.305  0.00  0.00    +0.000 A 
ATOM     22  C   UNL     1       9.020  -4.997  26.537  0.00  0.00    +0.001 A 
ATOM     23  C   UNL     1       7.767  -4.389  26.682  0.00  0.00    +0.011 A 
ATOM     24  C   UNL     1       6.905  -4.228  25.581  0.00  0.00    +0.041 A 
ATOM     25  C   UNL     1       7.297  -4.814  24.358  0.00  0.00    +0.011 A 
ATOM     26  C   UNL     1       8.529  -5.459  24.226  0.00  0.00    +0.001 A 
ENDBRANCH  12  24
BRANCH  12  27
ATOM     27  C   UNL     1       4.398  -4.108  25.473  0.00  0.00    +0.041 A 
ATOM     28  C   UNL     1       4.382  -5.430  25.984  0.00  0.00    +0.011 A 
ATOM     29  C   UNL     1       3.230  -6.212  25.973  0.00  0.00    +0.001 A 
ATOM     30  C   UNL     1       2.074  -5.709  25.402  0.00  0.00    +0.000 A 
ATOM     31  C   UNL     1       2.077  -4.433  24.834  0.00  0.00    +0.001 A 
ATOM     32  C   UNL     1       3.229  -3.632  24.871  0.00  0.00    +0.011 A 
ENDBRANCH  12  27
ENDBRANCH   1  16
BRANCH   5  33
ATOM     33  O   UNL     1       8.398   6.702  22.214  0.00  0.00    -0.506 OA
ATOM     34  H   UNL     1       8.268   7.237  21.396  0.00  0.00    +0.292 HD
ENDBRANCH   5  33
BRANCH   7  35
ATOM     35  O   UNL     1       3.663   6.933  22.198  0.00  0.00    -0.507 OA
ATOM     36  H   UNL     1       3.095   6.962  22.991  0.00  0.00    +0.292 HD
ENDBRANCH   7  35
BRANCH  11  37
ATOM     37  O   UNL     1       9.273   2.330  24.853  0.00  0.00    -0.485 OA
BRANCH  37  38
ATOM     38  C   UNL     1      10.275   1.748  24.032  0.00  0.00    +0.229 C 
BRANCH  38  39
ATOM     39  C   UNL     1      10.731   0.426  24.675  0.00  0.00    +0.041 C 
BRANCH  39  40
ATOM     40  C   UNL     1       9.541  -0.421  25.154  0.00  0.00    +0.003 C 
BRANCH  40  41
ATOM     41  C   UNL     1       9.522  -1.828  24.541  0.00  0.00    +0.001 C 
BRANCH  41  42
ATOM     42  C   UNL     1      10.104  -1.796  23.121  0.00  0.00    +0.016 C 
BRANCH  42  43
ATOM     43  C   UNL     1       9.067  -1.597  22.020  0.00  0.00    +0.108 C 
ATOM     44 CL   UNL     1       9.263  -0.039  21.184  0.00  0.00    -0.125 Cl
ENDBRANCH  42  43
ENDBRANCH  41  42
ENDBRANCH  40  41
ENDBRANCH  39  40
ENDBRANCH  38  39
ENDBRANCH  37  38
ENDBRANCH  11  37
TORSDOF 12
ENDMDL
MODEL 6
REMARK VINA RESULT:      -6.5      3.780      9.112
REMARK  Name = 
REMARK  12 active torsions:
REMARK  status: ('A' for Active; 'I' for Inactive)
REMARK    1  A    between atoms: C_4  and  C_7
REMARK    2  A    between atoms: C_7  and  C_37
REMARK    3  A    between atoms: C_13  and  C_16
REMARK    4  A    between atoms: C_17  and  O_29
REMARK    5  A    between atoms: C_21  and  O_28
REMARK    6  A    between atoms: C_23  and  O_27
REMARK    7  A    between atoms: O_29  and  C_30
REMARK    8  A    between atoms: C_30  and  C_31
REMARK    9  A    between atoms: C_31  and  C_32
REMARK   10  A    between atoms: C_32  and  C_33
REMARK   11  A    between atoms: C_33  and  C_34
REMARK   12  A    between atoms: C_34  and  C_35
REMARK                            x       y       z     vdW  Elec       q    Type
REMARK                         _______ _______ _______ _____ _____    ______ ____
ROOT
ATOM      1  C   UNL     1       7.619   1.269  24.605  0.00  0.00    +0.181 A 
ATOM      2  O   UNL     1       7.231   2.561  24.250  0.00  0.00    -0.451 OA
ATOM      3  C   UNL     1       8.179   3.520  24.028  0.00  0.00    +0.147 A 
ATOM      4  C   UNL     1       9.531   3.230  23.965  0.00  0.00    +0.109 A 
ATOM      5  C   UNL     1      10.451   4.243  23.664  0.00  0.00    +0.135 A 
ATOM      6  C   UNL     1      10.017   5.554  23.463  0.00  0.00    +0.091 A 
ATOM      7  C   UNL     1       8.663   5.840  23.566  0.00  0.00    +0.124 A 
ATOM      8  C   UNL     1       9.951   1.853  24.230  0.00  0.00    +0.238 A 
ATOM      9  O   UNL     1      11.143   1.568  24.132  0.00  0.00    -0.283 OA
ATOM     10  C   UNL     1       7.737   4.836  23.846  0.00  0.00    +0.092 A 
ATOM     11  C   UNL     1       8.909   0.854  24.647  0.00  0.00    +0.211 A 
ENDROOT
BRANCH   1  16
ATOM     12  C   UNL     1       4.187  -3.340  25.829  0.00  0.00    +0.308 C 
ATOM     13  O   UNL     1       5.176  -2.918  24.844  0.00  0.00    -0.440 OA
ATOM     14  C   UNL     1       5.299  -1.588  25.105  0.00  0.00    +0.168 A 
ATOM     15  C   UNL     1       6.179  -0.733  24.471  0.00  0.00    +0.061 A 
ATOM     16  C   UNL     1       6.413   0.527  25.041  0.00  0.00    +0.025 A 
ATOM     17  C   UNL     1       5.673   0.909  26.186  0.00  0.00    +0.015 A 
ATOM     18  C   UNL     1       4.688   0.060  26.729  0.00  0.00    +0.050 A 
ATOM     19  C   UNL     1       4.528  -1.192  26.166  0.00  0.00    +0.168 A 
ATOM     20  O   UNL     1       3.684  -2.182  26.575  0.00  0.00    -0.440 OA
BRANCH  12  24
ATOM     21  C   UNL     1       5.753  -6.563  28.323  0.00  0.00    +0.000 A 
ATOM     22  C   UNL     1       6.633  -5.699  27.675  0.00  0.00    +0.001 A 
ATOM     23  C   UNL     1       6.144  -4.584  26.984  0.00  0.00    +0.011 A 
ATOM     24  C   UNL     1       4.760  -4.351  26.867  0.00  0.00    +0.041 A 
ATOM     25  C   UNL     1       3.894  -5.209  27.577  0.00  0.00    +0.011 A 
ATOM     26  C   UNL     1       4.387  -6.297  28.303  0.00  0.00    +0.001 A 
ENDBRANCH  12  24
BRANCH  12  27
ATOM     27  C   UNL     1       3.105  -4.069  24.998  0.00  0.00    +0.041 A 
ATOM     28  C   UNL     1       1.745  -3.724  25.196  0.00  0.00    +0.011 A 
ATOM     29  C   UNL     1       0.726  -4.258  24.411  0.00  0.00    +0.001 A 
ATOM     30  C   UNL     1       1.037  -5.191  23.438  0.00  0.00    +0.000 A 
ATOM     31  C   UNL     1       2.363  -5.598  23.262  0.00  0.00    +0.001 A 
ATOM     32  C   UNL     1       3.394  -5.039  24.032  0.00  0.00    +0.011 A 
ENDBRANCH  12  27
ENDBRANCH   1  16
BRANCH   5  33
ATOM     33  O   UNL     1      11.797   4.023  23.565  0.00  0.00    -0.506 OA
ATOM     34  H   UNL     1      11.985   3.697  22.654  0.00  0.00    +0.292 HD
ENDBRANCH   5  33
BRANCH   7  35
ATOM     35  O   UNL     1       8.201   7.108  23.389  0.00  0.00    -0.507 OA
ATOM     36  H   UNL     1       8.592   7.482  22.577  0.00  0.00    +0.292 HD
ENDBRANCH   7  35
BRANCH  11  37
ATOM     37  O   UNL     1       9.438  -0.323  25.109  0.00  0.00    -0.485 OA
BRANCH  37  38
ATOM     38  C   UNL     1       9.783  -1.369  24.213  0.00  0.00    +0.229 C 
BRANCH  38  39
ATOM     39  C   UNL     1       9.207  -2.690  24.753  0.00  0.00    +0.041 C 
BRANCH  39  40
ATOM     40  C   UNL     1       8.472  -3.485  23.662  0.00  0.00    +0.003 C 
BRANCH  40  41
ATOM     41  C   UNL     1       8.130  -4.918  24.091  0.00  0.00    +0.001 C 
BRANCH  41  42
ATOM     42  C   UNL     1       6.953  -5.452  23.264  0.00  0.00    +0.016 C 
BRANCH  42  43
ATOM     43  C   UNL     1       6.845  -4.856  21.863  0.00  0.00    +0.108 C 
ATOM     44 CL   UNL     1       5.999  -5.938  20.734  0.00  0.00    -0.125 Cl
ENDBRANCH  42  43
ENDBRANCH  41  42
ENDBRANCH  40  41
ENDBRANCH  39  40
ENDBRANCH  38  39
ENDBRANCH  37  38
ENDBRANCH  11  37
TORSDOF 12
ENDMDL
MODEL 7
REMARK VINA RESULT:      -6.3      2.811      8.858
REMARK  Name = 
REMARK  12 active torsions:
REMARK  status: ('A' for Active; 'I' for Inactive)
REMARK    1  A    between atoms: C_4  and  C_7
REMARK    2  A    between atoms: C_7  and  C_37
REMARK    3  A    between atoms: C_13  and  C_16
REMARK    4  A    between atoms: C_17  and  O_29
REMARK    5  A    between atoms: C_21  and  O_28
REMARK    6  A    between atoms: C_23  and  O_27
REMARK    7  A    between atoms: O_29  and  C_30
REMARK    8  A    between atoms: C_30  and  C_31
REMARK    9  A    between atoms: C_31  and  C_32
REMARK   10  A    between atoms: C_32  and  C_33
REMARK   11  A    between atoms: C_33  and  C_34
REMARK   12  A    between atoms: C_34  and  C_35
REMARK                            x       y       z     vdW  Elec       q    Type
REMARK                         _______ _______ _______ _____ _____    ______ ____
ROOT
ATOM      1  C   UNL     1       8.295   1.937  25.242  0.00  0.00    +0.181 A 
ATOM      2  O   UNL     1       7.493   2.785  26.006  0.00  0.00    -0.451 OA
ATOM      3  C   UNL     1       7.764   4.124  26.047  0.00  0.00    +0.147 A 
ATOM      4  C   UNL     1       8.700   4.719  25.220  0.00  0.00    +0.109 A 
ATOM      5  C   UNL     1       8.886   6.108  25.258  0.00  0.00    +0.135 A 
ATOM      6  C   UNL     1       8.157   6.893  26.152  0.00  0.00    +0.091 A 
ATOM      7  C   UNL     1       7.248   6.279  27.003  0.00  0.00    +0.124 A 
ATOM      8  C   UNL     1       9.480   3.856  24.331  0.00  0.00    +0.238 A 
ATOM      9  O   UNL     1      10.282   4.374  23.556  0.00  0.00    -0.283 OA
ATOM     10  C   UNL     1       7.043   4.902  26.960  0.00  0.00    +0.092 A 
ATOM     11  C   UNL     1       9.291   2.369  24.430  0.00  0.00    +0.211 A 
ENDROOT
BRANCH   1  16
ATOM     12  C   UNL     1       5.826  -3.370  24.727  0.00  0.00    +0.308 C 
ATOM     13  O   UNL     1       5.508  -1.966  24.492  0.00  0.00    -0.440 OA
ATOM     14  C   UNL     1       6.523  -1.326  25.135  0.00  0.00    +0.168 A 
ATOM     15  C   UNL     1       6.714   0.041  25.153  0.00  0.00    +0.061 A 
ATOM     16  C   UNL     1       7.951   0.538  25.589  0.00  0.00    +0.025 A 
ATOM     17  C   UNL     1       8.919  -0.371  26.080  0.00  0.00    +0.015 A 
ATOM     18  C   UNL     1       8.639  -1.750  26.169  0.00  0.00    +0.050 A 
ATOM     19  C   UNL     1       7.427  -2.200  25.680  0.00  0.00    +0.168 A 
ATOM     20  O   UNL     1       6.989  -3.489  25.611  0.00  0.00    -0.440 OA
BRANCH  12  24
ATOM     21  C   UNL     1       6.198  -5.686  21.046  0.00  0.00    +0.000 A 
ATOM     22  C   UNL     1       6.012  -4.308  20.980  0.00  0.00    +0.001 A 
ATOM     23  C   UNL     1       6.025  -3.539  22.150  0.00  0.00    +0.011 A 
ATOM     24  C   UNL     1       6.155  -4.143  23.415  0.00  0.00    +0.041 A 
ATOM     25  C   UNL     1       6.397  -5.533  23.450  0.00  0.00    +0.011 A 
ATOM     26  C   UNL     1       6.427  -6.293  22.277  0.00  0.00    +0.001 A 
ENDBRANCH  12  24
BRANCH  12  27
ATOM     27  C   UNL     1       4.525  -3.964  25.318  0.00  0.00    +0.041 A 
ATOM     28  C   UNL     1       4.584  -4.627  26.569  0.00  0.00    +0.011 A 
ATOM     29  C   UNL     1       3.441  -5.091  27.214  0.00  0.00    +0.001 A 
ATOM     30  C   UNL     1       2.210  -4.947  26.599  0.00  0.00    +0.000 A 
ATOM     31  C   UNL     1       2.127  -4.353  25.337  0.00  0.00    +0.001 A 
ATOM     32  C   UNL     1       3.275  -3.859  24.700  0.00  0.00    +0.011 A 
ENDBRANCH  12  27
ENDBRANCH   1  16
BRANCH   5  33
ATOM     33  O   UNL     1       9.777   6.764  24.454  0.00  0.00    -0.506 OA
ATOM     34  H   UNL     1       9.494   6.635  23.519  0.00  0.00    +0.292 HD
ENDBRANCH   5  33
BRANCH   7  35
ATOM     35  O   UNL     1       6.527   7.009  27.897  0.00  0.00    -0.507 OA
ATOM     36  H   UNL     1       7.107   7.282  28.633  0.00  0.00    +0.292 HD
ENDBRANCH   7  35
BRANCH  11  37
ATOM     37  O   UNL     1      10.237   1.653  23.743  0.00  0.00    -0.485 OA
BRANCH  37  38
ATOM     38  C   UNL     1      10.118   1.441  22.344  0.00  0.00    +0.229 C 
BRANCH  38  39
ATOM     39  C   UNL     1       8.716   0.879  22.049  0.00  0.00    +0.041 C 
BRANCH  39  40
ATOM     40  C   UNL     1       7.813   1.919  21.367  0.00  0.00    +0.003 C 
BRANCH  40  41
ATOM     41  C   UNL     1       6.566   2.265  22.194  0.00  0.00    +0.001 C 
BRANCH  41  42
ATOM     42  C   UNL     1       6.430   3.787  22.335  0.00  0.00    +0.016 C 
BRANCH  42  43
ATOM     43  C   UNL     1       5.224   4.238  23.154  0.00  0.00    +0.108 C 
ATOM     44 CL   UNL     1       5.437   5.873  23.822  0.00  0.00    -0.125 Cl
ENDBRANCH  42  43
ENDBRANCH  41  42
ENDBRANCH  40  41
ENDBRANCH  39  40
ENDBRANCH  38  39
ENDBRANCH  37  38
ENDBRANCH  11  37
TORSDOF 12
ENDMDL
MODEL 8
REMARK VINA RESULT:      -6.3      2.345      3.162
REMARK  Name = 
REMARK  12 active torsions:
REMARK  status: ('A' for Active; 'I' for Inactive)
REMARK    1  A    between atoms: C_4  and  C_7
REMARK    2  A    between atoms: C_7  and  C_37
REMARK    3  A    between atoms: C_13  and  C_16
REMARK    4  A    between atoms: C_17  and  O_29
REMARK    5  A    between atoms: C_21  and  O_28
REMARK    6  A    between atoms: C_23  and  O_27
REMARK    7  A    between atoms: O_29  and  C_30
REMARK    8  A    between atoms: C_30  and  C_31
REMARK    9  A    between atoms: C_31  and  C_32
REMARK   10  A    between atoms: C_32  and  C_33
REMARK   11  A    between atoms: C_33  and  C_34
REMARK   12  A    between atoms: C_34  and  C_35
REMARK                            x       y       z     vdW  Elec       q    Type
REMARK                         _______ _______ _______ _____ _____    ______ ____
ROOT
ATOM      1  C   UNL     1       7.692  -0.881  22.986  0.00  0.00    +0.181 A 
ATOM      2  O   UNL     1       6.594  -1.698  22.719  0.00  0.00    -0.451 OA
ATOM      3  C   UNL     1       6.721  -3.056  22.793  0.00  0.00    +0.147 A 
ATOM      4  C   UNL     1       7.855  -3.671  23.297  0.00  0.00    +0.109 A 
ATOM      5  C   UNL     1       7.901  -5.067  23.414  0.00  0.00    +0.135 A 
ATOM      6  C   UNL     1       6.824  -5.847  22.991  0.00  0.00    +0.091 A 
ATOM      7  C   UNL     1       5.708  -5.221  22.453  0.00  0.00    +0.124 A 
ATOM      8  C   UNL     1       8.983  -2.822  23.683  0.00  0.00    +0.238 A 
ATOM      9  O   UNL     1       9.979  -3.347  24.176  0.00  0.00    -0.283 OA
ATOM     10  C   UNL     1       5.645  -3.833  22.349  0.00  0.00    +0.092 A 
ATOM     11  C   UNL     1       8.888  -1.344  23.427  0.00  0.00    +0.211 A 
ENDROOT
BRANCH   1  16
ATOM     12  C   UNL     1       6.298   4.799  23.546  0.00  0.00    +0.308 C 
ATOM     13  O   UNL     1       6.010   3.514  24.174  0.00  0.00    -0.440 OA
ATOM     14  C   UNL     1       6.512   2.629  23.269  0.00  0.00    +0.168 A 
ATOM     15  C   UNL     1       6.543   1.259  23.433  0.00  0.00    +0.061 A 
ATOM     16  C   UNL     1       7.352   0.501  22.573  0.00  0.00    +0.025 A 
ATOM     17  C   UNL     1       8.030   1.156  21.517  0.00  0.00    +0.015 A 
ATOM     18  C   UNL     1       7.871   2.540  21.301  0.00  0.00    +0.050 A 
ATOM     19  C   UNL     1       7.106   3.254  22.203  0.00  0.00    +0.168 A 
ATOM     20  O   UNL     1       6.878   4.598  22.215  0.00  0.00    -0.440 OA
BRANCH  12  24
ATOM     21  C   UNL     1       9.481   6.795  25.769  0.00  0.00    +0.000 A 
ATOM     22  C   UNL     1       9.273   7.106  24.428  0.00  0.00    +0.001 A 
ATOM     23  C   UNL     1       8.174   6.574  23.744  0.00  0.00    +0.011 A 
ATOM     24  C   UNL     1       7.301   5.662  24.368  0.00  0.00    +0.041 A 
ATOM     25  C   UNL     1       7.502   5.406  25.741  0.00  0.00    +0.011 A 
ATOM     26  C   UNL     1       8.575   5.974  26.434  0.00  0.00    +0.001 A 
ENDBRANCH  12  24
BRANCH  12  27
ATOM     27  C   UNL     1       4.936   5.533  23.532  0.00  0.00    +0.041 A 
ATOM     28  C   UNL     1       4.417   6.031  24.753  0.00  0.00    +0.011 A 
ATOM     29  C   UNL     1       3.253   6.794  24.804  0.00  0.00    +0.001 A 
ATOM     30  C   UNL     1       2.549   7.037  23.637  0.00  0.00    +0.000 A 
ATOM     31  C   UNL     1       3.003   6.505  22.427  0.00  0.00    +0.001 A 
ATOM     32  C   UNL     1       4.191   5.761  22.370  0.00  0.00    +0.011 A 
ENDBRANCH  12  27
ENDBRANCH   1  16
BRANCH   5  33
ATOM     33  O   UNL     1       8.979  -5.738  23.922  0.00  0.00    -0.506 OA
ATOM     34  H   UNL     1       9.790  -5.375  23.495  0.00  0.00    +0.292 HD
ENDBRANCH   5  33
BRANCH   7  35
ATOM     35  O   UNL     1       4.642  -5.947  22.018  0.00  0.00    -0.507 OA
ATOM     36  H   UNL     1       3.883  -5.351  21.876  0.00  0.00    +0.292 HD
ENDBRANCH   7  35
BRANCH  11  37
ATOM     37  O   UNL     1      10.079  -0.685  23.590  0.00  0.00    -0.485 OA
BRANCH  37  38
ATOM     38  C   UNL     1      10.445  -0.142  24.850  0.00  0.00    +0.229 C 
BRANCH  38  39
ATOM     39  C   UNL     1       9.168   0.286  25.592  0.00  0.00    +0.041 C 
BRANCH  39  40
ATOM     40  C   UNL     1       8.856  -0.638  26.780  0.00  0.00    +0.003 C 
BRANCH  40  41
ATOM     41  C   UNL     1       7.367  -0.655  27.153  0.00  0.00    +0.001 C 
BRANCH  41  42
ATOM     42  C   UNL     1       6.621  -1.693  26.303  0.00  0.00    +0.016 C 
BRANCH  42  43
ATOM     43  C   UNL     1       6.729  -3.125  26.819  0.00  0.00    +0.108 C 
ATOM     44 CL   UNL     1       5.464  -4.180  26.149  0.00  0.00    -0.125 Cl
ENDBRANCH  42  43
ENDBRANCH  41  42
ENDBRANCH  40  41
ENDBRANCH  39  40
ENDBRANCH  38  39
ENDBRANCH  37  38
ENDBRANCH  11  37
TORSDOF 12
ENDMDL
MODEL 9
REMARK VINA RESULT:      -6.3      2.645      4.329
REMARK  Name = 
REMARK  12 active torsions:
REMARK  status: ('A' for Active; 'I' for Inactive)
REMARK    1  A    between atoms: C_4  and  C_7
REMARK    2  A    between atoms: C_7  and  C_37
REMARK    3  A    between atoms: C_13  and  C_16
REMARK    4  A    between atoms: C_17  and  O_29
REMARK    5  A    between atoms: C_21  and  O_28
REMARK    6  A    between atoms: C_23  and  O_27
REMARK    7  A    between atoms: O_29  and  C_30
REMARK    8  A    between atoms: C_30  and  C_31
REMARK    9  A    between atoms: C_31  and  C_32
REMARK   10  A    between atoms: C_32  and  C_33
REMARK   11  A    between atoms: C_33  and  C_34
REMARK   12  A    between atoms: C_34  and  C_35
REMARK                            x       y       z     vdW  Elec       q    Type
REMARK                         _______ _______ _______ _____ _____    ______ ____
ROOT
ATOM      1  C   UNL     1       6.691  -2.658  24.940  0.00  0.00    +0.181 A 
ATOM      2  O   UNL     1       6.031  -3.274  26.003  0.00  0.00    -0.451 OA
ATOM      3  C   UNL     1       5.408  -4.475  25.814  0.00  0.00    +0.147 A 
ATOM      4  C   UNL     1       5.548  -5.211  24.650  0.00  0.00    +0.109 A 
ATOM      5  C   UNL     1       4.942  -6.470  24.540  0.00  0.00    +0.135 A 
ATOM      6  C   UNL     1       4.167  -6.974  25.584  0.00  0.00    +0.091 A 
ATOM      7  C   UNL     1       4.003  -6.210  26.732  0.00  0.00    +0.124 A 
ATOM      8  C   UNL     1       6.328  -4.626  23.557  0.00  0.00    +0.238 A 
ATOM      9  O   UNL     1       6.502  -5.286  22.534  0.00  0.00    -0.283 OA
ATOM     10  C   UNL     1       4.616  -4.965  26.859  0.00  0.00    +0.092 A 
ATOM     11  C   UNL     1       6.854  -3.228  23.721  0.00  0.00    +0.211 A 
ENDROOT
BRANCH   1  16
ATOM     12  C   UNL     1       6.435   3.210  25.083  0.00  0.00    +0.308 C 
ATOM     13  O   UNL     1       6.345   2.114  24.125  0.00  0.00    -0.440 OA
ATOM     14  C   UNL     1       6.792   1.054  24.852  0.00  0.00    +0.168 A 
ATOM     15  C   UNL     1       6.840  -0.251  24.405  0.00  0.00    +0.061 A 
ATOM     16  C   UNL     1       7.031  -1.274  25.346  0.00  0.00    +0.025 A 
ATOM     17  C   UNL     1       7.260  -0.925  26.699  0.00  0.00    +0.015 A 
ATOM     18  C   UNL     1       7.334   0.425  27.097  0.00  0.00    +0.050 A 
ATOM     19  C   UNL     1       7.089   1.397  26.145  0.00  0.00    +0.168 A 
ATOM     20  O   UNL     1       7.048   2.747  26.332  0.00  0.00    -0.440 OA
BRANCH  12  24
ATOM     21  C   UNL     1       2.518   4.516  26.497  0.00  0.00    +0.000 A 
ATOM     22  C   UNL     1       3.666   5.167  26.941  0.00  0.00    +0.001 A 
ATOM     23  C   UNL     1       4.913   4.846  26.393  0.00  0.00    +0.011 A 
ATOM     24  C   UNL     1       5.046   3.817  25.441  0.00  0.00    +0.041 A 
ATOM     25  C   UNL     1       3.862   3.211  24.969  0.00  0.00    +0.011 A 
ATOM     26  C   UNL     1       2.612   3.565  25.486  0.00  0.00    +0.001 A 
ENDBRANCH  12  24
BRANCH  12  27
ATOM     27  C   UNL     1       7.256   4.296  24.347  0.00  0.00    +0.041 A 
ATOM     28  C   UNL     1       6.873   4.668  23.035  0.00  0.00    +0.011 A 
ATOM     29  C   UNL     1       7.493   5.711  22.352  0.00  0.00    +0.001 A 
ATOM     30  C   UNL     1       8.550   6.378  22.947  0.00  0.00    +0.000 A 
ATOM     31  C   UNL     1       8.991   5.992  24.215  0.00  0.00    +0.001 A 
ATOM     32  C   UNL     1       8.347   4.961  24.916  0.00  0.00    +0.011 A 
ENDBRANCH  12  27
ENDBRANCH   1  16
BRANCH   5  33
ATOM     33  O   UNL     1       5.057  -7.258  23.428  0.00  0.00    -0.506 OA
ATOM     34  H   UNL     1       5.949  -7.675  23.443  0.00  0.00    +0.292 HD
ENDBRANCH   5  33
BRANCH   7  35
ATOM     35  O   UNL     1       3.245  -6.662  27.768  0.00  0.00    -0.507 OA
ATOM     36  H   UNL     1       3.649  -6.380  28.610  0.00  0.00    +0.292 HD
ENDBRANCH   7  35
BRANCH  11  37
ATOM     37  O   UNL     1       7.347  -2.693  22.559  0.00  0.00    -0.485 OA
BRANCH  37  38
ATOM     38  C   UNL     1       8.738  -2.463  22.394  0.00  0.00    +0.229 C 
BRANCH  38  39
ATOM     39  C   UNL     1       8.930  -1.228  21.496  0.00  0.00    +0.041 C 
BRANCH  39  40
ATOM     40  C   UNL     1       9.981  -0.262  22.065  0.00  0.00    +0.003 C 
BRANCH  40  41
ATOM     41  C   UNL     1       9.623   1.214  21.839  0.00  0.00    +0.001 C 
BRANCH  41  42
ATOM     42  C   UNL     1       9.770   2.001  23.149  0.00  0.00    +0.016 C 
BRANCH  42  43
ATOM     43  C   UNL     1      10.934   1.552  24.027  0.00  0.00    +0.108 C 
ATOM     44 CL   UNL     1      10.449   0.312  25.207  0.00  0.00    -0.125 Cl
ENDBRANCH  42  43
ENDBRANCH  41  42
ENDBRANCH  40  41
ENDBRANCH  39  40
ENDBRANCH  38  39
ENDBRANCH  37  38
ENDBRANCH  11  37
TORSDOF 12
ENDMDL
