MODEL 1
REMARK VINA RESULT:      -6.8      0.000      0.000
REMARK  Name = 
REMARK  22 active torsions:
REMARK  status: ('A' for Active; 'I' for Inactive)
REMARK    1  A    between atoms: C_3  and  O_59
REMARK    2  A    between atoms: C_4  and  O_58
REMARK    3  A    between atoms: C_6  and  C_7
REMARK    4  A    between atoms: C_8  and  O_20
REMARK    5  A    between atoms: C_12  and  O_19
REMARK    6  A    between atoms: C_14  and  O_18
REMARK    7  A    between atoms: O_20  and  C_21
REMARK    8  A    between atoms: C_23  and  O_32
REMARK    9  A    between atoms: C_25  and  O_31
REMARK   10  A    between atoms: C_26  and  C_29
REMARK   11  A    between atoms: C_29  and  O_30
REMARK   12  A    between atoms: O_32  and  C_33
REMARK   13  A    between atoms: C_35  and  O_46
REMARK   14  A    between atoms: C_36  and  O_45
REMARK   15  A    between atoms: C_38  and  O_44
REMARK   16  A    between atoms: C_40  and  C_42
REMARK   17  A    between atoms: C_42  and  O_43
REMARK   18  A    between atoms: O_46  and  C_47
REMARK   19  A    between atoms: C_47  and  C_49
REMARK   20  A    between atoms: C_51  and  O_57
REMARK   21  A    between atoms: C_52  and  O_56
REMARK   22  A    between atoms: C_53  and  O_55
REMARK                            x       y       z     vdW  Elec       q    Type
REMARK                         _______ _______ _______ _____ _____    ______ ____
ROOT
ATOM      1  C   UNL     1       5.375   2.038  24.967  0.00  0.00    +0.340 C 
ATOM      2  O   UNL     1       4.496   2.124  23.797  0.00  0.00    -0.331 OA
ATOM      3  C   UNL     1       3.729   3.359  23.882  0.00  0.00    +0.179 C 
ATOM      4  C   UNL     1       4.330   4.183  25.031  0.00  0.00    +0.180 C 
ATOM      5  C   UNL     1       5.696   3.529  25.293  0.00  0.00    +0.221 C 
ENDROOT
BRANCH   4   6
ATOM      6  O   UNL     1       3.455   4.058  26.176  0.00  0.00    -0.386 OA
ATOM      7  H   UNL     1       3.553   4.812  26.779  0.00  0.00    +0.210 HD
ENDBRANCH   4   6
BRANCH   5   8
ATOM      8  O   UNL     1       6.858   4.131  24.653  0.00  0.00    -0.336 OA
BRANCH   8   9
ATOM      9  C   UNL     1       8.061   4.118  25.408  0.00  0.00    +0.295 C 
ATOM     10  O   UNL     1       7.830   4.655  26.699  0.00  0.00    -0.340 OA
ATOM     11  C   UNL     1       7.542   6.055  26.670  0.00  0.00    +0.178 C 
ATOM     12  C   UNL     1       8.802   6.825  26.247  0.00  0.00    +0.178 C 
ATOM     13  C   UNL     1       9.338   6.306  24.891  0.00  0.00    +0.191 C 
ATOM     14  C   UNL     1       9.329   4.765  24.811  0.00  0.00    +0.263 C 
BRANCH  13  15
ATOM     15  O   UNL     1       8.688   6.940  23.790  0.00  0.00    -0.385 OA
ATOM     16  H   UNL     1       9.347   7.255  23.151  0.00  0.00    +0.210 HD
ENDBRANCH  13  15
BRANCH  12  17
ATOM     17  O   UNL     1       9.844   6.659  27.208  0.00  0.00    -0.386 OA
ATOM     18  H   UNL     1      10.615   6.294  26.741  0.00  0.00    +0.210 HD
ENDBRANCH  12  17
BRANCH  11  19
ATOM     19  C   UNL     1       6.932   6.434  28.034  0.00  0.00    +0.190 C 
BRANCH  19  20
ATOM     20  O   UNL     1       7.592   5.860  29.155  0.00  0.00    -0.392 OA
ATOM     21  H   UNL     1       7.592   6.557  29.838  0.00  0.00    +0.210 HD
ENDBRANCH  19  20
ENDBRANCH  11  19
BRANCH  14  22
ATOM     22  O   UNL     1       9.662   4.296  23.486  0.00  0.00    -0.450 OA
BRANCH  22  23
ATOM     23  C   UNL     1      10.752   3.491  23.402  0.00  0.00    +0.340 C 
ATOM     24  O   UNL     1      11.916   3.866  23.393  0.00  0.00    -0.245 OA
BRANCH  23  25
ATOM     25  C   UNL     1      10.371   2.055  23.301  0.00  0.00    +0.066 A 
ATOM     26  C   UNL     1      10.302   1.230  24.432  0.00  0.00    +0.064 A 
ATOM     27  C   UNL     1       9.919  -0.097  24.281  0.00  0.00    +0.163 A 
ATOM     28  C   UNL     1       9.606  -0.606  23.027  0.00  0.00    +0.201 A 
ATOM     29  C   UNL     1       9.677   0.209  21.900  0.00  0.00    +0.163 A 
ATOM     30  C   UNL     1      10.057   1.543  22.027  0.00  0.00    +0.064 A 
BRANCH  29  31
ATOM     31  O   UNL     1       9.361  -0.348  20.693  0.00  0.00    -0.503 OA
ATOM     32  H   UNL     1       9.441   0.337  20.005  0.00  0.00    +0.292 HD
ENDBRANCH  29  31
BRANCH  28  33
ATOM     33  O   UNL     1       9.224  -1.915  22.917  0.00  0.00    -0.501 OA
ATOM     34  H   UNL     1       8.568  -2.037  23.633  0.00  0.00    +0.292 HD
ENDBRANCH  28  33
BRANCH  27  35
ATOM     35  O   UNL     1       9.851  -0.900  25.382  0.00  0.00    -0.503 OA
ATOM     36  H   UNL     1      10.181  -0.344  26.115  0.00  0.00    +0.292 HD
ENDBRANCH  27  35
ENDBRANCH  23  25
ENDBRANCH  22  23
ENDBRANCH  14  22
ENDBRANCH   8   9
ENDBRANCH   5   8
BRANCH   3  37
ATOM     37  C   UNL     1       3.581   4.117  22.537  0.00  0.00    +0.190 C 
BRANCH  37  38
ATOM     38  O   UNL     1       4.743   4.892  22.241  0.00  0.00    -0.392 OA
ATOM     39  H   UNL     1       5.528   4.327  22.370  0.00  0.00    +0.210 HD
ENDBRANCH  37  38
ENDBRANCH   3  37
BRANCH   1  40
ATOM     40  O   UNL     1       6.463   1.101  24.749  0.00  0.00    -0.453 OA
BRANCH  40  51
ATOM     41  C   UNL     1       6.365  -0.343  26.730  0.00  0.00    +0.181 A 
ATOM     42  O   UNL     1       6.303  -1.624  27.315  0.00  0.00    -0.451 OA
ATOM     43  C   UNL     1       6.430  -2.741  26.539  0.00  0.00    +0.147 A 
ATOM     44  C   UNL     1       6.541  -2.665  25.160  0.00  0.00    +0.109 A 
ATOM     45  C   UNL     1       6.692  -3.797  24.372  0.00  0.00    +0.135 A 
ATOM     46  C   UNL     1       6.708  -5.054  24.953  0.00  0.00    +0.091 A 
ATOM     47  C   UNL     1       6.530  -5.151  26.328  0.00  0.00    +0.124 A 
ATOM     48  C   UNL     1       6.374  -1.364  24.563  0.00  0.00    +0.238 A 
ATOM     49  O   UNL     1       6.057  -1.345  23.382  0.00  0.00    -0.283 OA
ATOM     50  C   UNL     1       6.402  -4.006  27.130  0.00  0.00    +0.092 A 
ATOM     51  C   UNL     1       6.485  -0.133  25.391  0.00  0.00    +0.214 A 
BRANCH  41  53
ATOM     52  C   UNL     1       4.849   1.044  28.177  0.00  0.00    +0.015 A 
ATOM     53  C   UNL     1       6.170   0.714  27.778  0.00  0.00    +0.025 A 
ATOM     54  C   UNL     1       7.218   1.401  28.407  0.00  0.00    +0.060 A 
ATOM     55  C   UNL     1       6.936   2.440  29.299  0.00  0.00    +0.159 A 
ATOM     56  C   UNL     1       5.628   2.826  29.577  0.00  0.00    +0.158 A 
ATOM     57  C   UNL     1       4.573   2.106  29.053  0.00  0.00    +0.050 A 
BRANCH  56  58
ATOM     58  O   UNL     1       5.428   3.930  30.359  0.00  0.00    -0.503 OA
ATOM     59  H   UNL     1       5.316   3.625  31.278  0.00  0.00    +0.292 HD
ENDBRANCH  56  58
BRANCH  55  60
ATOM     60  O   UNL     1       7.970   3.105  29.898  0.00  0.00    -0.503 OA
ATOM     61  H   UNL     1       8.773   2.616  29.627  0.00  0.00    +0.292 HD
ENDBRANCH  55  60
ENDBRANCH  41  53
BRANCH  47  62
ATOM     62  O   UNL     1       6.452  -6.374  26.928  0.00  0.00    -0.507 OA
ATOM     63  H   UNL     1       5.923  -6.965  26.362  0.00  0.00    +0.292 HD
ENDBRANCH  47  62
BRANCH  45  64
ATOM     64  O   UNL     1       6.808  -3.746  23.007  0.00  0.00    -0.506 OA
ATOM     65  H   UNL     1       5.933  -3.986  22.625  0.00  0.00    +0.292 HD
ENDBRANCH  45  64
ENDBRANCH  40  51
ENDBRANCH   1  40
TORSDOF 22
ENDMDL
MODEL 2
REMARK VINA RESULT:      -6.6      2.672      6.074
REMARK  Name = 
REMARK  22 active torsions:
REMARK  status: ('A' for Active; 'I' for Inactive)
REMARK    1  A    between atoms: C_3  and  O_59
REMARK    2  A    between atoms: C_4  and  O_58
REMARK    3  A    between atoms: C_6  and  C_7
REMARK    4  A    between atoms: C_8  and  O_20
REMARK    5  A    between atoms: C_12  and  O_19
REMARK    6  A    between atoms: C_14  and  O_18
REMARK    7  A    between atoms: O_20  and  C_21
REMARK    8  A    between atoms: C_23  and  O_32
REMARK    9  A    between atoms: C_25  and  O_31
REMARK   10  A    between atoms: C_26  and  C_29
REMARK   11  A    between atoms: C_29  and  O_30
REMARK   12  A    between atoms: O_32  and  C_33
REMARK   13  A    between atoms: C_35  and  O_46
REMARK   14  A    between atoms: C_36  and  O_45
REMARK   15  A    between atoms: C_38  and  O_44
REMARK   16  A    between atoms: C_40  and  C_42
REMARK   17  A    between atoms: C_42  and  O_43
REMARK   18  A    between atoms: O_46  and  C_47
REMARK   19  A    between atoms: C_47  and  C_49
REMARK   20  A    between atoms: C_51  and  O_57
REMARK   21  A    between atoms: C_52  and  O_56
REMARK   22  A    between atoms: C_53  and  O_55
REMARK                            x       y       z     vdW  Elec       q    Type
REMARK                         _______ _______ _______ _____ _____    ______ ____
ROOT
ATOM      1  C   UNL     1       5.799  -0.379  27.517  0.00  0.00    +0.340 C 
ATOM      2  O   UNL     1       4.807   0.569  28.034  0.00  0.00    -0.331 OA
ATOM      3  C   UNL     1       5.490   1.801  28.404  0.00  0.00    +0.179 C 
ATOM      4  C   UNL     1       6.928   1.693  27.874  0.00  0.00    +0.180 C 
ATOM      5  C   UNL     1       6.874   0.540  26.859  0.00  0.00    +0.221 C 
ENDROOT
BRANCH   4   6
ATOM      6  O   UNL     1       7.793   1.376  28.989  0.00  0.00    -0.386 OA
ATOM      7  H   UNL     1       7.860   2.123  29.607  0.00  0.00    +0.210 HD
ENDBRANCH   4   6
BRANCH   5   8
ATOM      8  O   UNL     1       6.702   0.892  25.456  0.00  0.00    -0.336 OA
BRANCH   8   9
ATOM      9  C   UNL     1       7.834   0.692  24.622  0.00  0.00    +0.295 C 
ATOM     10  O   UNL     1       8.676   1.832  24.663  0.00  0.00    -0.340 OA
ATOM     11  C   UNL     1       8.082   2.977  24.046  0.00  0.00    +0.178 C 
ATOM     12  C   UNL     1       7.972   2.741  22.533  0.00  0.00    +0.178 C 
ATOM     13  C   UNL     1       7.192   1.438  22.232  0.00  0.00    +0.191 C 
ATOM     14  C   UNL     1       7.619   0.276  23.152  0.00  0.00    +0.263 C 
BRANCH  13  15
ATOM     15  O   UNL     1       5.782   1.662  22.209  0.00  0.00    -0.385 OA
ATOM     16  H   UNL     1       5.454   1.626  21.297  0.00  0.00    +0.210 HD
ENDBRANCH  13  15
BRANCH  12  17
ATOM     17  O   UNL     1       9.267   2.606  21.946  0.00  0.00    -0.386 OA
ATOM     18  H   UNL     1       9.808   3.349  22.262  0.00  0.00    +0.210 HD
ENDBRANCH  12  17
BRANCH  11  19
ATOM     19  C   UNL     1       8.886   4.215  24.490  0.00  0.00    +0.190 C 
BRANCH  19  20
ATOM     20  O   UNL     1       9.611   4.853  23.448  0.00  0.00    -0.392 OA
ATOM     21  H   UNL     1       9.003   4.872  22.686  0.00  0.00    +0.210 HD
ENDBRANCH  19  20
ENDBRANCH  11  19
BRANCH  14  22
ATOM     22  O   UNL     1       6.767  -0.879  22.985  0.00  0.00    -0.450 OA
BRANCH  22  23
ATOM     23  C   UNL     1       7.372  -1.993  22.500  0.00  0.00    +0.340 C 
ATOM     24  O   UNL     1       8.472  -2.031  21.965  0.00  0.00    -0.245 OA
BRANCH  23  25
ATOM     25  C   UNL     1       6.525  -3.204  22.678  0.00  0.00    +0.066 A 
ATOM     26  C   UNL     1       6.898  -4.449  22.153  0.00  0.00    +0.064 A 
ATOM     27  C   UNL     1       6.078  -5.550  22.370  0.00  0.00    +0.163 A 
ATOM     28  C   UNL     1       4.902  -5.425  23.098  0.00  0.00    +0.201 A 
ATOM     29  C   UNL     1       4.525  -4.190  23.618  0.00  0.00    +0.163 A 
ATOM     30  C   UNL     1       5.332  -3.072  23.415  0.00  0.00    +0.064 A 
BRANCH  29  31
ATOM     31  O   UNL     1       3.355  -4.128  24.323  0.00  0.00    -0.503 OA
ATOM     32  H   UNL     1       2.648  -3.835  23.721  0.00  0.00    +0.292 HD
ENDBRANCH  29  31
BRANCH  28  33
ATOM     33  O   UNL     1       4.124  -6.532  23.300  0.00  0.00    -0.501 OA
ATOM     34  H   UNL     1       3.689  -6.683  22.435  0.00  0.00    +0.292 HD
ENDBRANCH  28  33
BRANCH  27  35
ATOM     35  O   UNL     1       6.442  -6.762  21.860  0.00  0.00    -0.503 OA
ATOM     36  H   UNL     1       6.126  -6.746  20.935  0.00  0.00    +0.292 HD
ENDBRANCH  27  35
ENDBRANCH  23  25
ENDBRANCH  22  23
ENDBRANCH  14  22
ENDBRANCH   8   9
ENDBRANCH   5   8
BRANCH   3  37
ATOM     37  C   UNL     1       4.738   3.097  28.005  0.00  0.00    +0.190 C 
BRANCH  37  38
ATOM     38  O   UNL     1       4.789   3.321  26.595  0.00  0.00    -0.392 OA
ATOM     39  H   UNL     1       4.222   4.087  26.387  0.00  0.00    +0.210 HD
ENDBRANCH  37  38
ENDBRANCH   3  37
BRANCH   1  40
ATOM     40  O   UNL     1       5.174  -1.429  26.732  0.00  0.00    -0.453 OA
BRANCH  40  51
ATOM     41  C   UNL     1       5.832  -3.760  27.122  0.00  0.00    +0.181 A 
ATOM     42  O   UNL     1       5.633  -5.003  27.756  0.00  0.00    -0.451 OA
ATOM     43  C   UNL     1       4.512  -5.220  28.506  0.00  0.00    +0.147 A 
ATOM     44  C   UNL     1       3.581  -4.221  28.738  0.00  0.00    +0.109 A 
ATOM     45  C   UNL     1       2.431  -4.446  29.480  0.00  0.00    +0.135 A 
ATOM     46  C   UNL     1       2.195  -5.689  30.042  0.00  0.00    +0.091 A 
ATOM     47  C   UNL     1       3.153  -6.683  29.875  0.00  0.00    +0.124 A 
ATOM     48  C   UNL     1       3.914  -2.898  28.272  0.00  0.00    +0.238 A 
ATOM     49  O   UNL     1       3.335  -1.968  28.815  0.00  0.00    -0.283 OA
ATOM     50  C   UNL     1       4.304  -6.466  29.103  0.00  0.00    +0.092 A 
ATOM     51  C   UNL     1       4.987  -2.702  27.258  0.00  0.00    +0.214 A 
BRANCH  41  53
ATOM     52  C   UNL     1       7.860  -2.539  26.279  0.00  0.00    +0.015 A 
ATOM     53  C   UNL     1       7.141  -3.757  26.388  0.00  0.00    +0.025 A 
ATOM     54  C   UNL     1       7.718  -4.894  25.805  0.00  0.00    +0.060 A 
ATOM     55  C   UNL     1       8.892  -4.775  25.055  0.00  0.00    +0.159 A 
ATOM     56  C   UNL     1       9.509  -3.543  24.859  0.00  0.00    +0.158 A 
ATOM     57  C   UNL     1       9.024  -2.422  25.503  0.00  0.00    +0.050 A 
BRANCH  56  58
ATOM     58  O   UNL     1      10.581  -3.479  24.013  0.00  0.00    -0.503 OA
ATOM     59  H   UNL     1      10.763  -2.538  23.836  0.00  0.00    +0.292 HD
ENDBRANCH  56  58
BRANCH  55  60
ATOM     60  O   UNL     1       9.437  -5.892  24.485  0.00  0.00    -0.503 OA
ATOM     61  H   UNL     1       9.863  -6.370  25.226  0.00  0.00    +0.292 HD
ENDBRANCH  55  60
ENDBRANCH  41  53
BRANCH  47  62
ATOM     62  O   UNL     1       3.000  -7.895  30.485  0.00  0.00    -0.507 OA
ATOM     63  H   UNL     1       3.876  -8.313  30.570  0.00  0.00    +0.292 HD
ENDBRANCH  47  62
BRANCH  45  64
ATOM     64  O   UNL     1       1.494  -3.474  29.719  0.00  0.00    -0.506 OA
ATOM     65  H   UNL     1       0.760  -3.887  30.228  0.00  0.00    +0.292 HD
ENDBRANCH  45  64
ENDBRANCH  40  51
ENDBRANCH   1  40
TORSDOF 22
ENDMDL
MODEL 3
REMARK VINA RESULT:      -6.5      3.077      9.267
REMARK  Name = 
REMARK  22 active torsions:
REMARK  status: ('A' for Active; 'I' for Inactive)
REMARK    1  A    between atoms: C_3  and  O_59
REMARK    2  A    between atoms: C_4  and  O_58
REMARK    3  A    between atoms: C_6  and  C_7
REMARK    4  A    between atoms: C_8  and  O_20
REMARK    5  A    between atoms: C_12  and  O_19
REMARK    6  A    between atoms: C_14  and  O_18
REMARK    7  A    between atoms: O_20  and  C_21
REMARK    8  A    between atoms: C_23  and  O_32
REMARK    9  A    between atoms: C_25  and  O_31
REMARK   10  A    between atoms: C_26  and  C_29
REMARK   11  A    between atoms: C_29  and  O_30
REMARK   12  A    between atoms: O_32  and  C_33
REMARK   13  A    between atoms: C_35  and  O_46
REMARK   14  A    between atoms: C_36  and  O_45
REMARK   15  A    between atoms: C_38  and  O_44
REMARK   16  A    between atoms: C_40  and  C_42
REMARK   17  A    between atoms: C_42  and  O_43
REMARK   18  A    between atoms: O_46  and  C_47
REMARK   19  A    between atoms: C_47  and  C_49
REMARK   20  A    between atoms: C_51  and  O_57
REMARK   21  A    between atoms: C_52  and  O_56
REMARK   22  A    between atoms: C_53  and  O_55
REMARK                            x       y       z     vdW  Elec       q    Type
REMARK                         _______ _______ _______ _____ _____    ______ ____
ROOT
ATOM      1  C   UNL     1       3.759  -1.691  26.713  0.00  0.00    +0.340 C 
ATOM      2  O   UNL     1       4.493  -1.733  27.981  0.00  0.00    -0.331 OA
ATOM      3  C   UNL     1       3.539  -1.608  29.074  0.00  0.00    +0.179 C 
ATOM      4  C   UNL     1       2.135  -1.730  28.461  0.00  0.00    +0.180 C 
ATOM      5  C   UNL     1       2.381  -2.328  27.067  0.00  0.00    +0.221 C 
ENDROOT
BRANCH   4   6
ATOM      6  O   UNL     1       1.569  -0.402  28.375  0.00  0.00    -0.386 OA
ATOM      7  H   UNL     1       0.968  -0.324  27.617  0.00  0.00    +0.210 HD
ENDBRANCH   4   6
BRANCH   5   8
ATOM      8  O   UNL     1       2.241  -3.771  26.926  0.00  0.00    -0.336 OA
BRANCH   8   9
ATOM      9  C   UNL     1       3.172  -4.405  26.060  0.00  0.00    +0.295 C 
ATOM     10  O   UNL     1       2.485  -5.122  25.049  0.00  0.00    -0.340 OA
ATOM     11  C   UNL     1       1.777  -6.254  25.561  0.00  0.00    +0.178 C 
ATOM     12  C   UNL     1       2.783  -7.308  26.045  0.00  0.00    +0.178 C 
ATOM     13  C   UNL     1       3.760  -6.705  27.083  0.00  0.00    +0.191 C 
ATOM     14  C   UNL     1       4.266  -5.308  26.666  0.00  0.00    +0.263 C 
BRANCH  13  15
ATOM     15  O   UNL     1       3.216  -6.746  28.403  0.00  0.00    -0.385 OA
ATOM     16  H   UNL     1       3.392  -5.909  28.861  0.00  0.00    +0.210 HD
ENDBRANCH  13  15
BRANCH  12  17
ATOM     17  O   UNL     1       3.567  -7.796  24.957  0.00  0.00    -0.386 OA
ATOM     18  H   UNL     1       3.881  -8.684  25.201  0.00  0.00    +0.210 HD
ENDBRANCH  12  17
BRANCH  11  19
ATOM     19  C   UNL     1       0.776  -6.706  24.479  0.00  0.00    +0.190 C 
BRANCH  19  20
ATOM     20  O   UNL     1       1.327  -6.813  23.174  0.00  0.00    -0.392 OA
ATOM     21  H   UNL     1       1.548  -5.900  22.911  0.00  0.00    +0.210 HD
ENDBRANCH  19  20
ENDBRANCH  11  19
BRANCH  14  22
ATOM     22  O   UNL     1       5.032  -4.681  27.718  0.00  0.00    -0.450 OA
BRANCH  22  23
ATOM     23  C   UNL     1       6.272  -5.192  27.929  0.00  0.00    +0.340 C 
ATOM     24  O   UNL     1       6.579  -5.975  28.818  0.00  0.00    -0.245 OA
BRANCH  23  25
ATOM     25  C   UNL     1       7.259  -4.672  26.943  0.00  0.00    +0.066 A 
ATOM     26  C   UNL     1       7.570  -3.308  26.861  0.00  0.00    +0.064 A 
ATOM     27  C   UNL     1       8.516  -2.882  25.936  0.00  0.00    +0.163 A 
ATOM     28  C   UNL     1       9.149  -3.793  25.100  0.00  0.00    +0.201 A 
ATOM     29  C   UNL     1       8.840  -5.149  25.175  0.00  0.00    +0.163 A 
ATOM     30  C   UNL     1       7.897  -5.599  26.096  0.00  0.00    +0.064 A 
BRANCH  29  31
ATOM     31  O   UNL     1       9.493  -5.996  24.324  0.00  0.00    -0.503 OA
ATOM     32  H   UNL     1       9.917  -5.467  23.625  0.00  0.00    +0.292 HD
ENDBRANCH  29  31
BRANCH  28  33
ATOM     33  O   UNL     1      10.081  -3.339  24.208  0.00  0.00    -0.501 OA
ATOM     34  H   UNL     1       9.588  -2.711  23.640  0.00  0.00    +0.292 HD
ENDBRANCH  28  33
BRANCH  27  35
ATOM     35  O   UNL     1       8.819  -1.554  25.857  0.00  0.00    -0.503 OA
ATOM     36  H   UNL     1       9.293  -1.459  25.007  0.00  0.00    +0.292 HD
ENDBRANCH  27  35
ENDBRANCH  23  25
ENDBRANCH  22  23
ENDBRANCH  14  22
ENDBRANCH   8   9
ENDBRANCH   5   8
BRANCH   3  37
ATOM     37  C   UNL     1       3.814  -2.546  30.278  0.00  0.00    +0.190 C 
BRANCH  37  38
ATOM     38  O   UNL     1       3.623  -3.918  29.929  0.00  0.00    -0.392 OA
ATOM     39  H   UNL     1       3.002  -4.313  30.570  0.00  0.00    +0.210 HD
ENDBRANCH  37  38
ENDBRANCH   3  37
BRANCH   1  40
ATOM     40  O   UNL     1       4.546  -2.242  25.623  0.00  0.00    -0.453 OA
BRANCH  40  51
ATOM     41  C   UNL     1       6.048  -1.801  23.734  0.00  0.00    +0.181 A 
ATOM     42  O   UNL     1       6.803  -0.909  22.947  0.00  0.00    -0.451 OA
ATOM     43  C   UNL     1       6.948   0.394  23.333  0.00  0.00    +0.147 A 
ATOM     44  C   UNL     1       6.303   0.903  24.448  0.00  0.00    +0.109 A 
ATOM     45  C   UNL     1       6.466   2.219  24.854  0.00  0.00    +0.135 A 
ATOM     46  C   UNL     1       7.270   3.080  24.125  0.00  0.00    +0.091 A 
ATOM     47  C   UNL     1       7.870   2.602  22.965  0.00  0.00    +0.124 A 
ATOM     48  C   UNL     1       5.358   0.037  25.107  0.00  0.00    +0.238 A 
ATOM     49  O   UNL     1       4.508   0.584  25.796  0.00  0.00    -0.283 OA
ATOM     50  C   UNL     1       7.727   1.264  22.567  0.00  0.00    +0.092 A 
ATOM     51  C   UNL     1       5.377  -1.430  24.858  0.00  0.00    +0.214 A 
BRANCH  41  53
ATOM     52  C   UNL     1       7.129  -3.577  22.321  0.00  0.00    +0.015 A 
ATOM     53  C   UNL     1       6.012  -3.157  23.089  0.00  0.00    +0.025 A 
ATOM     54  C   UNL     1       4.941  -4.054  23.203  0.00  0.00    +0.060 A 
ATOM     55  C   UNL     1       4.955  -5.253  22.485  0.00  0.00    +0.159 A 
ATOM     56  C   UNL     1       6.011  -5.583  21.639  0.00  0.00    +0.158 A 
ATOM     57  C   UNL     1       7.125  -4.770  21.582  0.00  0.00    +0.050 A 
BRANCH  56  58
ATOM     58  O   UNL     1       5.901  -6.709  20.871  0.00  0.00    -0.503 OA
ATOM     59  H   UNL     1       6.490  -6.601  20.102  0.00  0.00    +0.292 HD
ENDBRANCH  56  58
BRANCH  55  60
ATOM     60  O   UNL     1       3.899  -6.114  22.600  0.00  0.00    -0.503 OA
ATOM     61  H   UNL     1       3.838  -6.554  21.728  0.00  0.00    +0.292 HD
ENDBRANCH  55  60
ENDBRANCH  41  53
BRANCH  47  62
ATOM     62  O   UNL     1       8.598   3.440  22.172  0.00  0.00    -0.507 OA
ATOM     63  H   UNL     1       8.884   4.204  22.705  0.00  0.00    +0.292 HD
ENDBRANCH  47  62
BRANCH  45  64
ATOM     64  O   UNL     1       5.842   2.744  25.956  0.00  0.00    -0.506 OA
ATOM     65  H   UNL     1       5.577   3.667  25.737  0.00  0.00    +0.292 HD
ENDBRANCH  45  64
ENDBRANCH  40  51
ENDBRANCH   1  40
TORSDOF 22
ENDMDL
MODEL 4
REMARK VINA RESULT:      -6.3      2.595      5.107
REMARK  Name = 
REMARK  22 active torsions:
REMARK  status: ('A' for Active; 'I' for Inactive)
REMARK    1  A    between atoms: C_3  and  O_59
REMARK    2  A    between atoms: C_4  and  O_58
REMARK    3  A    between atoms: C_6  and  C_7
REMARK    4  A    between atoms: C_8  and  O_20
REMARK    5  A    between atoms: C_12  and  O_19
REMARK    6  A    between atoms: C_14  and  O_18
REMARK    7  A    between atoms: O_20  and  C_21
REMARK    8  A    between atoms: C_23  and  O_32
REMARK    9  A    between atoms: C_25  and  O_31
REMARK   10  A    between atoms: C_26  and  C_29
REMARK   11  A    between atoms: C_29  and  O_30
REMARK   12  A    between atoms: O_32  and  C_33
REMARK   13  A    between atoms: C_35  and  O_46
REMARK   14  A    between atoms: C_36  and  O_45
REMARK   15  A    between atoms: C_38  and  O_44
REMARK   16  A    between atoms: C_40  and  C_42
REMARK   17  A    between atoms: C_42  and  O_43
REMARK   18  A    between atoms: O_46  and  C_47
REMARK   19  A    between atoms: C_47  and  C_49
REMARK   20  A    between atoms: C_51  and  O_57
REMARK   21  A    between atoms: C_52  and  O_56
REMARK   22  A    between atoms: C_53  and  O_55
REMARK                            x       y       z     vdW  Elec       q    Type
REMARK                         _______ _______ _______ _____ _____    ______ ____
ROOT
ATOM      1  C   UNL     1       5.694   0.067  26.760  0.00  0.00    +0.340 C 
ATOM      2  O   UNL     1       5.133   1.275  27.371  0.00  0.00    -0.331 OA
ATOM      3  C   UNL     1       6.195   1.975  28.080  0.00  0.00    +0.179 C 
ATOM      4  C   UNL     1       7.517   1.293  27.693  0.00  0.00    +0.180 C 
ATOM      5  C   UNL     1       7.168   0.469  26.444  0.00  0.00    +0.221 C 
ENDROOT
BRANCH   4   6
ATOM      6  O   UNL     1       7.919   0.444  28.792  0.00  0.00    -0.386 OA
ATOM      7  H   UNL     1       8.300   0.964  29.519  0.00  0.00    +0.210 HD
ENDBRANCH   4   6
BRANCH   5   8
ATOM      8  O   UNL     1       7.446   1.071  25.147  0.00  0.00    -0.336 OA
BRANCH   8   9
ATOM      9  C   UNL     1       8.808   1.077  24.744  0.00  0.00    +0.295 C 
ATOM     10  O   UNL     1       9.263   2.410  24.588  0.00  0.00    -0.340 OA
ATOM     11  C   UNL     1       8.650   3.076  23.481  0.00  0.00    +0.178 C 
ATOM     12  C   UNL     1       9.134   2.439  22.171  0.00  0.00    +0.178 C 
ATOM     13  C   UNL     1       8.866   0.914  22.165  0.00  0.00    +0.191 C 
ATOM     14  C   UNL     1       9.229   0.252  23.510  0.00  0.00    +0.263 C 
BRANCH  13  15
ATOM     15  O   UNL     1       7.544   0.614  21.717  0.00  0.00    -0.385 OA
ATOM     16  H   UNL     1       7.210  -0.175  22.172  0.00  0.00    +0.210 HD
ENDBRANCH  13  15
BRANCH  12  17
ATOM     17  O   UNL     1      10.541   2.623  22.008  0.00  0.00    -0.386 OA
ATOM     18  H   UNL     1      10.845   1.972  21.352  0.00  0.00    +0.210 HD
ENDBRANCH  12  17
BRANCH  11  19
ATOM     19  C   UNL     1       8.907   4.587  23.646  0.00  0.00    +0.190 C 
BRANCH  19  20
ATOM     20  O   UNL     1      10.222   5.003  23.304  0.00  0.00    -0.392 OA
ATOM     21  H   UNL     1      10.815   4.364  23.740  0.00  0.00    +0.210 HD
ENDBRANCH  19  20
ENDBRANCH  11  19
BRANCH  14  22
ATOM     22  O   UNL     1       8.812  -1.131  23.555  0.00  0.00    -0.450 OA
BRANCH  22  23
ATOM     23  C   UNL     1       9.787  -2.033  23.833  0.00  0.00    +0.340 C 
ATOM     24  O   UNL     1      10.926  -2.011  23.387  0.00  0.00    -0.245 OA
BRANCH  23  25
ATOM     25  C   UNL     1       9.308  -3.097  24.756  0.00  0.00    +0.066 A 
ATOM     26  C   UNL     1       9.782  -4.414  24.672  0.00  0.00    +0.064 A 
ATOM     27  C   UNL     1       9.316  -5.362  25.576  0.00  0.00    +0.163 A 
ATOM     28  C   UNL     1       8.392  -5.014  26.553  0.00  0.00    +0.201 A 
ATOM     29  C   UNL     1       7.916  -3.709  26.638  0.00  0.00    +0.163 A 
ATOM     30  C   UNL     1       8.370  -2.741  25.745  0.00  0.00    +0.064 A 
BRANCH  29  31
ATOM     31  O   UNL     1       7.005  -3.428  27.618  0.00  0.00    -0.503 OA
ATOM     32  H   UNL     1       6.745  -2.492  27.540  0.00  0.00    +0.292 HD
ENDBRANCH  29  31
BRANCH  28  33
ATOM     33  O   UNL     1       7.962  -5.971  27.431  0.00  0.00    -0.501 OA
ATOM     34  H   UNL     1       7.696  -5.467  28.228  0.00  0.00    +0.292 HD
ENDBRANCH  28  33
BRANCH  27  35
ATOM     35  O   UNL     1       9.777  -6.643  25.494  0.00  0.00    -0.503 OA
ATOM     36  H   UNL     1       8.984  -7.180  25.298  0.00  0.00    +0.292 HD
ENDBRANCH  27  35
ENDBRANCH  23  25
ENDBRANCH  22  23
ENDBRANCH  14  22
ENDBRANCH   8   9
ENDBRANCH   5   8
BRANCH   3  37
ATOM     37  C   UNL     1       6.175   3.516  27.908  0.00  0.00    +0.190 C 
BRANCH  37  38
ATOM     38  O   UNL     1       6.582   3.903  26.595  0.00  0.00    -0.392 OA
ATOM     39  H   UNL     1       7.518   4.176  26.633  0.00  0.00    +0.210 HD
ENDBRANCH  37  38
ENDBRANCH   3  37
BRANCH   1  40
ATOM     40  O   UNL     1       4.844  -0.437  25.696  0.00  0.00    -0.453 OA
BRANCH  40  51
ATOM     41  C   UNL     1       4.321  -2.833  25.763  0.00  0.00    +0.181 A 
ATOM     42  O   UNL     1       4.407  -4.126  25.208  0.00  0.00    -0.451 OA
ATOM     43  C   UNL     1       5.214  -4.358  24.130  0.00  0.00    +0.147 A 
ATOM     44  C   UNL     1       5.905  -3.337  23.499  0.00  0.00    +0.109 A 
ATOM     45  C   UNL     1       6.743  -3.574  22.419  0.00  0.00    +0.135 A 
ATOM     46  C   UNL     1       6.889  -4.857  21.918  0.00  0.00    +0.091 A 
ATOM     47  C   UNL     1       6.149  -5.882  22.497  0.00  0.00    +0.124 A 
ATOM     48  C   UNL     1       5.628  -1.993  23.939  0.00  0.00    +0.238 A 
ATOM     49  O   UNL     1       5.890  -1.097  23.149  0.00  0.00    -0.283 OA
ATOM     50  C   UNL     1       5.321  -5.648  23.606  0.00  0.00    +0.092 A 
ATOM     51  C   UNL     1       4.960  -1.749  25.247  0.00  0.00    +0.214 A 
BRANCH  41  53
ATOM     52  C   UNL     1       2.037  -2.343  26.692  0.00  0.00    +0.015 A 
ATOM     53  C   UNL     1       3.353  -2.827  26.911  0.00  0.00    +0.025 A 
ATOM     54  C   UNL     1       3.659  -3.283  28.200  0.00  0.00    +0.060 A 
ATOM     55  C   UNL     1       2.724  -3.146  29.231  0.00  0.00    +0.159 A 
ATOM     56  C   UNL     1       1.484  -2.551  29.014  0.00  0.00    +0.158 A 
ATOM     57  C   UNL     1       1.114  -2.183  27.736  0.00  0.00    +0.050 A 
BRANCH  56  58
ATOM     58  O   UNL     1       0.670  -2.334  30.091  0.00  0.00    -0.503 OA
ATOM     59  H   UNL     1       1.231  -2.318  30.888  0.00  0.00    +0.292 HD
ENDBRANCH  56  58
BRANCH  55  60
ATOM     60  O   UNL     1       3.042  -3.588  30.485  0.00  0.00    -0.503 OA
ATOM     61  H   UNL     1       2.222  -3.472  31.007  0.00  0.00    +0.292 HD
ENDBRANCH  55  60
ENDBRANCH  41  53
BRANCH  47  62
ATOM     62  O   UNL     1       6.197  -7.143  21.978  0.00  0.00    -0.507 OA
ATOM     63  H   UNL     1       6.290  -7.079  21.011  0.00  0.00    +0.292 HD
ENDBRANCH  47  62
BRANCH  45  64
ATOM     64  O   UNL     1       7.440  -2.580  21.782  0.00  0.00    -0.506 OA
ATOM     65  H   UNL     1       7.085  -1.718  22.098  0.00  0.00    +0.292 HD
ENDBRANCH  45  64
ENDBRANCH  40  51
ENDBRANCH   1  40
TORSDOF 22
ENDMDL
MODEL 5
REMARK VINA RESULT:      -6.3      2.281      8.259
REMARK  Name = 
REMARK  22 active torsions:
REMARK  status: ('A' for Active; 'I' for Inactive)
REMARK    1  A    between atoms: C_3  and  O_59
REMARK    2  A    between atoms: C_4  and  O_58
REMARK    3  A    between atoms: C_6  and  C_7
REMARK    4  A    between atoms: C_8  and  O_20
REMARK    5  A    between atoms: C_12  and  O_19
REMARK    6  A    between atoms: C_14  and  O_18
REMARK    7  A    between atoms: O_20  and  C_21
REMARK    8  A    between atoms: C_23  and  O_32
REMARK    9  A    between atoms: C_25  and  O_31
REMARK   10  A    between atoms: C_26  and  C_29
REMARK   11  A    between atoms: C_29  and  O_30
REMARK   12  A    between atoms: O_32  and  C_33
REMARK   13  A    between atoms: C_35  and  O_46
REMARK   14  A    between atoms: C_36  and  O_45
REMARK   15  A    between atoms: C_38  and  O_44
REMARK   16  A    between atoms: C_40  and  C_42
REMARK   17  A    between atoms: C_42  and  O_43
REMARK   18  A    between atoms: O_46  and  C_47
REMARK   19  A    between atoms: C_47  and  C_49
REMARK   20  A    between atoms: C_51  and  O_57
REMARK   21  A    between atoms: C_52  and  O_56
REMARK   22  A    between atoms: C_53  and  O_55
REMARK                            x       y       z     vdW  Elec       q    Type
REMARK                         _______ _______ _______ _____ _____    ______ ____
ROOT
ATOM      1  C   UNL     1       6.279   1.995  26.529  0.00  0.00    +0.340 C 
ATOM      2  O   UNL     1       7.263   2.410  27.532  0.00  0.00    -0.331 OA
ATOM      3  C   UNL     1       6.610   2.458  28.833  0.00  0.00    +0.179 C 
ATOM      4  C   UNL     1       5.223   1.818  28.662  0.00  0.00    +0.180 C 
ATOM      5  C   UNL     1       5.315   1.063  27.326  0.00  0.00    +0.221 C 
ENDROOT
BRANCH   4   6
ATOM      6  O   UNL     1       4.245   2.881  28.603  0.00  0.00    -0.386 OA
ATOM      7  H   UNL     1       4.507   3.566  27.967  0.00  0.00    +0.210 HD
ENDBRANCH   4   6
BRANCH   5   8
ATOM      8  O   UNL     1       5.633  -0.357  27.383  0.00  0.00    -0.336 OA
BRANCH   8   9
ATOM      9  C   UNL     1       4.809  -1.210  26.601  0.00  0.00    +0.295 C 
ATOM     10  O   UNL     1       3.551  -0.597  26.375  0.00  0.00    -0.340 OA
ATOM     11  C   UNL     1       2.771  -0.484  27.568  0.00  0.00    +0.178 C 
ATOM     12  C   UNL     1       2.343  -1.883  28.031  0.00  0.00    +0.178 C 
ATOM     13  C   UNL     1       3.572  -2.806  28.216  0.00  0.00    +0.191 C 
ATOM     14  C   UNL     1       4.585  -2.666  27.061  0.00  0.00    +0.263 C 
BRANCH  13  15
ATOM     15  O   UNL     1       4.155  -2.652  29.511  0.00  0.00    -0.385 OA
ATOM     16  H   UNL     1       3.540  -2.185  30.098  0.00  0.00    +0.210 HD
ENDBRANCH  13  15
BRANCH  12  17
ATOM     17  O   UNL     1       1.492  -2.499  27.064  0.00  0.00    -0.386 OA
ATOM     18  H   UNL     1       2.057  -2.806  26.334  0.00  0.00    +0.210 HD
ENDBRANCH  12  17
BRANCH  11  19
ATOM     19  C   UNL     1       1.638   0.524  27.290  0.00  0.00    +0.190 C 
BRANCH  19  20
ATOM     20  O   UNL     1       0.807   0.187  26.187  0.00  0.00    -0.392 OA
ATOM     21  H   UNL     1       0.526   1.040  25.807  0.00  0.00    +0.210 HD
ENDBRANCH  19  20
ENDBRANCH  11  19
BRANCH  14  22
ATOM     22  O   UNL     1       5.805  -3.393  27.330  0.00  0.00    -0.450 OA
BRANCH  22  23
ATOM     23  C   UNL     1       5.725  -4.743  27.208  0.00  0.00    +0.340 C 
ATOM     24  O   UNL     1       5.760  -5.545  28.132  0.00  0.00    -0.245 OA
BRANCH  23  25
ATOM     25  C   UNL     1       5.604  -5.163  25.785  0.00  0.00    +0.066 A 
ATOM     26  C   UNL     1       6.357  -4.557  24.770  0.00  0.00    +0.064 A 
ATOM     27  C   UNL     1       6.218  -5.006  23.463  0.00  0.00    +0.163 A 
ATOM     28  C   UNL     1       5.346  -6.043  23.159  0.00  0.00    +0.201 A 
ATOM     29  C   UNL     1       4.593  -6.646  24.163  0.00  0.00    +0.163 A 
ATOM     30  C   UNL     1       4.717  -6.214  25.481  0.00  0.00    +0.064 A 
BRANCH  29  31
ATOM     31  O   UNL     1       3.749  -7.659  23.801  0.00  0.00    -0.503 OA
ATOM     32  H   UNL     1       4.000  -8.461  24.294  0.00  0.00    +0.292 HD
ENDBRANCH  29  31
BRANCH  28  33
ATOM     33  O   UNL     1       5.242  -6.465  21.861  0.00  0.00    -0.501 OA
ATOM     34  H   UNL     1       4.630  -7.229  21.903  0.00  0.00    +0.292 HD
ENDBRANCH  28  33
BRANCH  27  35
ATOM     35  O   UNL     1       6.952  -4.416  22.475  0.00  0.00    -0.503 OA
ATOM     36  H   UNL     1       7.370  -5.160  21.999  0.00  0.00    +0.292 HD
ENDBRANCH  27  35
ENDBRANCH  23  25
ENDBRANCH  22  23
ENDBRANCH  14  22
ENDBRANCH   8   9
ENDBRANCH   5   8
BRANCH   3  37
ATOM     37  C   UNL     1       7.458   1.887  29.999  0.00  0.00    +0.190 C 
BRANCH  37  38
ATOM     38  O   UNL     1       8.353   0.869  29.549  0.00  0.00    -0.392 OA
ATOM     39  H   UNL     1       7.996   0.004  29.827  0.00  0.00    +0.210 HD
ENDBRANCH  37  38
ENDBRANCH   3  37
BRANCH   1  40
ATOM     40  O   UNL     1       6.921   1.500  25.324  0.00  0.00    -0.453 OA
BRANCH  40  51
ATOM     41  C   UNL     1       9.243   1.347  24.547  0.00  0.00    +0.181 A 
ATOM     42  O   UNL     1      10.402   1.946  24.013  0.00  0.00    -0.451 OA
ATOM     43  C   UNL     1      10.468   3.302  23.862  0.00  0.00    +0.147 A 
ATOM     44  C   UNL     1       9.389   4.123  24.145  0.00  0.00    +0.109 A 
ATOM     45  C   UNL     1       9.461   5.502  24.014  0.00  0.00    +0.135 A 
ATOM     46  C   UNL     1      10.625   6.100  23.561  0.00  0.00    +0.091 A 
ATOM     47  C   UNL     1      11.694   5.285  23.207  0.00  0.00    +0.124 A 
ATOM     48  C   UNL     1       8.144   3.475  24.472  0.00  0.00    +0.238 A 
ATOM     49  O   UNL     1       7.128   4.136  24.313  0.00  0.00    -0.283 OA
ATOM     50  C   UNL     1      11.632   3.891  23.364  0.00  0.00    +0.092 A 
ATOM     51  C   UNL     1       8.122   2.043  24.878  0.00  0.00    +0.214 A 
BRANCH  41  53
ATOM     52  C   UNL     1      10.006  -0.795  23.477  0.00  0.00    +0.015 A 
ATOM     53  C   UNL     1       9.402  -0.145  24.584  0.00  0.00    +0.025 A 
ATOM     54  C   UNL     1       8.999  -0.952  25.657  0.00  0.00    +0.060 A 
ATOM     55  C   UNL     1       9.097  -2.344  25.560  0.00  0.00    +0.159 A 
ATOM     56  C   UNL     1       9.578  -2.961  24.409  0.00  0.00    +0.158 A 
ATOM     57  C   UNL     1      10.076  -2.193  23.375  0.00  0.00    +0.050 A 
BRANCH  56  58
ATOM     58  O   UNL     1       9.528  -4.326  24.333  0.00  0.00    -0.503 OA
ATOM     59  H   UNL     1      10.317  -4.676  24.785  0.00  0.00    +0.292 HD
ENDBRANCH  56  58
BRANCH  55  60
ATOM     60  O   UNL     1       8.691  -3.117  26.612  0.00  0.00    -0.503 OA
ATOM     61  H   UNL     1       9.508  -3.549  26.936  0.00  0.00    +0.292 HD
ENDBRANCH  55  60
ENDBRANCH  41  53
BRANCH  47  62
ATOM     62  O   UNL     1      12.827   5.827  22.675  0.00  0.00    -0.507 OA
ATOM     63  H   UNL     1      13.073   5.319  21.881  0.00  0.00    +0.292 HD
ENDBRANCH  47  62
BRANCH  45  64
ATOM     64  O   UNL     1       8.408   6.335  24.292  0.00  0.00    -0.506 OA
ATOM     65  H   UNL     1       7.624   5.770  24.482  0.00  0.00    +0.292 HD
ENDBRANCH  45  64
ENDBRANCH  40  51
ENDBRANCH   1  40
TORSDOF 22
ENDMDL
MODEL 6
REMARK VINA RESULT:      -6.3      2.544      6.723
REMARK  Name = 
REMARK  22 active torsions:
REMARK  status: ('A' for Active; 'I' for Inactive)
REMARK    1  A    between atoms: C_3  and  O_59
REMARK    2  A    between atoms: C_4  and  O_58
REMARK    3  A    between atoms: C_6  and  C_7
REMARK    4  A    between atoms: C_8  and  O_20
REMARK    5  A    between atoms: C_12  and  O_19
REMARK    6  A    between atoms: C_14  and  O_18
REMARK    7  A    between atoms: O_20  and  C_21
REMARK    8  A    between atoms: C_23  and  O_32
REMARK    9  A    between atoms: C_25  and  O_31
REMARK   10  A    between atoms: C_26  and  C_29
REMARK   11  A    between atoms: C_29  and  O_30
REMARK   12  A    between atoms: O_32  and  C_33
REMARK   13  A    between atoms: C_35  and  O_46
REMARK   14  A    between atoms: C_36  and  O_45
REMARK   15  A    between atoms: C_38  and  O_44
REMARK   16  A    between atoms: C_40  and  C_42
REMARK   17  A    between atoms: C_42  and  O_43
REMARK   18  A    between atoms: O_46  and  C_47
REMARK   19  A    between atoms: C_47  and  C_49
REMARK   20  A    between atoms: C_51  and  O_57
REMARK   21  A    between atoms: C_52  and  O_56
REMARK   22  A    between atoms: C_53  and  O_55
REMARK                            x       y       z     vdW  Elec       q    Type
REMARK                         _______ _______ _______ _____ _____    ______ ____
ROOT
ATOM      1  C   UNL     1       5.930   1.832  25.818  0.00  0.00    +0.340 C 
ATOM      2  O   UNL     1       5.694   3.172  26.363  0.00  0.00    -0.331 OA
ATOM      3  C   UNL     1       4.322   3.559  26.067  0.00  0.00    +0.179 C 
ATOM      4  C   UNL     1       3.610   2.311  25.524  0.00  0.00    +0.180 C 
ATOM      5  C   UNL     1       4.533   1.146  25.918  0.00  0.00    +0.221 C 
ENDROOT
BRANCH   4   6
ATOM      6  O   UNL     1       3.511   2.444  24.087  0.00  0.00    -0.386 OA
ATOM      7  H   UNL     1       2.932   1.763  23.709  0.00  0.00    +0.210 HD
ENDBRANCH   4   6
BRANCH   5   8
ATOM      8  O   UNL     1       4.213   0.427  27.144  0.00  0.00    -0.336 OA
BRANCH   8   9
ATOM      9  C   UNL     1       2.971  -0.262  27.154  0.00  0.00    +0.295 C 
ATOM     10  O   UNL     1       2.127   0.272  28.160  0.00  0.00    -0.340 OA
ATOM     11  C   UNL     1       2.601  -0.002  29.480  0.00  0.00    +0.178 C 
ATOM     12  C   UNL     1       2.485  -1.507  29.761  0.00  0.00    +0.178 C 
ATOM     13  C   UNL     1       3.231  -2.330  28.683  0.00  0.00    +0.191 C 
ATOM     14  C   UNL     1       2.967  -1.802  27.258  0.00  0.00    +0.263 C 
BRANCH  13  15
ATOM     15  O   UNL     1       4.618  -2.470  28.995  0.00  0.00    -0.385 OA
ATOM     16  H   UNL     1       4.941  -1.669  29.437  0.00  0.00    +0.210 HD
ENDBRANCH  13  15
BRANCH  12  17
ATOM     17  O   UNL     1       1.118  -1.921  29.741  0.00  0.00    -0.386 OA
ATOM     18  H   UNL     1       1.006  -2.516  28.980  0.00  0.00    +0.210 HD
ENDBRANCH  12  17
BRANCH  11  19
ATOM     19  C   UNL     1       1.854   0.937  30.449  0.00  0.00    +0.190 C 
BRANCH  19  20
ATOM     20  O   UNL     1       1.015   1.892  29.814  0.00  0.00    -0.392 OA
ATOM     21  H   UNL     1       0.649   2.434  30.537  0.00  0.00    +0.210 HD
ENDBRANCH  19  20
ENDBRANCH  11  19
BRANCH  14  22
ATOM     22  O   UNL     1       3.803  -2.460  26.281  0.00  0.00    -0.450 OA
BRANCH  22  23
ATOM     23  C   UNL     1       3.147  -3.138  25.305  0.00  0.00    +0.340 C 
ATOM     24  O   UNL     1       1.942  -3.099  25.097  0.00  0.00    -0.245 OA
BRANCH  23  25
ATOM     25  C   UNL     1       4.074  -3.975  24.495  0.00  0.00    +0.066 A 
ATOM     26  C   UNL     1       4.017  -5.376  24.523  0.00  0.00    +0.064 A 
ATOM     27  C   UNL     1       4.892  -6.106  23.728  0.00  0.00    +0.163 A 
ATOM     28  C   UNL     1       5.814  -5.462  22.913  0.00  0.00    +0.201 A 
ATOM     29  C   UNL     1       5.877  -4.071  22.885  0.00  0.00    +0.163 A 
ATOM     30  C   UNL     1       5.008  -3.318  23.671  0.00  0.00    +0.064 A 
BRANCH  29  31
ATOM     31  O   UNL     1       6.808  -3.494  22.067  0.00  0.00    -0.503 OA
ATOM     32  H   UNL     1       7.584  -4.081  22.019  0.00  0.00    +0.292 HD
ENDBRANCH  29  31
BRANCH  28  33
ATOM     33  O   UNL     1       6.655  -6.213  22.138  0.00  0.00    -0.501 OA
ATOM     34  H   UNL     1       6.401  -7.139  22.332  0.00  0.00    +0.292 HD
ENDBRANCH  28  33
BRANCH  27  35
ATOM     35  O   UNL     1       4.837  -7.469  23.755  0.00  0.00    -0.503 OA
ATOM     36  H   UNL     1       5.579  -7.759  23.189  0.00  0.00    +0.292 HD
ENDBRANCH  27  35
ENDBRANCH  23  25
ENDBRANCH  22  23
ENDBRANCH  14  22
ENDBRANCH   8   9
ENDBRANCH   5   8
BRANCH   3  37
ATOM     37  C   UNL     1       3.592   4.277  27.233  0.00  0.00    +0.190 C 
BRANCH  37  38
ATOM     38  O   UNL     1       3.023   3.342  28.150  0.00  0.00    -0.392 OA
ATOM     39  H   UNL     1       3.530   2.511  28.093  0.00  0.00    +0.210 HD
ENDBRANCH  37  38
ENDBRANCH   3  37
BRANCH   1  40
ATOM     40  O   UNL     1       7.085   1.201  26.434  0.00  0.00    -0.453 OA
BRANCH  40  51
ATOM     41  C   UNL     1       8.634   0.021  24.942  0.00  0.00    +0.181 A 
ATOM     42  O   UNL     1       9.237  -1.170  24.490  0.00  0.00    -0.451 OA
ATOM     43  C   UNL     1       8.799  -2.379  24.950  0.00  0.00    +0.147 A 
ATOM     44  C   UNL     1       7.819  -2.481  25.924  0.00  0.00    +0.109 A 
ATOM     45  C   UNL     1       7.357  -3.708  26.376  0.00  0.00    +0.135 A 
ATOM     46  C   UNL     1       7.894  -4.883  25.877  0.00  0.00    +0.091 A 
ATOM     47  C   UNL     1       8.926  -4.797  24.949  0.00  0.00    +0.124 A 
ATOM     48  C   UNL     1       7.377  -1.253  26.535  0.00  0.00    +0.238 A 
ATOM     49  O   UNL     1       6.854  -1.351  27.636  0.00  0.00    -0.283 OA
ATOM     50  C   UNL     1       9.377  -3.557  24.472  0.00  0.00    +0.092 A 
ATOM     51  C   UNL     1       7.654   0.057  25.885  0.00  0.00    +0.214 A 
BRANCH  41  53
ATOM     52  C   UNL     1      10.721   1.212  24.204  0.00  0.00    +0.015 A 
ATOM     53  C   UNL     1       9.307   1.210  24.319  0.00  0.00    +0.025 A 
ATOM     54  C   UNL     1       8.624   2.330  23.826  0.00  0.00    +0.060 A 
ATOM     55  C   UNL     1       9.341   3.433  23.353  0.00  0.00    +0.159 A 
ATOM     56  C   UNL     1      10.733   3.458  23.368  0.00  0.00    +0.158 A 
ATOM     57  C   UNL     1      11.435   2.333  23.753  0.00  0.00    +0.050 A 
BRANCH  56  58
ATOM     58  O   UNL     1      11.367   4.615  23.010  0.00  0.00    -0.503 OA
ATOM     59  H   UNL     1      11.702   4.500  22.102  0.00  0.00    +0.292 HD
ENDBRANCH  56  58
BRANCH  55  60
ATOM     60  O   UNL     1       8.660   4.522  22.883  0.00  0.00    -0.503 OA
ATOM     61  H   UNL     1       8.933   4.604  21.947  0.00  0.00    +0.292 HD
ENDBRANCH  55  60
ENDBRANCH  41  53
BRANCH  47  62
ATOM     62  O   UNL     1       9.542  -5.929  24.498  0.00  0.00    -0.507 OA
ATOM     63  H   UNL     1      10.499  -5.759  24.436  0.00  0.00    +0.292 HD
ENDBRANCH  47  62
BRANCH  45  64
ATOM     64  O   UNL     1       6.385  -3.833  27.335  0.00  0.00    -0.506 OA
ATOM     65  H   UNL     1       6.386  -4.770  27.639  0.00  0.00    +0.292 HD
ENDBRANCH  45  64
ENDBRANCH  40  51
ENDBRANCH   1  40
TORSDOF 22
ENDMDL
MODEL 7
REMARK VINA RESULT:      -6.3      2.722      5.871
REMARK  Name = 
REMARK  22 active torsions:
REMARK  status: ('A' for Active; 'I' for Inactive)
REMARK    1  A    between atoms: C_3  and  O_59
REMARK    2  A    between atoms: C_4  and  O_58
REMARK    3  A    between atoms: C_6  and  C_7
REMARK    4  A    between atoms: C_8  and  O_20
REMARK    5  A    between atoms: C_12  and  O_19
REMARK    6  A    between atoms: C_14  and  O_18
REMARK    7  A    between atoms: O_20  and  C_21
REMARK    8  A    between atoms: C_23  and  O_32
REMARK    9  A    between atoms: C_25  and  O_31
REMARK   10  A    between atoms: C_26  and  C_29
REMARK   11  A    between atoms: C_29  and  O_30
REMARK   12  A    between atoms: O_32  and  C_33
REMARK   13  A    between atoms: C_35  and  O_46
REMARK   14  A    between atoms: C_36  and  O_45
REMARK   15  A    between atoms: C_38  and  O_44
REMARK   16  A    between atoms: C_40  and  C_42
REMARK   17  A    between atoms: C_42  and  O_43
REMARK   18  A    between atoms: O_46  and  C_47
REMARK   19  A    between atoms: C_47  and  C_49
REMARK   20  A    between atoms: C_51  and  O_57
REMARK   21  A    between atoms: C_52  and  O_56
REMARK   22  A    between atoms: C_53  and  O_55
REMARK                            x       y       z     vdW  Elec       q    Type
REMARK                         _______ _______ _______ _____ _____    ______ ____
ROOT
ATOM      1  C   UNL     1       5.230   0.282  26.013  0.00  0.00    +0.340 C 
ATOM      2  O   UNL     1       4.096   1.072  25.524  0.00  0.00    -0.331 OA
ATOM      3  C   UNL     1       4.414   2.485  25.677  0.00  0.00    +0.179 C 
ATOM      4  C   UNL     1       5.900   2.573  26.057  0.00  0.00    +0.180 C 
ATOM      5  C   UNL     1       6.464   1.186  25.707  0.00  0.00    +0.221 C 
ENDROOT
BRANCH   4   6
ATOM      6  O   UNL     1       5.982   2.835  27.477  0.00  0.00    -0.386 OA
ATOM      7  H   UNL     1       6.900   2.793  27.791  0.00  0.00    +0.210 HD
ENDBRANCH   4   6
BRANCH   5   8
ATOM      8  O   UNL     1       7.113   1.038  24.412  0.00  0.00    -0.336 OA
BRANCH   8   9
ATOM      9  C   UNL     1       8.533   1.072  24.421  0.00  0.00    +0.295 C 
ATOM     10  O   UNL     1       8.986   2.394  24.658  0.00  0.00    -0.340 OA
ATOM     11  C   UNL     1       8.699   3.278  23.572  0.00  0.00    +0.178 C 
ATOM     12  C   UNL     1       9.550   2.884  22.356  0.00  0.00    +0.178 C 
ATOM     13  C   UNL     1       9.327   1.399  21.982  0.00  0.00    +0.191 C 
ATOM     14  C   UNL     1       9.306   0.481  23.222  0.00  0.00    +0.263 C 
BRANCH  13  15
ATOM     15  O   UNL     1       8.194   1.235  21.129  0.00  0.00    -0.385 OA
ATOM     16  H   UNL     1       7.964   0.295  21.059  0.00  0.00    +0.210 HD
ENDBRANCH  13  15
BRANCH  12  17
ATOM     17  O   UNL     1      10.941   3.047  22.637  0.00  0.00    -0.386 OA
ATOM     18  H   UNL     1      11.140   2.522  23.432  0.00  0.00    +0.210 HD
ENDBRANCH  12  17
BRANCH  11  19
ATOM     19  C   UNL     1       8.866   4.721  24.088  0.00  0.00    +0.190 C 
BRANCH  19  20
ATOM     20  O   UNL     1       9.691   5.546  23.277  0.00  0.00    -0.392 OA
ATOM     21  H   UNL     1       9.559   5.225  22.365  0.00  0.00    +0.210 HD
ENDBRANCH  19  20
ENDBRANCH  11  19
BRANCH  14  22
ATOM     22  O   UNL     1       8.922  -0.870  22.882  0.00  0.00    -0.450 OA
BRANCH  22  23
ATOM     23  C   UNL     1       9.834  -1.832  23.171  0.00  0.00    +0.340 C 
ATOM     24  O   UNL     1      10.897  -2.004  22.590  0.00  0.00    -0.245 OA
BRANCH  23  25
ATOM     25  C   UNL     1       9.385  -2.699  24.295  0.00  0.00    +0.066 A 
ATOM     26  C   UNL     1       8.463  -2.248  25.250  0.00  0.00    +0.064 A 
ATOM     27  C   UNL     1       8.063  -3.109  26.265  0.00  0.00    +0.163 A 
ATOM     28  C   UNL     1       8.567  -4.401  26.337  0.00  0.00    +0.201 A 
ATOM     29  C   UNL     1       9.485  -4.852  25.394  0.00  0.00    +0.163 A 
ATOM     30  C   UNL     1       9.900  -4.008  24.366  0.00  0.00    +0.064 A 
BRANCH  29  31
ATOM     31  O   UNL     1       9.948  -6.132  25.519  0.00  0.00    -0.503 OA
ATOM     32  H   UNL     1      10.878  -6.154  25.229  0.00  0.00    +0.292 HD
ENDBRANCH  29  31
BRANCH  28  33
ATOM     33  O   UNL     1       8.143  -5.224  27.345  0.00  0.00    -0.501 OA
ATOM     34  H   UNL     1       8.751  -5.028  28.089  0.00  0.00    +0.292 HD
ENDBRANCH  28  33
BRANCH  27  35
ATOM     35  O   UNL     1       7.165  -2.671  27.194  0.00  0.00    -0.503 OA
ATOM     36  H   UNL     1       6.766  -1.872  26.796  0.00  0.00    +0.292 HD
ENDBRANCH  27  35
ENDBRANCH  23  25
ENDBRANCH  22  23
ENDBRANCH  14  22
ENDBRANCH   8   9
ENDBRANCH   5   8
BRANCH   3  37
ATOM     37  C   UNL     1       3.989   3.372  24.477  0.00  0.00    +0.190 C 
BRANCH  37  38
ATOM     38  O   UNL     1       3.784   2.595  23.297  0.00  0.00    -0.392 OA
ATOM     39  H   UNL     1       3.554   3.202  22.568  0.00  0.00    +0.210 HD
ENDBRANCH  37  38
ENDBRANCH   3  37
BRANCH   1  40
ATOM     40  O   UNL     1       5.193  -1.077  25.503  0.00  0.00    -0.453 OA
BRANCH  40  51
ATOM     41  C   UNL     1       4.192  -3.313  25.642  0.00  0.00    +0.181 A 
ATOM     42  O   UNL     1       3.404  -4.266  26.317  0.00  0.00    -0.451 OA
ATOM     43  C   UNL     1       2.705  -3.912  27.436  0.00  0.00    +0.147 A 
ATOM     44  C   UNL     1       2.804  -2.646  27.991  0.00  0.00    +0.109 A 
ATOM     45  C   UNL     1       2.078  -2.278  29.113  0.00  0.00    +0.135 A 
ATOM     46  C   UNL     1       1.243  -3.191  29.735  0.00  0.00    +0.091 A 
ATOM     47  C   UNL     1       1.185  -4.486  29.231  0.00  0.00    +0.124 A 
ATOM     48  C   UNL     1       3.785  -1.759  27.419  0.00  0.00    +0.238 A 
ATOM     49  O   UNL     1       4.167  -0.840  28.131  0.00  0.00    -0.283 OA
ATOM     50  C   UNL     1       1.899  -4.853  28.081  0.00  0.00    +0.092 A 
ATOM     51  C   UNL     1       4.361  -2.034  26.075  0.00  0.00    +0.214 A 
BRANCH  41  53
ATOM     52  C   UNL     1       5.562  -5.178  24.662  0.00  0.00    +0.015 A 
ATOM     53  C   UNL     1       4.881  -3.948  24.469  0.00  0.00    +0.025 A 
ATOM     54  C   UNL     1       4.890  -3.409  23.175  0.00  0.00    +0.060 A 
ATOM     55  C   UNL     1       5.642  -4.020  22.168  0.00  0.00    +0.159 A 
ATOM     56  C   UNL     1       6.403  -5.159  22.418  0.00  0.00    +0.158 A 
ATOM     57  C   UNL     1       6.337  -5.772  23.653  0.00  0.00    +0.050 A 
BRANCH  56  58
ATOM     58  O   UNL     1       7.214  -5.631  21.422  0.00  0.00    -0.503 OA
ATOM     59  H   UNL     1       7.306  -4.925  20.757  0.00  0.00    +0.292 HD
ENDBRANCH  56  58
BRANCH  55  60
ATOM     60  O   UNL     1       5.647  -3.476  20.913  0.00  0.00    -0.503 OA
ATOM     61  H   UNL     1       5.380  -2.544  21.044  0.00  0.00    +0.292 HD
ENDBRANCH  55  60
ENDBRANCH  41  53
BRANCH  47  62
ATOM     62  O   UNL     1       0.443  -5.439  29.866  0.00  0.00    -0.507 OA
ATOM     63  H   UNL     1       0.638  -5.401  30.820  0.00  0.00    +0.292 HD
ENDBRANCH  47  62
BRANCH  45  64
ATOM     64  O   UNL     1       2.156  -1.030  29.677  0.00  0.00    -0.506 OA
ATOM     65  H   UNL     1       3.069  -0.694  29.529  0.00  0.00    +0.292 HD
ENDBRANCH  45  64
ENDBRANCH  40  51
ENDBRANCH   1  40
TORSDOF 22
ENDMDL
MODEL 8
REMARK VINA RESULT:      -6.3      2.141      7.892
REMARK  Name = 
REMARK  22 active torsions:
REMARK  status: ('A' for Active; 'I' for Inactive)
REMARK    1  A    between atoms: C_3  and  O_59
REMARK    2  A    between atoms: C_4  and  O_58
REMARK    3  A    between atoms: C_6  and  C_7
REMARK    4  A    between atoms: C_8  and  O_20
REMARK    5  A    between atoms: C_12  and  O_19
REMARK    6  A    between atoms: C_14  and  O_18
REMARK    7  A    between atoms: O_20  and  C_21
REMARK    8  A    between atoms: C_23  and  O_32
REMARK    9  A    between atoms: C_25  and  O_31
REMARK   10  A    between atoms: C_26  and  C_29
REMARK   11  A    between atoms: C_29  and  O_30
REMARK   12  A    between atoms: O_32  and  C_33
REMARK   13  A    between atoms: C_35  and  O_46
REMARK   14  A    between atoms: C_36  and  O_45
REMARK   15  A    between atoms: C_38  and  O_44
REMARK   16  A    between atoms: C_40  and  C_42
REMARK   17  A    between atoms: C_42  and  O_43
REMARK   18  A    between atoms: O_46  and  C_47
REMARK   19  A    between atoms: C_47  and  C_49
REMARK   20  A    between atoms: C_51  and  O_57
REMARK   21  A    between atoms: C_52  and  O_56
REMARK   22  A    between atoms: C_53  and  O_55
REMARK                            x       y       z     vdW  Elec       q    Type
REMARK                         _______ _______ _______ _____ _____    ______ ____
ROOT
ATOM      1  C   UNL     1       5.420   2.051  24.857  0.00  0.00    +0.340 C 
ATOM      2  O   UNL     1       6.143   2.351  26.096  0.00  0.00    -0.331 OA
ATOM      3  C   UNL     1       5.879   1.291  27.058  0.00  0.00    +0.179 C 
ATOM      4  C   UNL     1       5.152   0.169  26.300  0.00  0.00    +0.180 C 
ATOM      5  C   UNL     1       5.396   0.492  24.818  0.00  0.00    +0.221 C 
ENDROOT
BRANCH   4   6
ATOM      6  O   UNL     1       3.746   0.244  26.634  0.00  0.00    -0.386 OA
ATOM      7  H   UNL     1       3.618   0.399  27.584  0.00  0.00    +0.210 HD
ENDBRANCH   4   6
BRANCH   5   8
ATOM      8  O   UNL     1       6.501  -0.190  24.159  0.00  0.00    -0.336 OA
BRANCH   8   9
ATOM      9  C   UNL     1       7.043  -1.307  24.850  0.00  0.00    +0.295 C 
ATOM     10  O   UNL     1       8.425  -1.106  25.090  0.00  0.00    -0.340 OA
ATOM     11  C   UNL     1       9.202  -1.126  23.889  0.00  0.00    +0.178 C 
ATOM     12  C   UNL     1       9.203  -2.547  23.308  0.00  0.00    +0.178 C 
ATOM     13  C   UNL     1       7.758  -3.054  23.084  0.00  0.00    +0.191 C 
ATOM     14  C   UNL     1       6.832  -2.722  24.272  0.00  0.00    +0.263 C 
BRANCH  13  15
ATOM     15  O   UNL     1       7.242  -2.633  21.821  0.00  0.00    -0.385 OA
ATOM     16  H   UNL     1       7.021  -3.406  21.278  0.00  0.00    +0.210 HD
ENDBRANCH  13  15
BRANCH  12  17
ATOM     17  O   UNL     1       9.840  -3.460  24.202  0.00  0.00    -0.386 OA
ATOM     18  H   UNL     1       9.894  -4.319  23.749  0.00  0.00    +0.210 HD
ENDBRANCH  12  17
BRANCH  11  19
ATOM     19  C   UNL     1      10.580  -0.517  24.215  0.00  0.00    +0.190 C 
BRANCH  19  20
ATOM     20  O   UNL     1      10.557   0.492  25.216  0.00  0.00    -0.392 OA
ATOM     21  H   UNL     1      10.674   0.020  26.061  0.00  0.00    +0.210 HD
ENDBRANCH  19  20
ENDBRANCH  11  19
BRANCH  14  22
ATOM     22  O   UNL     1       5.452  -3.039  23.980  0.00  0.00    -0.450 OA
BRANCH  22  23
ATOM     23  C   UNL     1       5.192  -4.344  23.711  0.00  0.00    +0.340 C 
ATOM     24  O   UNL     1       4.929  -4.806  22.609  0.00  0.00    -0.245 OA
BRANCH  23  25
ATOM     25  C   UNL     1       5.246  -5.183  24.940  0.00  0.00    +0.066 A 
ATOM     26  C   UNL     1       6.375  -5.201  25.771  0.00  0.00    +0.064 A 
ATOM     27  C   UNL     1       6.361  -5.986  26.918  0.00  0.00    +0.163 A 
ATOM     28  C   UNL     1       5.243  -6.745  27.243  0.00  0.00    +0.201 A 
ATOM     29  C   UNL     1       4.121  -6.732  26.418  0.00  0.00    +0.163 A 
ATOM     30  C   UNL     1       4.112  -5.952  25.265  0.00  0.00    +0.064 A 
BRANCH  29  31
ATOM     31  O   UNL     1       3.054  -7.503  26.788  0.00  0.00    -0.503 OA
ATOM     32  H   UNL     1       3.387  -8.281  27.270  0.00  0.00    +0.292 HD
ENDBRANCH  29  31
BRANCH  28  33
ATOM     33  O   UNL     1       5.261  -7.499  28.384  0.00  0.00    -0.501 OA
ATOM     34  H   UNL     1       5.731  -8.318  28.126  0.00  0.00    +0.292 HD
ENDBRANCH  28  33
BRANCH  27  35
ATOM     35  O   UNL     1       7.459  -6.003  27.727  0.00  0.00    -0.503 OA
ATOM     36  H   UNL     1       8.196  -6.263  27.139  0.00  0.00    +0.292 HD
ENDBRANCH  27  35
ENDBRANCH  23  25
ENDBRANCH  22  23
ENDBRANCH  14  22
ENDBRANCH   8   9
ENDBRANCH   5   8
BRANCH   3  37
ATOM     37  C   UNL     1       7.120   0.837  27.871  0.00  0.00    +0.190 C 
BRANCH  37  38
ATOM     38  O   UNL     1       8.285   0.757  27.049  0.00  0.00    -0.392 OA
ATOM     39  H   UNL     1       7.999   0.678  26.120  0.00  0.00    +0.210 HD
ENDBRANCH  37  38
ENDBRANCH   3  37
BRANCH   1  40
ATOM     40  O   UNL     1       5.962   2.789  23.730  0.00  0.00    -0.453 OA
BRANCH  40  51
ATOM     41  C   UNL     1       6.860   4.966  24.418  0.00  0.00    +0.181 A 
ATOM     42  O   UNL     1       7.952   5.824  24.657  0.00  0.00    -0.451 OA
ATOM     43  C   UNL     1       9.217   5.441  24.309  0.00  0.00    +0.147 A 
ATOM     44  C   UNL     1       9.485   4.183  23.794  0.00  0.00    +0.109 A 
ATOM     45  C   UNL     1      10.764   3.800  23.420  0.00  0.00    +0.135 A 
ATOM     46  C   UNL     1      11.829   4.671  23.582  0.00  0.00    +0.091 A 
ATOM     47  C   UNL     1      11.587   5.911  24.162  0.00  0.00    +0.124 A 
ATOM     48  C   UNL     1       8.393   3.242  23.769  0.00  0.00    +0.238 A 
ATOM     49  O   UNL     1       8.697   2.059  23.721  0.00  0.00    -0.283 OA
ATOM     50  C   UNL     1      10.290   6.310  24.517  0.00  0.00    +0.092 A 
ATOM     51  C   UNL     1       6.987   3.712  23.904  0.00  0.00    +0.214 A 
BRANCH  41  53
ATOM     52  C   UNL     1       5.435   5.819  26.304  0.00  0.00    +0.015 A 
ATOM     53  C   UNL     1       5.590   5.595  24.911  0.00  0.00    +0.025 A 
ATOM     54  C   UNL     1       4.535   5.993  24.078  0.00  0.00    +0.060 A 
ATOM     55  C   UNL     1       3.349   6.480  24.637  0.00  0.00    +0.159 A 
ATOM     56  C   UNL     1       3.177   6.571  26.016  0.00  0.00    +0.158 A 
ATOM     57  C   UNL     1       4.232   6.283  26.859  0.00  0.00    +0.050 A 
BRANCH  56  58
ATOM     58  O   UNL     1       1.950   6.934  26.496  0.00  0.00    -0.503 OA
ATOM     59  H   UNL     1       2.000   7.872  26.757  0.00  0.00    +0.292 HD
ENDBRANCH  56  58
BRANCH  55  60
ATOM     60  O   UNL     1       2.326   6.855  23.811  0.00  0.00    -0.503 OA
ATOM     61  H   UNL     1       2.310   6.176  23.107  0.00  0.00    +0.292 HD
ENDBRANCH  55  60
ENDBRANCH  41  53
BRANCH  47  62
ATOM     62  O   UNL     1      12.621   6.763  24.419  0.00  0.00    -0.507 OA
ATOM     63  H   UNL     1      13.378   6.514  23.859  0.00  0.00    +0.292 HD
ENDBRANCH  47  62
BRANCH  45  64
ATOM     64  O   UNL     1      11.053   2.563  22.903  0.00  0.00    -0.506 OA
ATOM     65  H   UNL     1      10.653   2.516  22.004  0.00  0.00    +0.292 HD
ENDBRANCH  45  64
ENDBRANCH  40  51
ENDBRANCH   1  40
TORSDOF 22
ENDMDL
MODEL 9
REMARK VINA RESULT:      -6.2      2.329      8.114
REMARK  Name = 
REMARK  22 active torsions:
REMARK  status: ('A' for Active; 'I' for Inactive)
REMARK    1  A    between atoms: C_3  and  O_59
REMARK    2  A    between atoms: C_4  and  O_58
REMARK    3  A    between atoms: C_6  and  C_7
REMARK    4  A    between atoms: C_8  and  O_20
REMARK    5  A    between atoms: C_12  and  O_19
REMARK    6  A    between atoms: C_14  and  O_18
REMARK    7  A    between atoms: O_20  and  C_21
REMARK    8  A    between atoms: C_23  and  O_32
REMARK    9  A    between atoms: C_25  and  O_31
REMARK   10  A    between atoms: C_26  and  C_29
REMARK   11  A    between atoms: C_29  and  O_30
REMARK   12  A    between atoms: O_32  and  C_33
REMARK   13  A    between atoms: C_35  and  O_46
REMARK   14  A    between atoms: C_36  and  O_45
REMARK   15  A    between atoms: C_38  and  O_44
REMARK   16  A    between atoms: C_40  and  C_42
REMARK   17  A    between atoms: C_42  and  O_43
REMARK   18  A    between atoms: O_46  and  C_47
REMARK   19  A    between atoms: C_47  and  C_49
REMARK   20  A    between atoms: C_51  and  O_57
REMARK   21  A    between atoms: C_52  and  O_56
REMARK   22  A    between atoms: C_53  and  O_55
REMARK                            x       y       z     vdW  Elec       q    Type
REMARK                         _______ _______ _______ _____ _____    ______ ____
ROOT
ATOM      1  C   UNL     1       6.038   1.454  26.841  0.00  0.00    +0.340 C 
ATOM      2  O   UNL     1       7.058   1.770  27.845  0.00  0.00    -0.331 OA
ATOM      3  C   UNL     1       6.424   1.802  29.156  0.00  0.00    +0.179 C 
ATOM      4  C   UNL     1       5.001   1.249  28.981  0.00  0.00    +0.180 C 
ATOM      5  C   UNL     1       5.033   0.546  27.614  0.00  0.00    +0.221 C 
ENDROOT
BRANCH   4   6
ATOM      6  O   UNL     1       4.086   2.369  28.979  0.00  0.00    -0.386 OA
ATOM      7  H   UNL     1       3.162   2.069  28.988  0.00  0.00    +0.210 HD
ENDBRANCH   4   6
BRANCH   5   8
ATOM      8  O   UNL     1       5.268  -0.891  27.609  0.00  0.00    -0.336 OA
BRANCH   8   9
ATOM      9  C   UNL     1       4.414  -1.658  26.772  0.00  0.00    +0.295 C 
ATOM     10  O   UNL     1       3.086  -1.170  26.855  0.00  0.00    -0.340 OA
ATOM     11  C   UNL     1       2.493  -1.402  28.136  0.00  0.00    +0.178 C 
ATOM     12  C   UNL     1       2.270  -2.908  28.328  0.00  0.00    +0.178 C 
ATOM     13  C   UNL     1       3.592  -3.692  28.140  0.00  0.00    +0.191 C 
ATOM     14  C   UNL     1       4.398  -3.194  26.922  0.00  0.00    +0.263 C 
BRANCH  13  15
ATOM     15  O   UNL     1       4.352  -3.740  29.348  0.00  0.00    -0.385 OA
ATOM     16  H   UNL     1       4.827  -4.583  29.408  0.00  0.00    +0.210 HD
ENDBRANCH  13  15
BRANCH  12  17
ATOM     17  O   UNL     1       1.339  -3.410  27.368  0.00  0.00    -0.386 OA
ATOM     18  H   UNL     1       0.466  -3.436  27.797  0.00  0.00    +0.210 HD
ENDBRANCH  12  17
BRANCH  11  19
ATOM     19  C   UNL     1       1.244  -0.504  28.240  0.00  0.00    +0.190 C 
BRANCH  19  20
ATOM     20  O   UNL     1       1.498   0.807  28.724  0.00  0.00    -0.392 OA
ATOM     21  H   UNL     1       0.754   1.350  28.401  0.00  0.00    +0.210 HD
ENDBRANCH  19  20
ENDBRANCH  11  19
BRANCH  14  22
ATOM     22  O   UNL     1       5.705  -3.806  26.860  0.00  0.00    -0.450 OA
BRANCH  22  23
ATOM     23  C   UNL     1       5.781  -4.962  26.152  0.00  0.00    +0.340 C 
ATOM     24  O   UNL     1       5.858  -6.086  26.628  0.00  0.00    -0.245 OA
BRANCH  23  25
ATOM     25  C   UNL     1       5.778  -4.712  24.684  0.00  0.00    +0.066 A 
ATOM     26  C   UNL     1       5.627  -5.754  23.759  0.00  0.00    +0.064 A 
ATOM     27  C   UNL     1       5.609  -5.458  22.401  0.00  0.00    +0.163 A 
ATOM     28  C   UNL     1       5.737  -4.147  21.960  0.00  0.00    +0.201 A 
ATOM     29  C   UNL     1       5.891  -3.109  22.875  0.00  0.00    +0.163 A 
ATOM     30  C   UNL     1       5.911  -3.381  24.241  0.00  0.00    +0.064 A 
BRANCH  29  31
ATOM     31  O   UNL     1       6.017  -1.841  22.381  0.00  0.00    -0.503 OA
ATOM     32  H   UNL     1       6.610  -1.868  21.609  0.00  0.00    +0.292 HD
ENDBRANCH  29  31
BRANCH  28  33
ATOM     33  O   UNL     1       5.706  -3.892  20.616  0.00  0.00    -0.501 OA
ATOM     34  H   UNL     1       6.634  -3.672  20.390  0.00  0.00    +0.292 HD
ENDBRANCH  28  33
BRANCH  27  35
ATOM     35  O   UNL     1       5.461  -6.472  21.500  0.00  0.00    -0.503 OA
ATOM     36  H   UNL     1       4.936  -7.148  21.972  0.00  0.00    +0.292 HD
ENDBRANCH  27  35
ENDBRANCH  23  25
ENDBRANCH  22  23
ENDBRANCH  14  22
ENDBRANCH   8   9
ENDBRANCH   5   8
BRANCH   3  37
ATOM     37  C   UNL     1       7.253   1.135  30.286  0.00  0.00    +0.190 C 
BRANCH  37  38
ATOM     38  O   UNL     1       8.643   1.094  29.963  0.00  0.00    -0.392 OA
ATOM     39  H   UNL     1       8.739   0.695  29.077  0.00  0.00    +0.210 HD
ENDBRANCH  37  38
ENDBRANCH   3  37
BRANCH   1  40
ATOM     40  O   UNL     1       6.636   0.973  25.607  0.00  0.00    -0.453 OA
BRANCH  40  51
ATOM     41  C   UNL     1       8.930   0.862  24.745  0.00  0.00    +0.181 A 
ATOM     42  O   UNL     1      10.054   1.480  24.162  0.00  0.00    -0.451 OA
ATOM     43  C   UNL     1      10.084   2.836  23.996  0.00  0.00    +0.147 A 
ATOM     44  C   UNL     1       8.999   3.636  24.311  0.00  0.00    +0.109 A 
ATOM     45  C   UNL     1       9.035   5.015  24.165  0.00  0.00    +0.135 A 
ATOM     46  C   UNL     1      10.168   5.634  23.663  0.00  0.00    +0.091 A 
ATOM     47  C   UNL     1      11.241   4.838  23.277  0.00  0.00    +0.124 A 
ATOM     48  C   UNL     1       7.782   2.964  24.692  0.00  0.00    +0.238 A 
ATOM     49  O   UNL     1       6.746   3.602  24.565  0.00  0.00    -0.283 OA
ATOM     50  C   UNL     1      11.216   3.445  23.449  0.00  0.00    +0.092 A 
ATOM     51  C   UNL     1       7.806   1.537  25.111  0.00  0.00    +0.214 A 
BRANCH  41  53
ATOM     52  C   UNL     1       9.641  -1.282  23.643  0.00  0.00    +0.015 A 
ATOM     53  C   UNL     1       9.123  -0.626  24.790  0.00  0.00    +0.025 A 
ATOM     54  C   UNL     1       8.833  -1.423  25.906  0.00  0.00    +0.060 A 
ATOM     55  C   UNL     1       8.951  -2.813  25.822  0.00  0.00    +0.159 A 
ATOM     56  C   UNL     1       9.342  -3.441  24.642  0.00  0.00    +0.158 A 
ATOM     57  C   UNL     1       9.731  -2.680  23.557  0.00  0.00    +0.050 A 
BRANCH  56  58
ATOM     58  O   UNL     1       9.314  -4.807  24.591  0.00  0.00    -0.503 OA
ATOM     59  H   UNL     1       9.906  -5.088  23.870  0.00  0.00    +0.292 HD
ENDBRANCH  56  58
BRANCH  55  60
ATOM     60  O   UNL     1       8.656  -3.577  26.917  0.00  0.00    -0.503 OA
ATOM     61  H   UNL     1       9.467  -3.554  27.465  0.00  0.00    +0.292 HD
ENDBRANCH  55  60
ENDBRANCH  41  53
BRANCH  47  62
ATOM     62  O   UNL     1      12.341   5.400  22.697  0.00  0.00    -0.507 OA
ATOM     63  H   UNL     1      12.060   6.182  22.189  0.00  0.00    +0.292 HD
ENDBRANCH  47  62
BRANCH  45  64
ATOM     64  O   UNL     1       7.975   5.828  24.475  0.00  0.00    -0.506 OA
ATOM     65  H   UNL     1       7.887   5.839  25.456  0.00  0.00    +0.292 HD
ENDBRANCH  45  64
ENDBRANCH  40  51
ENDBRANCH   1  40
TORSDOF 22
ENDMDL
