MODEL 1
REMARK VINA RESULT:      -6.3      0.000      0.000
REMARK  Name = 
REMARK  26 active torsions:
REMARK  status: ('A' for Active; 'I' for Inactive)
REMARK    1  A    between atoms: C_1  and  C_2
REMARK    2  A    between atoms: C_3  and  O_72
REMARK    3  A    between atoms: C_5  and  O_71
REMARK    4  A    between atoms: C_7  and  O_70
REMARK    5  A    between atoms: C_8  and  O_11
REMARK    6  A    between atoms: O_11  and  C_12
REMARK    7  A    between atoms: C_12  and  C_13
REMARK    8  A    between atoms: C_14  and  O_58
REMARK    9  A    between atoms: C_16  and  O_57
REMARK   10  A    between atoms: C_17  and  O_56
REMARK   11  A    between atoms: C_18  and  O_21
REMARK   12  A    between atoms: O_21  and  C_22
REMARK   13  A    between atoms: C_23  and  C_48
REMARK   14  A    between atoms: C_27  and  O_34
REMARK   15  A    between atoms: C_29  and  O_33
REMARK   16  A    between atoms: O_34  and  C_35
REMARK   17  A    between atoms: C_37  and  O_47
REMARK   18  A    between atoms: C_38  and  O_46
REMARK   19  A    between atoms: C_40  and  O_45
REMARK   20  A    between atoms: C_42  and  C_44
REMARK   21  A    between atoms: C_50  and  O_55
REMARK   22  A    between atoms: C_51  and  O_54
REMARK   23  A    between atoms: O_58  and  C_59
REMARK   24  A    between atoms: C_59  and  C_61
REMARK   25  A    between atoms: C_62  and  C_63
REMARK   26  A    between atoms: C_66  and  O_69
REMARK                            x       y       z     vdW  Elec       q    Type
REMARK                         _______ _______ _______ _____ _____    ______ ____
ROOT
ATOM      1  C   UNL     1       6.260   1.979  23.380  0.00  0.00    +0.191 C 
ATOM      2  O   UNL     1       5.979   1.741  24.804  0.00  0.00    -0.330 OA
ATOM      3  C   UNL     1       6.577   2.567  25.840  0.00  0.00    +0.340 C 
ATOM      4  C   UNL     1       8.111   2.713  25.602  0.00  0.00    +0.215 C 
ATOM      5  C   UNL     1       8.336   3.242  24.174  0.00  0.00    +0.192 C 
ATOM      6  C   UNL     1       7.745   2.303  23.109  0.00  0.00    +0.239 C 
ENDROOT
BRANCH   5   7
ATOM      7  O   UNL     1       9.742   3.419  23.934  0.00  0.00    -0.385 OA
ATOM      8  H   UNL     1       9.865   3.325  22.967  0.00  0.00    +0.210 HD
ENDBRANCH   5   7
BRANCH   4   9
ATOM      9  O   UNL     1       8.842   1.484  25.794  0.00  0.00    -0.383 OA
ATOM     10  H   UNL     1       8.179   0.773  25.896  0.00  0.00    +0.210 HD
ENDBRANCH   4   9
BRANCH   1  11
ATOM     11  C   UNL     1       5.244   2.910  22.625  0.00  0.00    +0.198 C 
BRANCH  11  12
ATOM     12  O   UNL     1       3.971   3.226  23.234  0.00  0.00    -0.346 OA
BRANCH  12  16
ATOM     13  C   UNL     1       0.620   2.331  20.480  0.00  0.00    +0.041 C 
ATOM     14  C   UNL     1       1.811   3.260  20.249  0.00  0.00    +0.149 C 
ATOM     15  O   UNL     1       2.858   3.029  21.215  0.00  0.00    -0.343 OA
ATOM     16  C   UNL     1       2.756   3.621  22.541  0.00  0.00    +0.282 C 
ATOM     17  C   UNL     1       2.524   5.146  22.347  0.00  0.00    +0.201 C 
ATOM     18  C   UNL     1       1.222   5.349  21.524  0.00  0.00    +0.179 C 
ATOM     19  C   UNL     1       1.350   4.722  20.129  0.00  0.00    +0.174 C 
BRANCH  19  20
ATOM     20  O   UNL     1       2.257   5.469  19.306  0.00  0.00    -0.387 OA
ATOM     21  H   UNL     1       3.142   5.059  19.425  0.00  0.00    +0.210 HD
ENDBRANCH  19  20
BRANCH  18  22
ATOM     22  O   UNL     1       0.873   6.737  21.420  0.00  0.00    -0.386 OA
ATOM     23  H   UNL     1       0.492   6.887  20.533  0.00  0.00    +0.210 HD
ENDBRANCH  18  22
BRANCH  17  24
ATOM     24  O   UNL     1       3.621   5.743  21.627  0.00  0.00    -0.384 OA
ATOM     25  H   UNL     1       3.255   6.000  20.749  0.00  0.00    +0.210 HD
ENDBRANCH  17  24
ENDBRANCH  12  16
ENDBRANCH  11  12
ENDBRANCH   1  11
BRANCH   6  26
ATOM     26  O   UNL     1       8.519   1.070  23.186  0.00  0.00    -0.453 OA
BRANCH  26  27
ATOM     27  C   UNL     1       8.849   0.495  22.010  0.00  0.00    +0.332 C 
ATOM     28  O   UNL     1       9.473   1.019  21.103  0.00  0.00    -0.246 OA
BRANCH  27  29
ATOM     29  C   UNL     1       8.307  -0.872  21.907  0.00  0.00    +0.092 C 
ATOM     30  C   UNL     1       8.130  -1.697  22.949  0.00  0.00    +0.015 C 
BRANCH  30  31
ATOM     31  C   UNL     1       7.592  -3.036  22.736  0.00  0.00    -0.025 A 
ATOM     32  C   UNL     1       8.139  -4.136  23.405  0.00  0.00    +0.011 A 
ATOM     33  C   UNL     1       7.552  -5.391  23.258  0.00  0.00    +0.046 A 
ATOM     34  C   UNL     1       6.430  -5.544  22.454  0.00  0.00    +0.117 A 
ATOM     35  C   UNL     1       5.879  -4.464  21.762  0.00  0.00    +0.046 A 
ATOM     36  C   UNL     1       6.472  -3.208  21.906  0.00  0.00    +0.011 A 
BRANCH  34  37
ATOM     37  O   UNL     1       5.861  -6.782  22.389  0.00  0.00    -0.507 OA
ATOM     38  H   UNL     1       6.159  -7.211  21.571  0.00  0.00    +0.292 HD
ENDBRANCH  34  37
ENDBRANCH  30  31
ENDBRANCH  27  29
ENDBRANCH  26  27
ENDBRANCH   6  26
BRANCH   3  39
ATOM     39  O   UNL     1       6.401   1.997  27.191  0.00  0.00    -0.453 OA
BRANCH  39  40
ATOM     40  C   UNL     1       5.826   0.740  27.441  0.00  0.00    +0.214 A 
ATOM     41  C   UNL     1       6.637  -0.534  27.347  0.00  0.00    +0.238 A 
ATOM     42  O   UNL     1       7.861  -0.520  27.306  0.00  0.00    -0.283 OA
ATOM     43  C   UNL     1       5.882  -1.816  27.264  0.00  0.00    +0.109 A 
ATOM     44  C   UNL     1       4.572  -1.807  27.703  0.00  0.00    +0.147 A 
ATOM     45  C   UNL     1       3.786  -2.971  27.733  0.00  0.00    +0.093 A 
ATOM     46  C   UNL     1       4.285  -4.183  27.255  0.00  0.00    +0.131 A 
ATOM     47  C   UNL     1       5.604  -4.199  26.782  0.00  0.00    +0.092 A 
ATOM     48  O   UNL     1       3.961  -0.664  28.119  0.00  0.00    -0.451 OA
ATOM     49  C   UNL     1       6.397  -3.030  26.805  0.00  0.00    +0.135 A 
ATOM     50  C   UNL     1       4.497   0.559  27.729  0.00  0.00    +0.181 A 
BRANCH  50  51
ATOM     51  C   UNL     1       3.387   1.568  27.663  0.00  0.00    +0.025 A 
ATOM     52  C   UNL     1       3.234   2.497  28.696  0.00  0.00    +0.015 A 
ATOM     53  C   UNL     1       2.196   3.433  28.688  0.00  0.00    +0.050 A 
ATOM     54  C   UNL     1       1.414   3.585  27.553  0.00  0.00    +0.158 A 
ATOM     55  C   UNL     1       1.650   2.796  26.434  0.00  0.00    +0.159 A 
ATOM     56  C   UNL     1       2.594   1.761  26.496  0.00  0.00    +0.060 A 
BRANCH  55  57
ATOM     57  O   UNL     1       1.000   3.128  25.276  0.00  0.00    -0.503 OA
ATOM     58  H   UNL     1       1.201   4.039  25.022  0.00  0.00    +0.292 HD
ENDBRANCH  55  57
BRANCH  54  59
ATOM     59  O   UNL     1       0.443   4.544  27.512  0.00  0.00    -0.503 OA
ATOM     60  H   UNL     1      -0.408   4.094  27.406  0.00  0.00    +0.292 HD
ENDBRANCH  54  59
ENDBRANCH  50  51
BRANCH  49  61
ATOM     61  O   UNL     1       7.670  -3.096  26.318  0.00  0.00    -0.506 OA
ATOM     62  H   UNL     1       7.700  -3.767  25.616  0.00  0.00    +0.292 HD
ENDBRANCH  49  61
BRANCH  46  63
ATOM     63  O   UNL     1       3.572  -5.367  27.173  0.00  0.00    -0.461 OA
BRANCH  63  64
ATOM     64  C   UNL     1       2.362  -5.316  26.385  0.00  0.00    +0.339 C 
ATOM     65  O   UNL     1       1.373  -6.213  26.901  0.00  0.00    -0.334 OA
ATOM     66  C   UNL     1       1.761  -7.588  26.770  0.00  0.00    +0.150 C 
ATOM     67  C   UNL     1       0.736  -8.426  27.521  0.00  0.00    +0.041 C 
ATOM     68  C   UNL     1       1.858  -7.982  25.287  0.00  0.00    +0.174 C 
ATOM     69  C   UNL     1       2.842  -7.064  24.540  0.00  0.00    +0.180 C 
ATOM     70  C   UNL     1       2.568  -5.592  24.871  0.00  0.00    +0.214 C 
BRANCH  70  71
ATOM     71  O   UNL     1       3.524  -4.717  24.271  0.00  0.00    -0.383 OA
ATOM     72  H   UNL     1       3.087  -3.859  24.124  0.00  0.00    +0.210 HD
ENDBRANCH  70  71
BRANCH  69  73
ATOM     73  O   UNL     1       4.194  -7.463  24.816  0.00  0.00    -0.386 OA
ATOM     74  H   UNL     1       4.333  -8.370  24.497  0.00  0.00    +0.210 HD
ENDBRANCH  69  73
BRANCH  68  75
ATOM     75  O   UNL     1       2.248  -9.349  25.152  0.00  0.00    -0.387 OA
ATOM     76  H   UNL     1       2.007  -9.807  25.981  0.00  0.00    +0.210 HD
ENDBRANCH  68  75
ENDBRANCH  63  64
ENDBRANCH  46  63
ENDBRANCH  39  40
ENDBRANCH   3  39
TORSDOF 24
ENDMDL
MODEL 2
REMARK VINA RESULT:      -5.9      2.310      7.899
REMARK  Name = 
REMARK  26 active torsions:
REMARK  status: ('A' for Active; 'I' for Inactive)
REMARK    1  A    between atoms: C_1  and  C_2
REMARK    2  A    between atoms: C_3  and  O_72
REMARK    3  A    between atoms: C_5  and  O_71
REMARK    4  A    between atoms: C_7  and  O_70
REMARK    5  A    between atoms: C_8  and  O_11
REMARK    6  A    between atoms: O_11  and  C_12
REMARK    7  A    between atoms: C_12  and  C_13
REMARK    8  A    between atoms: C_14  and  O_58
REMARK    9  A    between atoms: C_16  and  O_57
REMARK   10  A    between atoms: C_17  and  O_56
REMARK   11  A    between atoms: C_18  and  O_21
REMARK   12  A    between atoms: O_21  and  C_22
REMARK   13  A    between atoms: C_23  and  C_48
REMARK   14  A    between atoms: C_27  and  O_34
REMARK   15  A    between atoms: C_29  and  O_33
REMARK   16  A    between atoms: O_34  and  C_35
REMARK   17  A    between atoms: C_37  and  O_47
REMARK   18  A    between atoms: C_38  and  O_46
REMARK   19  A    between atoms: C_40  and  O_45
REMARK   20  A    between atoms: C_42  and  C_44
REMARK   21  A    between atoms: C_50  and  O_55
REMARK   22  A    between atoms: C_51  and  O_54
REMARK   23  A    between atoms: O_58  and  C_59
REMARK   24  A    between atoms: C_59  and  C_61
REMARK   25  A    between atoms: C_62  and  C_63
REMARK   26  A    between atoms: C_66  and  O_69
REMARK                            x       y       z     vdW  Elec       q    Type
REMARK                         _______ _______ _______ _____ _____    ______ ____
ROOT
ATOM      1  C   UNL     1       7.745  -2.964  23.284  0.00  0.00    +0.191 C 
ATOM      2  O   UNL     1       7.093  -2.604  24.552  0.00  0.00    -0.330 OA
ATOM      3  C   UNL     1       7.846  -2.526  25.793  0.00  0.00    +0.340 C 
ATOM      4  C   UNL     1       8.731  -3.797  25.973  0.00  0.00    +0.215 C 
ATOM      5  C   UNL     1       9.609  -3.963  24.720  0.00  0.00    +0.192 C 
ATOM      6  C   UNL     1       8.769  -4.109  23.440  0.00  0.00    +0.239 C 
ENDROOT
BRANCH   5   7
ATOM      7  O   UNL     1      10.463  -5.110  24.869  0.00  0.00    -0.385 OA
ATOM      8  H   UNL     1       9.962  -5.750  25.415  0.00  0.00    +0.210 HD
ENDBRANCH   5   7
BRANCH   4   9
ATOM      9  O   UNL     1       7.969  -5.000  26.207  0.00  0.00    -0.383 OA
ATOM     10  H   UNL     1       8.176  -5.294  27.115  0.00  0.00    +0.210 HD
ENDBRANCH   4   9
BRANCH   1  11
ATOM     11  C   UNL     1       8.246  -1.762  22.403  0.00  0.00    +0.198 C 
BRANCH  11  12
ATOM     12  O   UNL     1       9.090  -0.745  22.991  0.00  0.00    -0.346 OA
BRANCH  12  16
ATOM     13  C   UNL     1      10.804   3.325  23.330  0.00  0.00    +0.041 C 
ATOM     14  C   UNL     1       9.560   2.763  24.016  0.00  0.00    +0.149 C 
ATOM     15  O   UNL     1       9.517   1.322  23.939  0.00  0.00    -0.343 OA
ATOM     16  C   UNL     1       9.036   0.683  22.723  0.00  0.00    +0.282 C 
ATOM     17  C   UNL     1       7.638   1.284  22.408  0.00  0.00    +0.201 C 
ATOM     18  C   UNL     1       7.788   2.821  22.230  0.00  0.00    +0.179 C 
ATOM     19  C   UNL     1       8.292   3.477  23.522  0.00  0.00    +0.174 C 
BRANCH  19  20
ATOM     20  O   UNL     1       7.279   3.465  24.538  0.00  0.00    -0.387 OA
ATOM     21  H   UNL     1       7.702   3.803  25.357  0.00  0.00    +0.210 HD
ENDBRANCH  19  20
BRANCH  18  22
ATOM     22  O   UNL     1       6.559   3.427  21.805  0.00  0.00    -0.386 OA
ATOM     23  H   UNL     1       5.821   2.915  22.189  0.00  0.00    +0.210 HD
ENDBRANCH  18  22
BRANCH  17  24
ATOM     24  O   UNL     1       6.718   1.035  23.489  0.00  0.00    -0.384 OA
ATOM     25  H   UNL     1       6.133   0.304  23.179  0.00  0.00    +0.210 HD
ENDBRANCH  17  24
ENDBRANCH  12  16
ENDBRANCH  11  12
ENDBRANCH   1  11
BRANCH   6  26
ATOM     26  O   UNL     1       8.048  -5.370  23.574  0.00  0.00    -0.453 OA
BRANCH  26  27
ATOM     27  C   UNL     1       7.108  -5.625  22.639  0.00  0.00    +0.332 C 
ATOM     28  O   UNL     1       7.281  -5.652  21.432  0.00  0.00    -0.246 OA
BRANCH  27  29
ATOM     29  C   UNL     1       5.780  -5.820  23.249  0.00  0.00    +0.092 C 
ATOM     30  C   UNL     1       5.520  -5.680  24.557  0.00  0.00    +0.015 C 
BRANCH  30  31
ATOM     31  C   UNL     1       4.169  -5.905  25.060  0.00  0.00    -0.025 A 
ATOM     32  C   UNL     1       3.806  -7.148  25.588  0.00  0.00    +0.011 A 
ATOM     33  C   UNL     1       2.540  -7.313  26.147  0.00  0.00    +0.046 A 
ATOM     34  C   UNL     1       1.649  -6.248  26.179  0.00  0.00    +0.117 A 
ATOM     35  C   UNL     1       1.984  -5.004  25.640  0.00  0.00    +0.046 A 
ATOM     36  C   UNL     1       3.251  -4.842  25.076  0.00  0.00    +0.011 A 
BRANCH  34  37
ATOM     37  O   UNL     1       0.445  -6.448  26.787  0.00  0.00    -0.507 OA
ATOM     38  H   UNL     1       0.222  -7.390  26.718  0.00  0.00    +0.292 HD
ENDBRANCH  34  37
ENDBRANCH  30  31
ENDBRANCH  27  29
ENDBRANCH  26  27
ENDBRANCH   6  26
BRANCH   3  39
ATOM     39  O   UNL     1       6.973  -2.433  26.981  0.00  0.00    -0.453 OA
BRANCH  39  40
ATOM     40  C   UNL     1       6.029  -1.412  27.179  0.00  0.00    +0.214 A 
ATOM     41  C   UNL     1       6.359   0.037  26.897  0.00  0.00    +0.238 A 
ATOM     42  O   UNL     1       7.349   0.362  26.253  0.00  0.00    -0.283 OA
ATOM     43  C   UNL     1       5.448   1.066  27.473  0.00  0.00    +0.109 A 
ATOM     44  C   UNL     1       4.179   0.655  27.831  0.00  0.00    +0.147 A 
ATOM     45  C   UNL     1       3.214   1.552  28.322  0.00  0.00    +0.093 A 
ATOM     46  C   UNL     1       3.527   2.896  28.527  0.00  0.00    +0.131 A 
ATOM     47  C   UNL     1       4.820   3.319  28.192  0.00  0.00    +0.092 A 
ATOM     48  O   UNL     1       3.793  -0.647  27.744  0.00  0.00    -0.451 OA
ATOM     49  C   UNL     1       5.762   2.415  27.653  0.00  0.00    +0.135 A 
ATOM     50  C   UNL     1       4.773  -1.631  27.687  0.00  0.00    +0.181 A 
BRANCH  50  51
ATOM     51  C   UNL     1       4.221  -2.892  28.286  0.00  0.00    +0.025 A 
ATOM     52  C   UNL     1       2.864  -2.965  28.615  0.00  0.00    +0.015 A 
ATOM     53  C   UNL     1       2.315  -4.108  29.201  0.00  0.00    +0.050 A 
ATOM     54  C   UNL     1       3.070  -5.268  29.288  0.00  0.00    +0.158 A 
ATOM     55  C   UNL     1       4.375  -5.287  28.809  0.00  0.00    +0.159 A 
ATOM     56  C   UNL     1       4.969  -4.101  28.355  0.00  0.00    +0.060 A 
BRANCH  55  57
ATOM     57  O   UNL     1       5.000  -6.502  28.722  0.00  0.00    -0.503 OA
ATOM     58  H   UNL     1       4.360  -7.221  28.810  0.00  0.00    +0.292 HD
ENDBRANCH  55  57
BRANCH  54  59
ATOM     59  O   UNL     1       2.520  -6.409  29.798  0.00  0.00    -0.503 OA
ATOM     60  H   UNL     1       1.606  -6.205  30.049  0.00  0.00    +0.292 HD
ENDBRANCH  54  59
ENDBRANCH  50  51
BRANCH  49  61
ATOM     61  O   UNL     1       7.013   2.874  27.358  0.00  0.00    -0.506 OA
ATOM     62  H   UNL     1       6.930   3.671  26.810  0.00  0.00    +0.292 HD
ENDBRANCH  49  61
BRANCH  46  63
ATOM     63  O   UNL     1       2.676   3.843  29.072  0.00  0.00    -0.461 OA
BRANCH  63  64
ATOM     64  C   UNL     1       1.325   3.840  28.561  0.00  0.00    +0.339 C 
ATOM     65  O   UNL     1       1.310   3.639  27.144  0.00  0.00    -0.334 OA
ATOM     66  C   UNL     1       1.900   4.735  26.431  0.00  0.00    +0.150 C 
ATOM     67  C   UNL     1       2.005   4.327  24.969  0.00  0.00    +0.041 C 
ATOM     68  C   UNL     1       1.064   6.012  26.618  0.00  0.00    +0.174 C 
ATOM     69  C   UNL     1       0.909   6.352  28.111  0.00  0.00    +0.180 C 
ATOM     70  C   UNL     1       0.501   5.108  28.911  0.00  0.00    +0.214 C 
BRANCH  70  71
ATOM     71  O   UNL     1       0.443   5.365  30.315  0.00  0.00    -0.383 OA
ATOM     72  H   UNL     1      -0.488   5.535  30.544  0.00  0.00    +0.210 HD
ENDBRANCH  70  71
BRANCH  69  73
ATOM     73  O   UNL     1       2.108   6.971  28.602  0.00  0.00    -0.386 OA
ATOM     74  H   UNL     1       1.874   7.754  29.127  0.00  0.00    +0.210 HD
ENDBRANCH  69  73
BRANCH  68  75
ATOM     75  O   UNL     1       1.649   7.108  25.913  0.00  0.00    -0.387 OA
ATOM     76  H   UNL     1       1.233   7.927  26.248  0.00  0.00    +0.210 HD
ENDBRANCH  68  75
ENDBRANCH  63  64
ENDBRANCH  46  63
ENDBRANCH  39  40
ENDBRANCH   3  39
TORSDOF 24
ENDMDL
MODEL 3
REMARK VINA RESULT:      -5.4      1.544      2.280
REMARK  Name = 
REMARK  26 active torsions:
REMARK  status: ('A' for Active; 'I' for Inactive)
REMARK    1  A    between atoms: C_1  and  C_2
REMARK    2  A    between atoms: C_3  and  O_72
REMARK    3  A    between atoms: C_5  and  O_71
REMARK    4  A    between atoms: C_7  and  O_70
REMARK    5  A    between atoms: C_8  and  O_11
REMARK    6  A    between atoms: O_11  and  C_12
REMARK    7  A    between atoms: C_12  and  C_13
REMARK    8  A    between atoms: C_14  and  O_58
REMARK    9  A    between atoms: C_16  and  O_57
REMARK   10  A    between atoms: C_17  and  O_56
REMARK   11  A    between atoms: C_18  and  O_21
REMARK   12  A    between atoms: O_21  and  C_22
REMARK   13  A    between atoms: C_23  and  C_48
REMARK   14  A    between atoms: C_27  and  O_34
REMARK   15  A    between atoms: C_29  and  O_33
REMARK   16  A    between atoms: O_34  and  C_35
REMARK   17  A    between atoms: C_37  and  O_47
REMARK   18  A    between atoms: C_38  and  O_46
REMARK   19  A    between atoms: C_40  and  O_45
REMARK   20  A    between atoms: C_42  and  C_44
REMARK   21  A    between atoms: C_50  and  O_55
REMARK   22  A    between atoms: C_51  and  O_54
REMARK   23  A    between atoms: O_58  and  C_59
REMARK   24  A    between atoms: C_59  and  C_61
REMARK   25  A    between atoms: C_62  and  C_63
REMARK   26  A    between atoms: C_66  and  O_69
REMARK                            x       y       z     vdW  Elec       q    Type
REMARK                         _______ _______ _______ _____ _____    ______ ____
ROOT
ATOM      1  C   UNL     1       6.971   2.563  23.054  0.00  0.00    +0.191 C 
ATOM      2  O   UNL     1       6.464   2.458  24.430  0.00  0.00    -0.330 OA
ATOM      3  C   UNL     1       7.212   2.997  25.554  0.00  0.00    +0.340 C 
ATOM      4  C   UNL     1       8.702   2.545  25.484  0.00  0.00    +0.215 C 
ATOM      5  C   UNL     1       9.269   2.942  24.109  0.00  0.00    +0.192 C 
ATOM      6  C   UNL     1       8.489   2.295  22.953  0.00  0.00    +0.239 C 
ENDROOT
BRANCH   5   7
ATOM      7  O   UNL     1      10.655   2.566  24.025  0.00  0.00    -0.385 OA
ATOM      8  H   UNL     1      11.155   3.402  23.922  0.00  0.00    +0.210 HD
ENDBRANCH   5   7
BRANCH   4   9
ATOM      9  O   UNL     1       8.884   1.131  25.704  0.00  0.00    -0.383 OA
ATOM     10  H   UNL     1       8.243   0.670  25.129  0.00  0.00    +0.210 HD
ENDBRANCH   4   9
BRANCH   1  11
ATOM     11  C   UNL     1       6.477   3.809  22.232  0.00  0.00    +0.198 C 
BRANCH  11  12
ATOM     12  O   UNL     1       5.215   4.433  22.563  0.00  0.00    -0.346 OA
BRANCH  12  16
ATOM     13  C   UNL     1       1.747   6.395  20.631  0.00  0.00    +0.041 C 
ATOM     14  C   UNL     1       1.758   5.503  21.871  0.00  0.00    +0.149 C 
ATOM     15  O   UNL     1       3.093   5.339  22.394  0.00  0.00    -0.343 OA
ATOM     16  C   UNL     1       3.989   4.367  21.786  0.00  0.00    +0.282 C 
ATOM     17  C   UNL     1       3.244   3.003  21.767  0.00  0.00    +0.201 C 
ATOM     18  C   UNL     1       1.931   3.166  20.951  0.00  0.00    +0.179 C 
ATOM     19  C   UNL     1       0.999   4.192  21.610  0.00  0.00    +0.174 C 
BRANCH  19  20
ATOM     20  O   UNL     1       0.445   3.680  22.831  0.00  0.00    -0.387 OA
ATOM     21  H   UNL     1       1.109   3.056  23.197  0.00  0.00    +0.210 HD
ENDBRANCH  19  20
BRANCH  18  22
ATOM     22  O   UNL     1       1.256   1.912  20.778  0.00  0.00    -0.386 OA
ATOM     23  H   UNL     1       1.931   1.226  20.611  0.00  0.00    +0.210 HD
ENDBRANCH  18  22
BRANCH  17  24
ATOM     24  O   UNL     1       2.905   2.586  23.105  0.00  0.00    -0.384 OA
ATOM     25  H   UNL     1       2.984   3.394  23.664  0.00  0.00    +0.210 HD
ENDBRANCH  17  24
ENDBRANCH  12  16
ENDBRANCH  11  12
ENDBRANCH   1  11
BRANCH   6  26
ATOM     26  O   UNL     1       8.721   0.859  23.063  0.00  0.00    -0.453 OA
BRANCH  26  27
ATOM     27  C   UNL     1       8.861   0.183  21.903  0.00  0.00    +0.332 C 
ATOM     28  O   UNL     1       9.427   0.585  20.900  0.00  0.00    -0.246 OA
BRANCH  27  29
ATOM     29  C   UNL     1       8.181  -1.123  21.955  0.00  0.00    +0.092 C 
ATOM     30  C   UNL     1       7.441  -1.551  22.989  0.00  0.00    +0.015 C 
BRANCH  30  31
ATOM     31  C   UNL     1       6.816  -2.869  22.942  0.00  0.00    -0.025 A 
ATOM     32  C   UNL     1       7.601  -4.025  22.880  0.00  0.00    +0.011 A 
ATOM     33  C   UNL     1       6.987  -5.275  22.930  0.00  0.00    +0.046 A 
ATOM     34  C   UNL     1       5.606  -5.368  23.042  0.00  0.00    +0.117 A 
ATOM     35  C   UNL     1       4.802  -4.227  23.085  0.00  0.00    +0.046 A 
ATOM     36  C   UNL     1       5.419  -2.975  23.030  0.00  0.00    +0.011 A 
BRANCH  34  37
ATOM     37  O   UNL     1       5.061  -6.614  23.143  0.00  0.00    -0.507 OA
ATOM     38  H   UNL     1       5.432  -7.166  22.435  0.00  0.00    +0.292 HD
ENDBRANCH  34  37
ENDBRANCH  30  31
ENDBRANCH  27  29
ENDBRANCH  26  27
ENDBRANCH   6  26
BRANCH   3  39
ATOM     39  O   UNL     1       6.682   2.545  26.856  0.00  0.00    -0.453 OA
BRANCH  39  40
ATOM     40  C   UNL     1       5.867   1.412  27.018  0.00  0.00    +0.214 A 
ATOM     41  C   UNL     1       6.458   0.038  27.249  0.00  0.00    +0.238 A 
ATOM     42  O   UNL     1       7.633  -0.117  27.560  0.00  0.00    -0.283 OA
ATOM     43  C   UNL     1       5.558  -1.131  27.044  0.00  0.00    +0.109 A 
ATOM     44  C   UNL     1       4.198  -0.897  27.088  0.00  0.00    +0.147 A 
ATOM     45  C   UNL     1       3.257  -1.934  26.973  0.00  0.00    +0.093 A 
ATOM     46  C   UNL     1       3.666  -3.248  26.744  0.00  0.00    +0.131 A 
ATOM     47  C   UNL     1       5.044  -3.494  26.670  0.00  0.00    +0.092 A 
ATOM     48  O   UNL     1       3.688   0.357  27.231  0.00  0.00    -0.451 OA
ATOM     49  C   UNL     1       5.977  -2.447  26.838  0.00  0.00    +0.135 A 
ATOM     50  C   UNL     1       4.499   1.445  26.926  0.00  0.00    +0.181 A 
BRANCH  50  51
ATOM     51  C   UNL     1       3.626   2.580  26.474  0.00  0.00    +0.025 A 
ATOM     52  C   UNL     1       2.248   2.528  26.708  0.00  0.00    +0.015 A 
ATOM     53  C   UNL     1       1.396   3.549  26.278  0.00  0.00    +0.050 A 
ATOM     54  C   UNL     1       1.929   4.729  25.781  0.00  0.00    +0.158 A 
ATOM     55  C   UNL     1       3.307   4.888  25.696  0.00  0.00    +0.159 A 
ATOM     56  C   UNL     1       4.155   3.811  25.992  0.00  0.00    +0.060 A 
BRANCH  55  57
ATOM     57  O   UNL     1       3.783   6.138  25.405  0.00  0.00    -0.503 OA
ATOM     58  H   UNL     1       4.625   6.080  24.932  0.00  0.00    +0.292 HD
ENDBRANCH  55  57
BRANCH  54  59
ATOM     59  O   UNL     1       1.106   5.757  25.422  0.00  0.00    -0.503 OA
ATOM     60  H   UNL     1       1.379   6.539  25.925  0.00  0.00    +0.292 HD
ENDBRANCH  54  59
ENDBRANCH  50  51
BRANCH  49  61
ATOM     61  O   UNL     1       7.307  -2.738  26.741  0.00  0.00    -0.506 OA
ATOM     62  H   UNL     1       7.765  -2.355  27.507  0.00  0.00    +0.292 HD
ENDBRANCH  49  61
BRANCH  46  63
ATOM     63  O   UNL     1       2.822  -4.327  26.544  0.00  0.00    -0.461 OA
BRANCH  63  64
ATOM     64  C   UNL     1       1.820  -4.537  27.563  0.00  0.00    +0.339 C 
ATOM     65  O   UNL     1       2.383  -4.414  28.873  0.00  0.00    -0.334 OA
ATOM     66  C   UNL     1       3.328  -5.454  29.161  0.00  0.00    +0.150 C 
ATOM     67  C   UNL     1       3.997  -5.111  30.484  0.00  0.00    +0.041 C 
ATOM     68  C   UNL     1       2.628  -6.822  29.202  0.00  0.00    +0.174 C 
ATOM     69  C   UNL     1       1.895  -7.103  27.879  0.00  0.00    +0.180 C 
ATOM     70  C   UNL     1       1.062  -5.887  27.452  0.00  0.00    +0.214 C 
BRANCH  70  71
ATOM     71  O   UNL     1       0.444  -6.077  26.178  0.00  0.00    -0.383 OA
ATOM     72  H   UNL     1       1.149  -6.068  25.505  0.00  0.00    +0.210 HD
ENDBRANCH  70  71
BRANCH  69  73
ATOM     73  O   UNL     1       2.833  -7.524  26.876  0.00  0.00    -0.386 OA
ATOM     74  H   UNL     1       2.393  -7.537  26.010  0.00  0.00    +0.210 HD
ENDBRANCH  69  73
BRANCH  68  75
ATOM     75  O   UNL     1       3.566  -7.862  29.485  0.00  0.00    -0.387 OA
ATOM     76  H   UNL     1       3.642  -8.414  28.681  0.00  0.00    +0.210 HD
ENDBRANCH  68  75
ENDBRANCH  63  64
ENDBRANCH  46  63
ENDBRANCH  39  40
ENDBRANCH   3  39
TORSDOF 24
ENDMDL
MODEL 4
REMARK VINA RESULT:      -4.9      2.648     10.073
REMARK  Name = 
REMARK  26 active torsions:
REMARK  status: ('A' for Active; 'I' for Inactive)
REMARK    1  A    between atoms: C_1  and  C_2
REMARK    2  A    between atoms: C_3  and  O_72
REMARK    3  A    between atoms: C_5  and  O_71
REMARK    4  A    between atoms: C_7  and  O_70
REMARK    5  A    between atoms: C_8  and  O_11
REMARK    6  A    between atoms: O_11  and  C_12
REMARK    7  A    between atoms: C_12  and  C_13
REMARK    8  A    between atoms: C_14  and  O_58
REMARK    9  A    between atoms: C_16  and  O_57
REMARK   10  A    between atoms: C_17  and  O_56
REMARK   11  A    between atoms: C_18  and  O_21
REMARK   12  A    between atoms: O_21  and  C_22
REMARK   13  A    between atoms: C_23  and  C_48
REMARK   14  A    between atoms: C_27  and  O_34
REMARK   15  A    between atoms: C_29  and  O_33
REMARK   16  A    between atoms: O_34  and  C_35
REMARK   17  A    between atoms: C_37  and  O_47
REMARK   18  A    between atoms: C_38  and  O_46
REMARK   19  A    between atoms: C_40  and  O_45
REMARK   20  A    between atoms: C_42  and  C_44
REMARK   21  A    between atoms: C_50  and  O_55
REMARK   22  A    between atoms: C_51  and  O_54
REMARK   23  A    between atoms: O_58  and  C_59
REMARK   24  A    between atoms: C_59  and  C_61
REMARK   25  A    between atoms: C_62  and  C_63
REMARK   26  A    between atoms: C_66  and  O_69
REMARK                            x       y       z     vdW  Elec       q    Type
REMARK                         _______ _______ _______ _____ _____    ______ ____
ROOT
ATOM      1  C   UNL     1       4.902  -5.030  25.100  0.00  0.00    +0.191 C 
ATOM      2  O   UNL     1       5.467  -4.254  26.215  0.00  0.00    -0.330 OA
ATOM      3  C   UNL     1       4.611  -3.555  27.159  0.00  0.00    +0.340 C 
ATOM      4  C   UNL     1       3.533  -2.721  26.402  0.00  0.00    +0.215 C 
ATOM      5  C   UNL     1       2.774  -3.656  25.445  0.00  0.00    +0.192 C 
ATOM      6  C   UNL     1       3.709  -4.322  24.422  0.00  0.00    +0.239 C 
ENDROOT
BRANCH   5   7
ATOM      7  O   UNL     1       1.748  -2.922  24.754  0.00  0.00    -0.385 OA
ATOM      8  H   UNL     1       2.028  -1.984  24.773  0.00  0.00    +0.210 HD
ENDBRANCH   5   7
BRANCH   4   9
ATOM      9  O   UNL     1       4.081  -1.604  25.670  0.00  0.00    -0.383 OA
ATOM     10  H   UNL     1       4.260  -1.920  24.764  0.00  0.00    +0.210 HD
ENDBRANCH   4   9
BRANCH   1  11
ATOM     11  C   UNL     1       4.677  -6.562  25.373  0.00  0.00    +0.198 C 
BRANCH  11  12
ATOM     12  O   UNL     1       3.696  -6.980  26.349  0.00  0.00    -0.346 OA
BRANCH  12  16
ATOM     13  C   UNL     1       2.276  -6.182  30.467  0.00  0.00    +0.041 C 
ATOM     14  C   UNL     1       3.413  -5.497  29.710  0.00  0.00    +0.149 C 
ATOM     15  O   UNL     1       3.352  -5.778  28.295  0.00  0.00    -0.343 OA
ATOM     16  C   UNL     1       3.880  -7.036  27.789  0.00  0.00    +0.282 C 
ATOM     17  C   UNL     1       5.341  -7.163  28.304  0.00  0.00    +0.201 C 
ATOM     18  C   UNL     1       5.325  -7.128  29.857  0.00  0.00    +0.179 C 
ATOM     19  C   UNL     1       4.768  -5.794  30.372  0.00  0.00    +0.174 C 
BRANCH  19  20
ATOM     20  O   UNL     1       5.690  -4.721  30.131  0.00  0.00    -0.387 OA
ATOM     21  H   UNL     1       6.361  -5.067  29.504  0.00  0.00    +0.210 HD
ENDBRANCH  19  20
BRANCH  18  22
ATOM     22  O   UNL     1       6.627  -7.375  30.407  0.00  0.00    -0.386 OA
ATOM     23  H   UNL     1       6.789  -8.337  30.380  0.00  0.00    +0.210 HD
ENDBRANCH  18  22
BRANCH  17  24
ATOM     24  O   UNL     1       6.148  -6.067  27.829  0.00  0.00    -0.384 OA
ATOM     25  H   UNL     1       6.836  -6.472  27.251  0.00  0.00    +0.210 HD
ENDBRANCH  17  24
ENDBRANCH  12  16
ENDBRANCH  11  12
ENDBRANCH   1  11
BRANCH   6  26
ATOM     26  O   UNL     1       4.217  -3.245  23.581  0.00  0.00    -0.453 OA
BRANCH  26  27
ATOM     27  C   UNL     1       4.973  -3.614  22.525  0.00  0.00    +0.332 C 
ATOM     28  O   UNL     1       4.931  -4.689  21.950  0.00  0.00    -0.246 OA
BRANCH  27  29
ATOM     29  C   UNL     1       5.936  -2.560  22.156  0.00  0.00    +0.092 C 
ATOM     30  C   UNL     1       6.374  -1.608  22.993  0.00  0.00    +0.015 C 
BRANCH  30  31
ATOM     31  C   UNL     1       7.324  -0.605  22.524  0.00  0.00    -0.025 A 
ATOM     32  C   UNL     1       6.902   0.700  22.253  0.00  0.00    +0.011 A 
ATOM     33  C   UNL     1       7.841   1.665  21.895  0.00  0.00    +0.046 A 
ATOM     34  C   UNL     1       9.186   1.329  21.810  0.00  0.00    +0.117 A 
ATOM     35  C   UNL     1       9.627   0.028  22.058  0.00  0.00    +0.046 A 
ATOM     36  C   UNL     1       8.683  -0.939  22.411  0.00  0.00    +0.011 A 
BRANCH  34  37
ATOM     37  O   UNL     1      10.069   2.325  21.511  0.00  0.00    -0.507 OA
ATOM     38  H   UNL     1      10.356   2.210  20.591  0.00  0.00    +0.292 HD
ENDBRANCH  34  37
ENDBRANCH  30  31
ENDBRANCH  27  29
ENDBRANCH  26  27
ENDBRANCH   6  26
BRANCH   3  39
ATOM     39  O   UNL     1       5.362  -2.617  28.017  0.00  0.00    -0.453 OA
BRANCH  39  40
ATOM     40  C   UNL     1       5.971  -1.442  27.545  0.00  0.00    +0.214 A 
ATOM     41  C   UNL     1       5.319  -0.088  27.719  0.00  0.00    +0.238 A 
ATOM     42  O   UNL     1       4.380   0.085  28.487  0.00  0.00    -0.283 OA
ATOM     43  C   UNL     1       5.841   1.030  26.883  0.00  0.00    +0.109 A 
ATOM     44  C   UNL     1       7.109   0.885  26.355  0.00  0.00    +0.147 A 
ATOM     45  C   UNL     1       7.728   1.901  25.608  0.00  0.00    +0.093 A 
ATOM     46  C   UNL     1       7.051   3.084  25.314  0.00  0.00    +0.131 A 
ATOM     47  C   UNL     1       5.753   3.232  25.821  0.00  0.00    +0.092 A 
ATOM     48  O   UNL     1       7.828  -0.259  26.517  0.00  0.00    -0.451 OA
ATOM     49  C   UNL     1       5.165   2.222  26.613  0.00  0.00    +0.135 A 
ATOM     50  C   UNL     1       7.155  -1.429  26.853  0.00  0.00    +0.181 A 
BRANCH  50  51
ATOM     51  C   UNL     1       7.925  -2.597  26.309  0.00  0.00    +0.025 A 
ATOM     52  C   UNL     1       8.690  -3.385  27.175  0.00  0.00    +0.015 A 
ATOM     53  C   UNL     1       9.445  -4.463  26.706  0.00  0.00    +0.050 A 
ATOM     54  C   UNL     1       9.294  -4.892  25.396  0.00  0.00    +0.158 A 
ATOM     55  C   UNL     1       8.407  -4.241  24.548  0.00  0.00    +0.159 A 
ATOM     56  C   UNL     1       7.760  -3.073  24.978  0.00  0.00    +0.060 A 
BRANCH  55  57
ATOM     57  O   UNL     1       8.136  -4.829  23.342  0.00  0.00    -0.503 OA
ATOM     58  H   UNL     1       8.335  -4.222  22.615  0.00  0.00    +0.292 HD
ENDBRANCH  55  57
BRANCH  54  59
ATOM     59  O   UNL     1       9.977  -5.987  24.950  0.00  0.00    -0.503 OA
ATOM     60  H   UNL     1      10.797  -6.050  25.464  0.00  0.00    +0.292 HD
ENDBRANCH  54  59
ENDBRANCH  50  51
BRANCH  49  61
ATOM     61  O   UNL     1       3.892   2.409  27.070  0.00  0.00    -0.506 OA
ATOM     62  H   UNL     1       3.271   2.066  26.407  0.00  0.00    +0.292 HD
ENDBRANCH  49  61
BRANCH  46  63
ATOM     63  O   UNL     1       7.540   4.114  24.527  0.00  0.00    -0.461 OA
BRANCH  63  64
ATOM     64  C   UNL     1       7.141   5.446  24.918  0.00  0.00    +0.339 C 
ATOM     65  O   UNL     1       5.838   5.762  24.417  0.00  0.00    -0.334 OA
ATOM     66  C   UNL     1       5.809   5.846  22.985  0.00  0.00    +0.150 C 
ATOM     67  C   UNL     1       4.354   5.989  22.564  0.00  0.00    +0.041 C 
ATOM     68  C   UNL     1       6.672   7.022  22.497  0.00  0.00    +0.174 C 
ATOM     69  C   UNL     1       8.118   6.889  23.007  0.00  0.00    +0.180 C 
ATOM     70  C   UNL     1       8.137   6.563  24.506  0.00  0.00    +0.214 C 
BRANCH  70  71
ATOM     71  O   UNL     1       9.461   6.337  24.992  0.00  0.00    -0.383 OA
ATOM     72  H   UNL     1       9.795   5.525  24.570  0.00  0.00    +0.210 HD
ENDBRANCH  70  71
BRANCH  69  73
ATOM     73  O   UNL     1       8.834   5.930  22.212  0.00  0.00    -0.386 OA
ATOM     74  H   UNL     1       8.219   5.502  21.593  0.00  0.00    +0.210 HD
ENDBRANCH  69  73
BRANCH  68  75
ATOM     75  O   UNL     1       6.650   7.108  21.072  0.00  0.00    -0.387 OA
ATOM     76  H   UNL     1       6.393   6.229  20.729  0.00  0.00    +0.210 HD
ENDBRANCH  68  75
ENDBRANCH  63  64
ENDBRANCH  46  63
ENDBRANCH  39  40
ENDBRANCH   3  39
TORSDOF 24
ENDMDL
MODEL 5
REMARK VINA RESULT:      -4.7      2.530     10.033
REMARK  Name = 
REMARK  26 active torsions:
REMARK  status: ('A' for Active; 'I' for Inactive)
REMARK    1  A    between atoms: C_1  and  C_2
REMARK    2  A    between atoms: C_3  and  O_72
REMARK    3  A    between atoms: C_5  and  O_71
REMARK    4  A    between atoms: C_7  and  O_70
REMARK    5  A    between atoms: C_8  and  O_11
REMARK    6  A    between atoms: O_11  and  C_12
REMARK    7  A    between atoms: C_12  and  C_13
REMARK    8  A    between atoms: C_14  and  O_58
REMARK    9  A    between atoms: C_16  and  O_57
REMARK   10  A    between atoms: C_17  and  O_56
REMARK   11  A    between atoms: C_18  and  O_21
REMARK   12  A    between atoms: O_21  and  C_22
REMARK   13  A    between atoms: C_23  and  C_48
REMARK   14  A    between atoms: C_27  and  O_34
REMARK   15  A    between atoms: C_29  and  O_33
REMARK   16  A    between atoms: O_34  and  C_35
REMARK   17  A    between atoms: C_37  and  O_47
REMARK   18  A    between atoms: C_38  and  O_46
REMARK   19  A    between atoms: C_40  and  O_45
REMARK   20  A    between atoms: C_42  and  C_44
REMARK   21  A    between atoms: C_50  and  O_55
REMARK   22  A    between atoms: C_51  and  O_54
REMARK   23  A    between atoms: O_58  and  C_59
REMARK   24  A    between atoms: C_59  and  C_61
REMARK   25  A    between atoms: C_62  and  C_63
REMARK   26  A    between atoms: C_66  and  O_69
REMARK                            x       y       z     vdW  Elec       q    Type
REMARK                         _______ _______ _______ _____ _____    ______ ____
ROOT
ATOM      1  C   UNL     1       4.781  -5.575  24.731  0.00  0.00    +0.191 C 
ATOM      2  O   UNL     1       5.179  -4.867  25.958  0.00  0.00    -0.330 OA
ATOM      3  C   UNL     1       4.195  -4.220  26.810  0.00  0.00    +0.340 C 
ATOM      4  C   UNL     1       3.233  -3.338  25.957  0.00  0.00    +0.215 C 
ATOM      5  C   UNL     1       2.620  -4.213  24.849  0.00  0.00    +0.192 C 
ATOM      6  C   UNL     1       3.694  -4.823  23.932  0.00  0.00    +0.239 C 
ENDROOT
BRANCH   5   7
ATOM      7  O   UNL     1       1.701  -3.435  24.063  0.00  0.00    -0.385 OA
ATOM      8  H   UNL     1       2.247  -2.945  23.416  0.00  0.00    +0.210 HD
ENDBRANCH   5   7
BRANCH   4   9
ATOM      9  O   UNL     1       3.875  -2.183  25.376  0.00  0.00    -0.383 OA
ATOM     10  H   UNL     1       4.320  -2.487  24.561  0.00  0.00    +0.210 HD
ENDBRANCH   4   9
BRANCH   1  11
ATOM     11  C   UNL     1       4.525  -7.119  24.880  0.00  0.00    +0.198 C 
BRANCH  11  12
ATOM     12  O   UNL     1       3.658  -7.604  25.931  0.00  0.00    -0.346 OA
BRANCH  12  16
ATOM     13  C   UNL     1       4.931  -5.865  29.800  0.00  0.00    +0.041 C 
ATOM     14  C   UNL     1       4.124  -7.139  29.556  0.00  0.00    +0.149 C 
ATOM     15  O   UNL     1       4.205  -7.562  28.178  0.00  0.00    -0.343 OA
ATOM     16  C   UNL     1       3.354  -6.929  27.181  0.00  0.00    +0.282 C 
ATOM     17  C   UNL     1       1.891  -7.029  27.694  0.00  0.00    +0.201 C 
ATOM     18  C   UNL     1       1.796  -6.313  29.070  0.00  0.00    +0.179 C 
ATOM     19  C   UNL     1       2.696  -6.997  30.108  0.00  0.00    +0.174 C 
BRANCH  19  20
ATOM     20  O   UNL     1       2.172  -8.278  30.484  0.00  0.00    -0.387 OA
ATOM     21  H   UNL     1       2.895  -8.747  30.954  0.00  0.00    +0.210 HD
ENDBRANCH  19  20
BRANCH  18  22
ATOM     22  O   UNL     1       0.443  -6.249  29.542  0.00  0.00    -0.386 OA
ATOM     23  H   UNL     1       0.378  -6.800  30.345  0.00  0.00    +0.210 HD
ENDBRANCH  18  22
BRANCH  17  24
ATOM     24  O   UNL     1       1.501  -8.406  27.865  0.00  0.00    -0.384 OA
ATOM     25  H   UNL     1       1.160  -8.474  28.787  0.00  0.00    +0.210 HD
ENDBRANCH  17  24
ENDBRANCH  12  16
ENDBRANCH  11  12
ENDBRANCH   1  11
BRANCH   6  26
ATOM     26  O   UNL     1       4.313  -3.701  23.236  0.00  0.00    -0.453 OA
BRANCH  26  27
ATOM     27  C   UNL     1       5.172  -4.013  22.242  0.00  0.00    +0.332 C 
ATOM     28  O   UNL     1       5.263  -5.092  21.681  0.00  0.00    -0.246 OA
BRANCH  27  29
ATOM     29  C   UNL     1       6.067  -2.884  21.929  0.00  0.00    +0.092 C 
ATOM     30  C   UNL     1       6.789  -2.215  22.840  0.00  0.00    +0.015 C 
BRANCH  30  31
ATOM     31  C   UNL     1       7.639  -1.105  22.424  0.00  0.00    -0.025 A 
ATOM     32  C   UNL     1       7.195   0.215  22.551  0.00  0.00    +0.011 A 
ATOM     33  C   UNL     1       8.058   1.263  22.235  0.00  0.00    +0.046 A 
ATOM     34  C   UNL     1       9.349   0.994  21.799  0.00  0.00    +0.117 A 
ATOM     35  C   UNL     1       9.806  -0.316  21.647  0.00  0.00    +0.046 A 
ATOM     36  C   UNL     1       8.939  -1.365  21.959  0.00  0.00    +0.011 A 
BRANCH  34  37
ATOM     37  O   UNL     1      10.169   2.056  21.557  0.00  0.00    -0.507 OA
ATOM     38  H   UNL     1      10.849   2.080  22.250  0.00  0.00    +0.292 HD
ENDBRANCH  34  37
ENDBRANCH  30  31
ENDBRANCH  27  29
ENDBRANCH  26  27
ENDBRANCH   6  26
BRANCH   3  39
ATOM     39  O   UNL     1       4.813  -3.336  27.819  0.00  0.00    -0.453 OA
BRANCH  39  40
ATOM     40  C   UNL     1       5.258  -2.031  27.548  0.00  0.00    +0.214 A 
ATOM     41  C   UNL     1       4.371  -0.828  27.781  0.00  0.00    +0.238 A 
ATOM     42  O   UNL     1       3.344  -0.900  28.444  0.00  0.00    -0.283 OA
ATOM     43  C   UNL     1       4.778   0.451  27.134  0.00  0.00    +0.109 A 
ATOM     44  C   UNL     1       6.099   0.573  26.751  0.00  0.00    +0.147 A 
ATOM     45  C   UNL     1       6.610   1.757  26.192  0.00  0.00    +0.093 A 
ATOM     46  C   UNL     1       5.775   2.846  25.943  0.00  0.00    +0.131 A 
ATOM     47  C   UNL     1       4.426   2.725  26.303  0.00  0.00    +0.092 A 
ATOM     48  O   UNL     1       6.982  -0.455  26.878  0.00  0.00    -0.451 OA
ATOM     49  C   UNL     1       3.940   1.546  26.909  0.00  0.00    +0.135 A 
ATOM     50  C   UNL     1       6.488  -1.748  27.008  0.00  0.00    +0.181 A 
BRANCH  50  51
ATOM     51  C   UNL     1       7.496  -2.706  26.443  0.00  0.00    +0.025 A 
ATOM     52  C   UNL     1       8.580  -2.214  25.708  0.00  0.00    +0.015 A 
ATOM     53  C   UNL     1       9.525  -3.073  25.140  0.00  0.00    +0.050 A 
ATOM     54  C   UNL     1       9.512  -4.422  25.461  0.00  0.00    +0.158 A 
ATOM     55  C   UNL     1       8.552  -4.921  26.332  0.00  0.00    +0.159 A 
ATOM     56  C   UNL     1       7.520  -4.087  26.786  0.00  0.00    +0.060 A 
BRANCH  55  57
ATOM     57  O   UNL     1       8.711  -6.204  26.783  0.00  0.00    -0.503 OA
ATOM     58  H   UNL     1       8.749  -6.823  26.041  0.00  0.00    +0.292 HD
ENDBRANCH  55  57
BRANCH  54  59
ATOM     59  O   UNL     1      10.474  -5.254  24.964  0.00  0.00    -0.503 OA
ATOM     60  H   UNL     1      10.062  -6.119  24.814  0.00  0.00    +0.292 HD
ENDBRANCH  54  59
ENDBRANCH  50  51
BRANCH  49  61
ATOM     61  O   UNL     1       2.615   1.473  27.226  0.00  0.00    -0.506 OA
ATOM     62  H   UNL     1       2.470   1.944  28.064  0.00  0.00    +0.292 HD
ENDBRANCH  49  61
BRANCH  46  63
ATOM     63  O   UNL     1       6.160   4.028  25.332  0.00  0.00    -0.461 OA
BRANCH  63  64
ATOM     64  C   UNL     1       6.397   3.949  23.909  0.00  0.00    +0.339 C 
ATOM     65  O   UNL     1       7.774   3.676  23.629  0.00  0.00    -0.334 OA
ATOM     66  C   UNL     1       8.635   4.755  24.019  0.00  0.00    +0.150 C 
ATOM     67  C   UNL     1      10.070   4.277  23.859  0.00  0.00    +0.041 C 
ATOM     68  C   UNL     1       8.344   6.009  23.177  0.00  0.00    +0.174 C 
ATOM     69  C   UNL     1       6.865   6.419  23.298  0.00  0.00    +0.180 C 
ATOM     70  C   UNL     1       5.948   5.203  23.111  0.00  0.00    +0.214 C 
BRANCH  70  71
ATOM     71  O   UNL     1       4.572   5.529  23.314  0.00  0.00    -0.383 OA
ATOM     72  H   UNL     1       4.125   5.470  22.451  0.00  0.00    +0.210 HD
ENDBRANCH  70  71
BRANCH  69  73
ATOM     73  O   UNL     1       6.645   7.105  24.541  0.00  0.00    -0.386 OA
ATOM     74  H   UNL     1       6.835   6.503  25.279  0.00  0.00    +0.210 HD
ENDBRANCH  69  73
BRANCH  68  75
ATOM     75  O   UNL     1       9.195   7.087  23.565  0.00  0.00    -0.387 OA
ATOM     76  H   UNL     1       8.668   7.691  24.125  0.00  0.00    +0.210 HD
ENDBRANCH  68  75
ENDBRANCH  63  64
ENDBRANCH  46  63
ENDBRANCH  39  40
ENDBRANCH   3  39
TORSDOF 24
ENDMDL
MODEL 6
REMARK VINA RESULT:      -4.7      2.689      8.346
REMARK  Name = 
REMARK  26 active torsions:
REMARK  status: ('A' for Active; 'I' for Inactive)
REMARK    1  A    between atoms: C_1  and  C_2
REMARK    2  A    between atoms: C_3  and  O_72
REMARK    3  A    between atoms: C_5  and  O_71
REMARK    4  A    between atoms: C_7  and  O_70
REMARK    5  A    between atoms: C_8  and  O_11
REMARK    6  A    between atoms: O_11  and  C_12
REMARK    7  A    between atoms: C_12  and  C_13
REMARK    8  A    between atoms: C_14  and  O_58
REMARK    9  A    between atoms: C_16  and  O_57
REMARK   10  A    between atoms: C_17  and  O_56
REMARK   11  A    between atoms: C_18  and  O_21
REMARK   12  A    between atoms: O_21  and  C_22
REMARK   13  A    between atoms: C_23  and  C_48
REMARK   14  A    between atoms: C_27  and  O_34
REMARK   15  A    between atoms: C_29  and  O_33
REMARK   16  A    between atoms: O_34  and  C_35
REMARK   17  A    between atoms: C_37  and  O_47
REMARK   18  A    between atoms: C_38  and  O_46
REMARK   19  A    between atoms: C_40  and  O_45
REMARK   20  A    between atoms: C_42  and  C_44
REMARK   21  A    between atoms: C_50  and  O_55
REMARK   22  A    between atoms: C_51  and  O_54
REMARK   23  A    between atoms: O_58  and  C_59
REMARK   24  A    between atoms: C_59  and  C_61
REMARK   25  A    between atoms: C_62  and  C_63
REMARK   26  A    between atoms: C_66  and  O_69
REMARK                            x       y       z     vdW  Elec       q    Type
REMARK                         _______ _______ _______ _____ _____    ______ ____
ROOT
ATOM      1  C   UNL     1       6.940  -2.183  24.728  0.00  0.00    +0.191 C 
ATOM      2  O   UNL     1       7.208  -0.785  25.102  0.00  0.00    -0.330 OA
ATOM      3  C   UNL     1       8.046   0.070  24.278  0.00  0.00    +0.340 C 
ATOM      4  C   UNL     1       9.372  -0.661  23.907  0.00  0.00    +0.215 C 
ATOM      5  C   UNL     1       9.020  -2.009  23.252  0.00  0.00    +0.192 C 
ATOM      6  C   UNL     1       8.191  -2.907  24.185  0.00  0.00    +0.239 C 
ENDROOT
BRANCH   5   7
ATOM      7  O   UNL     1      10.225  -2.695  22.868  0.00  0.00    -0.385 OA
ATOM      8  H   UNL     1      10.834  -2.618  23.630  0.00  0.00    +0.210 HD
ENDBRANCH   5   7
BRANCH   4   9
ATOM      9  O   UNL     1      10.246  -0.874  25.036  0.00  0.00    -0.383 OA
ATOM     10  H   UNL     1      10.266  -1.836  25.202  0.00  0.00    +0.210 HD
ENDBRANCH   4   9
BRANCH   1  11
ATOM     11  C   UNL     1       5.632  -2.432  23.892  0.00  0.00    +0.198 C 
BRANCH  11  12
ATOM     12  O   UNL     1       5.292  -3.773  23.473  0.00  0.00    -0.346 OA
BRANCH  12  16
ATOM     13  C   UNL     1       1.454  -4.329  25.611  0.00  0.00    +0.041 C 
ATOM     14  C   UNL     1       2.638  -5.290  25.530  0.00  0.00    +0.149 C 
ATOM     15  O   UNL     1       3.826  -4.629  25.045  0.00  0.00    -0.343 OA
ATOM     16  C   UNL     1       3.999  -4.422  23.615  0.00  0.00    +0.282 C 
ATOM     17  C   UNL     1       3.830  -5.804  22.925  0.00  0.00    +0.201 C 
ATOM     18  C   UNL     1       2.416  -6.355  23.260  0.00  0.00    +0.179 C 
ATOM     19  C   UNL     1       2.253  -6.571  24.771  0.00  0.00    +0.174 C 
BRANCH  19  20
ATOM     20  O   UNL     1       3.042  -7.680  25.223  0.00  0.00    -0.387 OA
ATOM     21  H   UNL     1       3.645  -7.329  25.914  0.00  0.00    +0.210 HD
ENDBRANCH  19  20
BRANCH  18  22
ATOM     22  O   UNL     1       2.139  -7.569  22.547  0.00  0.00    -0.386 OA
ATOM     23  H   UNL     1       1.649  -7.336  21.734  0.00  0.00    +0.210 HD
ENDBRANCH  18  22
BRANCH  17  24
ATOM     24  O   UNL     1       4.814  -6.741  23.407  0.00  0.00    -0.384 OA
ATOM     25  H   UNL     1       4.424  -7.635  23.265  0.00  0.00    +0.210 HD
ENDBRANCH  17  24
ENDBRANCH  12  16
ENDBRANCH  11  12
ENDBRANCH   1  11
BRANCH   6  26
ATOM     26  O   UNL     1       9.064  -3.242  25.303  0.00  0.00    -0.453 OA
BRANCH  26  27
ATOM     27  C   UNL     1       9.109  -4.543  25.661  0.00  0.00    +0.332 C 
ATOM     28  O   UNL     1       9.838  -5.396  25.183  0.00  0.00    -0.246 OA
BRANCH  27  29
ATOM     29  C   UNL     1       8.103  -4.853  26.693  0.00  0.00    +0.092 C 
ATOM     30  C   UNL     1       6.838  -5.215  26.433  0.00  0.00    +0.015 C 
BRANCH  30  31
ATOM     31  C   UNL     1       5.919  -5.493  27.531  0.00  0.00    -0.025 A 
ATOM     32  C   UNL     1       5.508  -4.469  28.390  0.00  0.00    +0.011 A 
ATOM     33  C   UNL     1       4.559  -4.737  29.374  0.00  0.00    +0.046 A 
ATOM     34  C   UNL     1       4.026  -6.013  29.497  0.00  0.00    +0.117 A 
ATOM     35  C   UNL     1       4.435  -7.055  28.663  0.00  0.00    +0.046 A 
ATOM     36  C   UNL     1       5.391  -6.786  27.681  0.00  0.00    +0.011 A 
BRANCH  34  37
ATOM     37  O   UNL     1       3.060  -6.208  30.440  0.00  0.00    -0.507 OA
ATOM     38  H   UNL     1       2.416  -5.484  30.369  0.00  0.00    +0.292 HD
ENDBRANCH  34  37
ENDBRANCH  30  31
ENDBRANCH  27  29
ENDBRANCH  26  27
ENDBRANCH   6  26
BRANCH   3  39
ATOM     39  O   UNL     1       8.419   1.325  24.961  0.00  0.00    -0.453 OA
BRANCH  39  40
ATOM     40  C   UNL     1       7.603   1.975  25.902  0.00  0.00    +0.214 A 
ATOM     41  C   UNL     1       7.133   1.277  27.160  0.00  0.00    +0.238 A 
ATOM     42  O   UNL     1       7.636   0.227  27.543  0.00  0.00    -0.283 OA
ATOM     43  C   UNL     1       5.999   1.898  27.899  0.00  0.00    +0.109 A 
ATOM     44  C   UNL     1       5.747   3.235  27.661  0.00  0.00    +0.147 A 
ATOM     45  C   UNL     1       4.746   3.942  28.349  0.00  0.00    +0.093 A 
ATOM     46  C   UNL     1       3.917   3.294  29.265  0.00  0.00    +0.131 A 
ATOM     47  C   UNL     1       4.145   1.931  29.495  0.00  0.00    +0.092 A 
ATOM     48  O   UNL     1       6.446   3.944  26.732  0.00  0.00    -0.451 OA
ATOM     49  C   UNL     1       5.188   1.248  28.831  0.00  0.00    +0.135 A 
ATOM     50  C   UNL     1       7.128   3.252  25.738  0.00  0.00    +0.181 A 
BRANCH  50  51
ATOM     51  C   UNL     1       7.204   4.120  24.516  0.00  0.00    +0.025 A 
ATOM     52  C   UNL     1       6.025   4.527  23.883  0.00  0.00    +0.015 A 
ATOM     53  C   UNL     1       6.051   5.311  22.726  0.00  0.00    +0.050 A 
ATOM     54  C   UNL     1       7.247   5.864  22.295  0.00  0.00    +0.158 A 
ATOM     55  C   UNL     1       8.419   5.625  23.002  0.00  0.00    +0.159 A 
ATOM     56  C   UNL     1       8.416   4.723  24.076  0.00  0.00    +0.060 A 
BRANCH  55  57
ATOM     57  O   UNL     1       9.524   6.361  22.665  0.00  0.00    -0.503 OA
ATOM     58  H   UNL     1       9.698   6.297  21.716  0.00  0.00    +0.292 HD
ENDBRANCH  55  57
BRANCH  54  59
ATOM     59  O   UNL     1       7.270   6.686  21.205  0.00  0.00    -0.503 OA
ATOM     60  H   UNL     1       6.496   6.473  20.662  0.00  0.00    +0.292 HD
ENDBRANCH  54  59
ENDBRANCH  50  51
BRANCH  49  61
ATOM     61  O   UNL     1       5.358  -0.083  29.080  0.00  0.00    -0.506 OA
ATOM     62  H   UNL     1       5.049  -0.585  28.308  0.00  0.00    +0.292 HD
ENDBRANCH  49  61
BRANCH  46  63
ATOM     63  O   UNL     1       2.857   3.878  29.939  0.00  0.00    -0.461 OA
BRANCH  63  64
ATOM     64  C   UNL     1       1.541   3.559  29.436  0.00  0.00    +0.339 C 
ATOM     65  O   UNL     1       1.622   2.855  28.192  0.00  0.00    -0.334 OA
ATOM     66  C   UNL     1       2.159   3.667  27.139  0.00  0.00    +0.150 C 
ATOM     67  C   UNL     1       2.379   2.766  25.932  0.00  0.00    +0.041 C 
ATOM     68  C   UNL     1       1.213   4.837  26.824  0.00  0.00    +0.174 C 
ATOM     69  C   UNL     1       0.948   5.682  28.082  0.00  0.00    +0.180 C 
ATOM     70  C   UNL     1       0.600   4.783  29.276  0.00  0.00    +0.214 C 
BRANCH  70  71
ATOM     71  O   UNL     1       0.443   5.527  30.485  0.00  0.00    -0.383 OA
ATOM     72  H   UNL     1      -0.168   5.031  31.058  0.00  0.00    +0.210 HD
ENDBRANCH  70  71
BRANCH  69  73
ATOM     73  O   UNL     1       2.065   6.549  28.337  0.00  0.00    -0.386 OA
ATOM     74  H   UNL     1       2.412   6.373  29.227  0.00  0.00    +0.210 HD
ENDBRANCH  69  73
BRANCH  68  75
ATOM     75  O   UNL     1       1.746   5.651  25.778  0.00  0.00    -0.387 OA
ATOM     76  H   UNL     1       1.016   5.846  25.157  0.00  0.00    +0.210 HD
ENDBRANCH  68  75
ENDBRANCH  63  64
ENDBRANCH  46  63
ENDBRANCH  39  40
ENDBRANCH   3  39
TORSDOF 24
ENDMDL
MODEL 7
REMARK VINA RESULT:      -3.7      2.780     10.082
REMARK  Name = 
REMARK  26 active torsions:
REMARK  status: ('A' for Active; 'I' for Inactive)
REMARK    1  A    between atoms: C_1  and  C_2
REMARK    2  A    between atoms: C_3  and  O_72
REMARK    3  A    between atoms: C_5  and  O_71
REMARK    4  A    between atoms: C_7  and  O_70
REMARK    5  A    between atoms: C_8  and  O_11
REMARK    6  A    between atoms: O_11  and  C_12
REMARK    7  A    between atoms: C_12  and  C_13
REMARK    8  A    between atoms: C_14  and  O_58
REMARK    9  A    between atoms: C_16  and  O_57
REMARK   10  A    between atoms: C_17  and  O_56
REMARK   11  A    between atoms: C_18  and  O_21
REMARK   12  A    between atoms: O_21  and  C_22
REMARK   13  A    between atoms: C_23  and  C_48
REMARK   14  A    between atoms: C_27  and  O_34
REMARK   15  A    between atoms: C_29  and  O_33
REMARK   16  A    between atoms: O_34  and  C_35
REMARK   17  A    between atoms: C_37  and  O_47
REMARK   18  A    between atoms: C_38  and  O_46
REMARK   19  A    between atoms: C_40  and  O_45
REMARK   20  A    between atoms: C_42  and  C_44
REMARK   21  A    between atoms: C_50  and  O_55
REMARK   22  A    between atoms: C_51  and  O_54
REMARK   23  A    between atoms: O_58  and  C_59
REMARK   24  A    between atoms: C_59  and  C_61
REMARK   25  A    between atoms: C_62  and  C_63
REMARK   26  A    between atoms: C_66  and  O_69
REMARK                            x       y       z     vdW  Elec       q    Type
REMARK                         _______ _______ _______ _____ _____    ______ ____
ROOT
ATOM      1  C   UNL     1       2.728  -3.731  25.716  0.00  0.00    +0.191 C 
ATOM      2  O   UNL     1       3.778  -2.869  26.280  0.00  0.00    -0.330 OA
ATOM      3  C   UNL     1       4.480  -3.232  27.499  0.00  0.00    +0.340 C 
ATOM      4  C   UNL     1       3.466  -3.655  28.605  0.00  0.00    +0.215 C 
ATOM      5  C   UNL     1       2.569  -4.773  28.045  0.00  0.00    +0.192 C 
ATOM      6  C   UNL     1       1.795  -4.322  26.795  0.00  0.00    +0.239 C 
ENDROOT
BRANCH   5   7
ATOM      7  O   UNL     1       1.642  -5.209  29.054  0.00  0.00    -0.385 OA
ATOM      8  H   UNL     1       1.566  -6.180  28.950  0.00  0.00    +0.210 HD
ENDBRANCH   5   7
BRANCH   4   9
ATOM      9  O   UNL     1       2.654  -2.565  29.088  0.00  0.00    -0.383 OA
ATOM     10  H   UNL     1       2.704  -1.856  28.418  0.00  0.00    +0.210 HD
ENDBRANCH   4   9
BRANCH   1  11
ATOM     11  C   UNL     1       3.198  -4.764  24.628  0.00  0.00    +0.198 C 
BRANCH  11  12
ATOM     12  O   UNL     1       3.303  -4.353  23.246  0.00  0.00    -0.346 OA
BRANCH  12  16
ATOM     13  C   UNL     1       6.030  -6.151  20.254  0.00  0.00    +0.041 C 
ATOM     14  C   UNL     1       6.255  -5.980  21.756  0.00  0.00    +0.149 C 
ATOM     15  O   UNL     1       5.023  -5.678  22.445  0.00  0.00    -0.343 OA
ATOM     16  C   UNL     1       4.517  -4.313  22.447  0.00  0.00    +0.282 C 
ATOM     17  C   UNL     1       5.663  -3.397  22.959  0.00  0.00    +0.201 C 
ATOM     18  C   UNL     1       6.886  -3.557  22.014  0.00  0.00    +0.179 C 
ATOM     19  C   UNL     1       7.408  -5.000  22.029  0.00  0.00    +0.174 C 
BRANCH  19  20
ATOM     20  O   UNL     1       8.044  -5.308  23.277  0.00  0.00    -0.387 OA
ATOM     21  H   UNL     1       8.807  -4.695  23.358  0.00  0.00    +0.210 HD
ENDBRANCH  19  20
BRANCH  18  22
ATOM     22  O   UNL     1       7.937  -2.639  22.349  0.00  0.00    -0.386 OA
ATOM     23  H   UNL     1       7.592  -2.015  23.016  0.00  0.00    +0.210 HD
ENDBRANCH  18  22
BRANCH  17  24
ATOM     24  O   UNL     1       6.061  -3.773  24.293  0.00  0.00    -0.384 OA
ATOM     25  H   UNL     1       6.988  -4.098  24.213  0.00  0.00    +0.210 HD
ENDBRANCH  17  24
ENDBRANCH  12  16
ENDBRANCH  11  12
ENDBRANCH   1  11
BRANCH   6  26
ATOM     26  O   UNL     1       0.876  -3.282  27.243  0.00  0.00    -0.453 OA
BRANCH  26  27
ATOM     27  C   UNL     1       0.594  -2.307  26.354  0.00  0.00    +0.332 C 
ATOM     28  O   UNL     1       0.474  -2.445  25.148  0.00  0.00    -0.246 OA
BRANCH  27  29
ATOM     29  C   UNL     1       0.497  -0.990  27.009  0.00  0.00    +0.092 C 
ATOM     30  C   UNL     1       0.741   0.179  26.400  0.00  0.00    +0.015 C 
BRANCH  30  31
ATOM     31  C   UNL     1       0.624   1.428  27.145  0.00  0.00    -0.025 A 
ATOM     32  C   UNL     1       0.737   1.436  28.539  0.00  0.00    +0.011 A 
ATOM     33  C   UNL     1       0.715   2.650  29.223  0.00  0.00    +0.046 A 
ATOM     34  C   UNL     1       0.582   3.841  28.521  0.00  0.00    +0.117 A 
ATOM     35  C   UNL     1       0.448   3.855  27.131  0.00  0.00    +0.046 A 
ATOM     36  C   UNL     1       0.465   2.637  26.449  0.00  0.00    +0.011 A 
BRANCH  34  37
ATOM     37  O   UNL     1       0.622   5.004  29.234  0.00  0.00    -0.507 OA
ATOM     38  H   UNL     1       1.512   5.383  29.147  0.00  0.00    +0.292 HD
ENDBRANCH  34  37
ENDBRANCH  30  31
ENDBRANCH  27  29
ENDBRANCH  26  27
ENDBRANCH   6  26
BRANCH   3  39
ATOM     39  O   UNL     1       5.279  -2.118  28.047  0.00  0.00    -0.453 OA
BRANCH  39  40
ATOM     40  C   UNL     1       5.806  -1.076  27.265  0.00  0.00    +0.214 A 
ATOM     41  C   UNL     1       5.085   0.247  27.119  0.00  0.00    +0.238 A 
ATOM     42  O   UNL     1       4.163   0.566  27.860  0.00  0.00    -0.283 OA
ATOM     43  C   UNL     1       5.517   1.136  26.005  0.00  0.00    +0.109 A 
ATOM     44  C   UNL     1       6.774   0.919  25.474  0.00  0.00    +0.147 A 
ATOM     45  C   UNL     1       7.311   1.738  24.466  0.00  0.00    +0.093 A 
ATOM     46  C   UNL     1       6.560   2.774  23.912  0.00  0.00    +0.131 A 
ATOM     47  C   UNL     1       5.273   2.987  24.424  0.00  0.00    +0.092 A 
ATOM     48  O   UNL     1       7.561  -0.112  25.888  0.00  0.00    -0.451 OA
ATOM     49  C   UNL     1       4.767   2.187  25.472  0.00  0.00    +0.135 A 
ATOM     50  C   UNL     1       6.965  -1.186  26.540  0.00  0.00    +0.181 A 
BRANCH  50  51
ATOM     51  C   UNL     1       7.781  -2.418  26.276  0.00  0.00    +0.025 A 
ATOM     52  C   UNL     1       8.980  -2.313  25.563  0.00  0.00    +0.015 A 
ATOM     53  C   UNL     1       9.756  -3.439  25.270  0.00  0.00    +0.050 A 
ATOM     54  C   UNL     1       9.447  -4.659  25.852  0.00  0.00    +0.158 A 
ATOM     55  C   UNL     1       8.360  -4.765  26.711  0.00  0.00    +0.159 A 
ATOM     56  C   UNL     1       7.500  -3.671  26.889  0.00  0.00    +0.060 A 
BRANCH  55  57
ATOM     57  O   UNL     1       8.225  -5.927  27.422  0.00  0.00    -0.503 OA
ATOM     58  H   UNL     1       8.752  -5.894  28.232  0.00  0.00    +0.292 HD
ENDBRANCH  55  57
BRANCH  54  59
ATOM     59  O   UNL     1      10.239  -5.747  25.626  0.00  0.00    -0.503 OA
ATOM     60  H   UNL     1      11.161  -5.463  25.722  0.00  0.00    +0.292 HD
ENDBRANCH  54  59
ENDBRANCH  50  51
BRANCH  49  61
ATOM     61  O   UNL     1       3.501   2.426  25.923  0.00  0.00    -0.506 OA
ATOM     62  H   UNL     1       3.080   1.576  26.130  0.00  0.00    +0.292 HD
ENDBRANCH  49  61
BRANCH  46  63
ATOM     63  O   UNL     1       6.966   3.590  22.869  0.00  0.00    -0.461 OA
BRANCH  63  64
ATOM     64  C   UNL     1       8.031   4.517  23.175  0.00  0.00    +0.339 C 
ATOM     65  O   UNL     1       8.299   4.548  24.581  0.00  0.00    -0.334 OA
ATOM     66  C   UNL     1       7.203   5.086  25.335  0.00  0.00    +0.150 C 
ATOM     67  C   UNL     1       7.520   4.888  26.810  0.00  0.00    +0.041 C 
ATOM     68  C   UNL     1       6.983   6.567  24.982  0.00  0.00    +0.174 C 
ATOM     69  C   UNL     1       6.745   6.742  23.472  0.00  0.00    +0.180 C 
ATOM     70  C   UNL     1       7.792   5.963  22.665  0.00  0.00    +0.214 C 
BRANCH  70  71
ATOM     71  O   UNL     1       7.543   6.023  21.259  0.00  0.00    -0.383 OA
ATOM     72  H   UNL     1       8.387   6.231  20.820  0.00  0.00    +0.210 HD
ENDBRANCH  70  71
BRANCH  69  73
ATOM     73  O   UNL     1       5.395   6.381  23.142  0.00  0.00    -0.386 OA
ATOM     74  H   UNL     1       4.946   7.145  22.744  0.00  0.00    +0.210 HD
ENDBRANCH  69  73
BRANCH  68  75
ATOM     75  O   UNL     1       5.891   7.107  25.727  0.00  0.00    -0.387 OA
ATOM     76  H   UNL     1       6.182   7.190  26.656  0.00  0.00    +0.210 HD
ENDBRANCH  68  75
ENDBRANCH  63  64
ENDBRANCH  46  63
ENDBRANCH  39  40
ENDBRANCH   3  39
TORSDOF 24
ENDMDL
