MODEL 1
REMARK VINA RESULT:      -7.6      0.000      0.000
REMARK  Name = 
REMARK  18 active torsions:
REMARK  status: ('A' for Active; 'I' for Inactive)
REMARK    1  A    between atoms: C_3  and  O_52
REMARK    2  A    between atoms: C_4  and  O_51
REMARK    3  A    between atoms: C_6  and  C_7
REMARK    4  A    between atoms: C_8  and  O_35
REMARK    5  A    between atoms: C_12  and  O_34
REMARK    6  A    between atoms: C_14  and  O_18
REMARK    7  A    between atoms: O_18  and  C_19
REMARK    8  A    between atoms: C_20  and  O_33
REMARK    9  A    between atoms: C_22  and  O_32
REMARK   10  A    between atoms: C_24  and  O_31
REMARK   11  A    between atoms: C_26  and  C_29
REMARK   12  A    between atoms: C_29  and  O_30
REMARK   13  A    between atoms: O_35  and  C_36
REMARK   14  A    between atoms: C_37  and  O_50
REMARK   15  A    between atoms: C_39  and  O_49
REMARK   16  A    between atoms: C_41  and  O_48
REMARK   17  A    between atoms: C_43  and  C_46
REMARK   18  A    between atoms: C_46  and  O_47
REMARK                            x       y       z     vdW  Elec       q    Type
REMARK                         _______ _______ _______ _____ _____    ______ ____
ROOT
ATOM      1  C   UNL     1       7.226   1.971  23.867  0.00  0.00    +0.181 A 
ATOM      2  O   UNL     1       6.623   0.753  23.510  0.00  0.00    -0.451 OA
ATOM      3  C   UNL     1       7.396  -0.374  23.334  0.00  0.00    +0.147 A 
ATOM      4  C   UNL     1       8.782  -0.297  23.316  0.00  0.00    +0.109 A 
ATOM      5  C   UNL     1       9.534  -1.433  23.033  0.00  0.00    +0.135 A 
ATOM      6  C   UNL     1       8.912  -2.658  22.815  0.00  0.00    +0.092 A 
ATOM      7  C   UNL     1       7.515  -2.773  22.832  0.00  0.00    +0.131 A 
ATOM      8  C   UNL     1       9.430   0.975  23.642  0.00  0.00    +0.238 A 
ATOM      9  O   UNL     1      10.651   1.071  23.577  0.00  0.00    -0.283 OA
ATOM     10  C   UNL     1       6.759  -1.619  23.121  0.00  0.00    +0.093 A 
ATOM     11  C   UNL     1       8.566   2.101  24.086  0.00  0.00    +0.214 A 
ENDROOT
BRANCH   1  13
ATOM     12  C   UNL     1       5.769   3.507  25.237  0.00  0.00    +0.015 A 
ATOM     13  C   UNL     1       6.261   3.109  23.980  0.00  0.00    +0.025 A 
ATOM     14  C   UNL     1       5.791   3.819  22.853  0.00  0.00    +0.060 A 
ATOM     15  C   UNL     1       4.962   4.925  22.997  0.00  0.00    +0.159 A 
ATOM     16  C   UNL     1       4.473   5.283  24.241  0.00  0.00    +0.158 A 
ATOM     17  C   UNL     1       4.862   4.573  25.369  0.00  0.00    +0.050 A 
BRANCH  16  18
ATOM     18  O   UNL     1       3.596   6.327  24.303  0.00  0.00    -0.503 OA
ATOM     19  H   UNL     1       3.141   6.385  23.445  0.00  0.00    +0.292 HD
ENDBRANCH  16  18
BRANCH  15  20
ATOM     20  O   UNL     1       4.640   5.662  21.892  0.00  0.00    -0.503 OA
ATOM     21  H   UNL     1       5.206   6.456  21.942  0.00  0.00    +0.292 HD
ENDBRANCH  15  20
ENDBRANCH   1  13
BRANCH   5  22
ATOM     22  O   UNL     1      10.901  -1.429  22.924  0.00  0.00    -0.506 OA
ATOM     23  H   UNL     1      11.268  -0.954  23.701  0.00  0.00    +0.292 HD
ENDBRANCH   5  22
BRANCH  11  24
ATOM     24  O   UNL     1       9.239   3.196  24.624  0.00  0.00    -0.453 OA
BRANCH  24  25
ATOM     25  C   UNL     1       9.223   4.376  23.794  0.00  0.00    +0.340 C 
ATOM     26  O   UNL     1      10.385   4.446  22.966  0.00  0.00    -0.331 OA
ATOM     27  C   UNL     1      11.504   5.275  23.301  0.00  0.00    +0.179 C 
ATOM     28  C   UNL     1      11.278   6.390  24.343  0.00  0.00    +0.177 C 
ATOM     29  C   UNL     1      10.209   6.004  25.356  0.00  0.00    +0.180 C 
ATOM     30  C   UNL     1       8.937   5.646  24.602  0.00  0.00    +0.214 C 
BRANCH  30  31
ATOM     31  O   UNL     1       8.532   6.729  23.742  0.00  0.00    -0.383 OA
ATOM     32  H   UNL     1       7.583   6.655  23.524  0.00  0.00    +0.210 HD
ENDBRANCH  30  31
BRANCH  29  33
ATOM     33  O   UNL     1      10.023   7.108  26.252  0.00  0.00    -0.386 OA
ATOM     34  H   UNL     1      10.891   7.299  26.659  0.00  0.00    +0.210 HD
ENDBRANCH  29  33
BRANCH  28  35
ATOM     35  O   UNL     1      12.480   6.751  25.048  0.00  0.00    -0.386 OA
ATOM     36  H   UNL     1      12.932   5.895  25.210  0.00  0.00    +0.210 HD
ENDBRANCH  28  35
BRANCH  27  37
ATOM     37  C   UNL     1      12.755   4.420  23.575  0.00  0.00    +0.190 C 
BRANCH  37  38
ATOM     38  O   UNL     1      13.946   5.088  23.159  0.00  0.00    -0.392 OA
ATOM     39  H   UNL     1      14.044   4.886  22.200  0.00  0.00    +0.210 HD
ENDBRANCH  37  38
ENDBRANCH  27  37
ENDBRANCH  24  25
ENDBRANCH  11  24
BRANCH   7  40
ATOM     40  O   UNL     1       6.832  -3.956  22.543  0.00  0.00    -0.461 OA
BRANCH  40  41
ATOM     41  C   UNL     1       5.537  -4.044  23.170  0.00  0.00    +0.339 C 
ATOM     42  O   UNL     1       5.592  -3.701  24.564  0.00  0.00    -0.331 OA
ATOM     43  C   UNL     1       6.024  -4.738  25.454  0.00  0.00    +0.179 C 
ATOM     44  C   UNL     1       4.999  -5.867  25.410  0.00  0.00    +0.177 C 
ATOM     45  C   UNL     1       4.944  -6.446  23.989  0.00  0.00    +0.180 C 
ATOM     46  C   UNL     1       4.720  -5.347  22.942  0.00  0.00    +0.214 C 
BRANCH  46  47
ATOM     47  O   UNL     1       3.294  -5.034  23.018  0.00  0.00    -0.383 OA
ATOM     48  H   UNL     1       3.173  -4.101  22.757  0.00  0.00    +0.210 HD
ENDBRANCH  46  47
BRANCH  45  49
ATOM     49  O   UNL     1       3.901  -7.439  23.954  0.00  0.00    -0.386 OA
ATOM     50  H   UNL     1       3.897  -7.805  23.043  0.00  0.00    +0.210 HD
ENDBRANCH  45  49
BRANCH  44  51
ATOM     51  O   UNL     1       5.314  -6.893  26.348  0.00  0.00    -0.386 OA
ATOM     52  H   UNL     1       5.936  -6.485  26.985  0.00  0.00    +0.210 HD
ENDBRANCH  44  51
BRANCH  43  53
ATOM     53  C   UNL     1       7.465  -5.264  25.234  0.00  0.00    +0.190 C 
BRANCH  53  54
ATOM     54  O   UNL     1       8.044  -5.846  26.396  0.00  0.00    -0.392 OA
ATOM     55  H   UNL     1       7.349  -5.936  27.065  0.00  0.00    +0.210 HD
ENDBRANCH  53  54
ENDBRANCH  43  53
ENDBRANCH  40  41
ENDBRANCH   7  40
TORSDOF 18
ENDMDL
MODEL 2
REMARK VINA RESULT:      -7.5      2.066      9.886
REMARK  Name = 
REMARK  18 active torsions:
REMARK  status: ('A' for Active; 'I' for Inactive)
REMARK    1  A    between atoms: C_3  and  O_52
REMARK    2  A    between atoms: C_4  and  O_51
REMARK    3  A    between atoms: C_6  and  C_7
REMARK    4  A    between atoms: C_8  and  O_35
REMARK    5  A    between atoms: C_12  and  O_34
REMARK    6  A    between atoms: C_14  and  O_18
REMARK    7  A    between atoms: O_18  and  C_19
REMARK    8  A    between atoms: C_20  and  O_33
REMARK    9  A    between atoms: C_22  and  O_32
REMARK   10  A    between atoms: C_24  and  O_31
REMARK   11  A    between atoms: C_26  and  C_29
REMARK   12  A    between atoms: C_29  and  O_30
REMARK   13  A    between atoms: O_35  and  C_36
REMARK   14  A    between atoms: C_37  and  O_50
REMARK   15  A    between atoms: C_39  and  O_49
REMARK   16  A    between atoms: C_41  and  O_48
REMARK   17  A    between atoms: C_43  and  C_46
REMARK   18  A    between atoms: C_46  and  O_47
REMARK                            x       y       z     vdW  Elec       q    Type
REMARK                         _______ _______ _______ _____ _____    ______ ____
ROOT
ATOM      1  C   UNL     1       7.514  -1.724  25.250  0.00  0.00    +0.181 A 
ATOM      2  O   UNL     1       7.655  -0.388  25.661  0.00  0.00    -0.451 OA
ATOM      3  C   UNL     1       8.221   0.539  24.813  0.00  0.00    +0.147 A 
ATOM      4  C   UNL     1       8.830   0.148  23.629  0.00  0.00    +0.109 A 
ATOM      5  C   UNL     1       9.485   1.092  22.844  0.00  0.00    +0.135 A 
ATOM      6  C   UNL     1       9.493   2.434  23.210  0.00  0.00    +0.092 A 
ATOM      7  C   UNL     1       8.883   2.865  24.396  0.00  0.00    +0.131 A 
ATOM      8  C   UNL     1       8.734  -1.250  23.203  0.00  0.00    +0.238 A 
ATOM      9  O   UNL     1       9.312  -1.619  22.188  0.00  0.00    -0.283 OA
ATOM     10  C   UNL     1       8.220   1.903  25.186  0.00  0.00    +0.093 A 
ATOM     11  C   UNL     1       7.887  -2.165  24.014  0.00  0.00    +0.214 A 
ENDROOT
BRANCH   1  13
ATOM     12  C   UNL     1       5.744  -2.240  26.971  0.00  0.00    +0.015 A 
ATOM     13  C   UNL     1       6.920  -2.615  26.295  0.00  0.00    +0.025 A 
ATOM     14  C   UNL     1       7.505  -3.847  26.662  0.00  0.00    +0.060 A 
ATOM     15  C   UNL     1       6.884  -4.693  27.574  0.00  0.00    +0.159 A 
ATOM     16  C   UNL     1       5.742  -4.291  28.243  0.00  0.00    +0.158 A 
ATOM     17  C   UNL     1       5.167  -3.060  27.956  0.00  0.00    +0.050 A 
BRANCH  16  18
ATOM     18  O   UNL     1       5.230  -5.132  29.188  0.00  0.00    -0.503 OA
ATOM     19  H   UNL     1       4.913  -4.589  29.931  0.00  0.00    +0.292 HD
ENDBRANCH  16  18
BRANCH  15  20
ATOM     20  O   UNL     1       7.415  -5.932  27.799  0.00  0.00    -0.503 OA
ATOM     21  H   UNL     1       7.349  -6.066  28.764  0.00  0.00    +0.292 HD
ENDBRANCH  15  20
ENDBRANCH   1  13
BRANCH   5  22
ATOM     22  O   UNL     1      10.173   0.781  21.699  0.00  0.00    -0.506 OA
ATOM     23  H   UNL     1      10.569  -0.111  21.813  0.00  0.00    +0.292 HD
ENDBRANCH   5  22
BRANCH  11  24
ATOM     24  O   UNL     1       7.620  -3.405  23.436  0.00  0.00    -0.453 OA
BRANCH  24  25
ATOM     25  C   UNL     1       6.552  -3.396  22.466  0.00  0.00    +0.340 C 
ATOM     26  O   UNL     1       5.283  -3.196  23.091  0.00  0.00    -0.331 OA
ATOM     27  C   UNL     1       4.392  -4.284  23.359  0.00  0.00    +0.179 C 
ATOM     28  C   UNL     1       4.638  -5.609  22.608  0.00  0.00    +0.177 C 
ATOM     29  C   UNL     1       6.115  -5.813  22.299  0.00  0.00    +0.180 C 
ATOM     30  C   UNL     1       6.618  -4.603  21.525  0.00  0.00    +0.214 C 
BRANCH  30  31
ATOM     31  O   UNL     1       5.820  -4.387  20.345  0.00  0.00    -0.383 OA
ATOM     32  H   UNL     1       5.926  -5.131  19.721  0.00  0.00    +0.210 HD
ENDBRANCH  30  31
BRANCH  29  33
ATOM     33  O   UNL     1       6.252  -7.034  21.558  0.00  0.00    -0.386 OA
ATOM     34  H   UNL     1       7.062  -7.476  21.879  0.00  0.00    +0.210 HD
ENDBRANCH  29  33
BRANCH  28  35
ATOM     35  O   UNL     1       4.148  -6.758  23.322  0.00  0.00    -0.386 OA
ATOM     36  H   UNL     1       4.935  -7.103  23.797  0.00  0.00    +0.210 HD
ENDBRANCH  28  35
BRANCH  27  37
ATOM     37  C   UNL     1       4.190  -4.464  24.875  0.00  0.00    +0.190 C 
BRANCH  37  38
ATOM     38  O   UNL     1       2.893  -4.981  25.172  0.00  0.00    -0.392 OA
ATOM     39  H   UNL     1       2.635  -4.578  26.032  0.00  0.00    +0.210 HD
ENDBRANCH  37  38
ENDBRANCH  27  37
ENDBRANCH  24  25
ENDBRANCH  11  24
BRANCH   7  40
ATOM     40  O   UNL     1       8.926   4.182  24.855  0.00  0.00    -0.461 OA
BRANCH  40  41
ATOM     41  C   UNL     1       8.481   5.149  23.883  0.00  0.00    +0.339 C 
ATOM     42  O   UNL     1       8.220   6.430  24.481  0.00  0.00    -0.331 OA
ATOM     43  C   UNL     1       6.946   6.580  25.122  0.00  0.00    +0.179 C 
ATOM     44  C   UNL     1       5.857   6.459  24.061  0.00  0.00    +0.177 C 
ATOM     45  C   UNL     1       5.915   5.060  23.433  0.00  0.00    +0.180 C 
ATOM     46  C   UNL     1       7.326   4.726  22.931  0.00  0.00    +0.214 C 
BRANCH  46  47
ATOM     47  O   UNL     1       7.462   5.450  21.668  0.00  0.00    -0.383 OA
ATOM     48  H   UNL     1       7.871   6.316  21.857  0.00  0.00    +0.210 HD
ENDBRANCH  46  47
BRANCH  45  49
ATOM     49  O   UNL     1       4.944   5.008  22.370  0.00  0.00    -0.386 OA
ATOM     50  H   UNL     1       5.109   5.794  21.806  0.00  0.00    +0.210 HD
ENDBRANCH  45  49
BRANCH  44  51
ATOM     51  O   UNL     1       4.564   6.697  24.612  0.00  0.00    -0.386 OA
ATOM     52  H   UNL     1       4.077   5.854  24.513  0.00  0.00    +0.210 HD
ENDBRANCH  44  51
BRANCH  43  53
ATOM     53  C   UNL     1       6.679   5.644  26.327  0.00  0.00    +0.190 C 
BRANCH  53  54
ATOM     54  O   UNL     1       7.792   5.506  27.202  0.00  0.00    -0.392 OA
ATOM     55  H   UNL     1       8.458   4.962  26.756  0.00  0.00    +0.210 HD
ENDBRANCH  53  54
ENDBRANCH  43  53
ENDBRANCH  40  41
ENDBRANCH   7  40
TORSDOF 18
ENDMDL
MODEL 3
REMARK VINA RESULT:      -7.4      1.430      1.749
REMARK  Name = 
REMARK  18 active torsions:
REMARK  status: ('A' for Active; 'I' for Inactive)
REMARK    1  A    between atoms: C_3  and  O_52
REMARK    2  A    between atoms: C_4  and  O_51
REMARK    3  A    between atoms: C_6  and  C_7
REMARK    4  A    between atoms: C_8  and  O_35
REMARK    5  A    between atoms: C_12  and  O_34
REMARK    6  A    between atoms: C_14  and  O_18
REMARK    7  A    between atoms: O_18  and  C_19
REMARK    8  A    between atoms: C_20  and  O_33
REMARK    9  A    between atoms: C_22  and  O_32
REMARK   10  A    between atoms: C_24  and  O_31
REMARK   11  A    between atoms: C_26  and  C_29
REMARK   12  A    between atoms: C_29  and  O_30
REMARK   13  A    between atoms: O_35  and  C_36
REMARK   14  A    between atoms: C_37  and  O_50
REMARK   15  A    between atoms: C_39  and  O_49
REMARK   16  A    between atoms: C_41  and  O_48
REMARK   17  A    between atoms: C_43  and  C_46
REMARK   18  A    between atoms: C_46  and  O_47
REMARK                            x       y       z     vdW  Elec       q    Type
REMARK                         _______ _______ _______ _____ _____    ______ ____
ROOT
ATOM      1  C   UNL     1       7.655   1.149  25.059  0.00  0.00    +0.181 A 
ATOM      2  O   UNL     1       6.979  -0.075  25.196  0.00  0.00    -0.451 OA
ATOM      3  C   UNL     1       7.606  -1.252  24.849  0.00  0.00    +0.147 A 
ATOM      4  C   UNL     1       8.826  -1.245  24.187  0.00  0.00    +0.109 A 
ATOM      5  C   UNL     1       9.385  -2.444  23.756  0.00  0.00    +0.135 A 
ATOM      6  C   UNL     1       8.757  -3.656  24.025  0.00  0.00    +0.092 A 
ATOM      7  C   UNL     1       7.528  -3.700  24.697  0.00  0.00    +0.131 A 
ATOM      8  C   UNL     1       9.527   0.026  23.994  0.00  0.00    +0.238 A 
ATOM      9  O   UNL     1      10.578   0.053  23.364  0.00  0.00    -0.283 OA
ATOM     10  C   UNL     1       6.967  -2.482  25.132  0.00  0.00    +0.093 A 
ATOM     11  C   UNL     1       8.942   1.242  24.618  0.00  0.00    +0.214 A 
ENDROOT
BRANCH   1  13
ATOM     12  C   UNL     1       7.073   3.025  26.642  0.00  0.00    +0.015 A 
ATOM     13  C   UNL     1       6.828   2.338  25.438  0.00  0.00    +0.025 A 
ATOM     14  C   UNL     1       5.770   2.813  24.633  0.00  0.00    +0.060 A 
ATOM     15  C   UNL     1       5.076   3.970  24.968  0.00  0.00    +0.159 A 
ATOM     16  C   UNL     1       5.319   4.614  26.168  0.00  0.00    +0.158 A 
ATOM     17  C   UNL     1       6.311   4.144  27.020  0.00  0.00    +0.050 A 
BRANCH  16  18
ATOM     18  O   UNL     1       4.545   5.695  26.478  0.00  0.00    -0.503 OA
ATOM     19  H   UNL     1       3.856   5.774  25.795  0.00  0.00    +0.292 HD
ENDBRANCH  16  18
BRANCH  15  20
ATOM     20  O   UNL     1       4.153   4.468  24.093  0.00  0.00    -0.503 OA
ATOM     21  H   UNL     1       3.683   3.685  23.747  0.00  0.00    +0.292 HD
ENDBRANCH  15  20
ENDBRANCH   1  13
BRANCH   5  22
ATOM     22  O   UNL     1      10.548  -2.522  23.034  0.00  0.00    -0.506 OA
ATOM     23  H   UNL     1      10.821  -1.609  22.794  0.00  0.00    +0.292 HD
ENDBRANCH   5  22
BRANCH  11  24
ATOM     24  O   UNL     1       9.766   2.367  24.626  0.00  0.00    -0.453 OA
BRANCH  24  25
ATOM     25  C   UNL     1       9.589   3.246  23.496  0.00  0.00    +0.340 C 
ATOM     26  O   UNL     1      10.824   3.474  22.815  0.00  0.00    -0.331 OA
ATOM     27  C   UNL     1      11.592   4.666  23.019  0.00  0.00    +0.179 C 
ATOM     28  C   UNL     1      10.878   5.871  23.666  0.00  0.00    +0.177 C 
ATOM     29  C   UNL     1       9.781   5.426  24.624  0.00  0.00    +0.180 C 
ATOM     30  C   UNL     1       8.821   4.518  23.870  0.00  0.00    +0.214 C 
BRANCH  30  31
ATOM     31  O   UNL     1       8.310   5.180  22.696  0.00  0.00    -0.383 OA
ATOM     32  H   UNL     1       7.783   5.963  22.949  0.00  0.00    +0.210 HD
ENDBRANCH  30  31
BRANCH  29  33
ATOM     33  O   UNL     1       9.136   6.599  25.140  0.00  0.00    -0.386 OA
ATOM     34  H   UNL     1       8.254   6.325  25.462  0.00  0.00    +0.210 HD
ENDBRANCH  29  33
BRANCH  28  35
ATOM     35  O   UNL     1      11.780   6.748  24.366  0.00  0.00    -0.386 OA
ATOM     36  H   UNL     1      12.644   6.283  24.334  0.00  0.00    +0.210 HD
ENDBRANCH  28  35
BRANCH  27  37
ATOM     37  C   UNL     1      12.951   4.338  23.662  0.00  0.00    +0.190 C 
BRANCH  37  38
ATOM     38  O   UNL     1      14.000   5.126  23.099  0.00  0.00    -0.392 OA
ATOM     39  H   UNL     1      14.822   4.845  23.561  0.00  0.00    +0.210 HD
ENDBRANCH  37  38
ENDBRANCH  27  37
ENDBRANCH  24  25
ENDBRANCH  11  24
BRANCH   7  40
ATOM     40  O   UNL     1       6.811  -4.876  24.925  0.00  0.00    -0.461 OA
BRANCH  40  41
ATOM     41  C   UNL     1       5.404  -4.762  24.634  0.00  0.00    +0.339 C 
ATOM     42  O   UNL     1       4.624  -4.562  25.824  0.00  0.00    -0.331 OA
ATOM     43  C   UNL     1       4.310  -5.740  26.579  0.00  0.00    +0.179 C 
ATOM     44  C   UNL     1       3.419  -6.635  25.722  0.00  0.00    +0.177 C 
ATOM     45  C   UNL     1       4.191  -7.063  24.466  0.00  0.00    +0.180 C 
ATOM     46  C   UNL     1       4.772  -5.853  23.723  0.00  0.00    +0.214 C 
BRANCH  46  47
ATOM     47  O   UNL     1       3.642  -5.272  22.999  0.00  0.00    -0.383 OA
ATOM     48  H   UNL     1       3.241  -5.972  22.450  0.00  0.00    +0.210 HD
ENDBRANCH  46  47
BRANCH  45  49
ATOM     49  O   UNL     1       3.296  -7.823  23.631  0.00  0.00    -0.386 OA
ATOM     50  H   UNL     1       3.325  -8.746  23.963  0.00  0.00    +0.210 HD
ENDBRANCH  45  49
BRANCH  44  51
ATOM     51  O   UNL     1       2.984  -7.783  26.447  0.00  0.00    -0.386 OA
ATOM     52  H   UNL     1       2.021  -7.849  26.281  0.00  0.00    +0.210 HD
ENDBRANCH  44  51
BRANCH  43  53
ATOM     53  C   UNL     1       5.517  -6.518  27.158  0.00  0.00    +0.190 C 
BRANCH  53  54
ATOM     54  O   UNL     1       5.159  -7.472  28.151  0.00  0.00    -0.392 OA
ATOM     55  H   UNL     1       4.669  -7.010  28.847  0.00  0.00    +0.210 HD
ENDBRANCH  53  54
ENDBRANCH  43  53
ENDBRANCH  40  41
ENDBRANCH   7  40
TORSDOF 18
ENDMDL
MODEL 4
REMARK VINA RESULT:      -7.4      1.321      2.309
REMARK  Name = 
REMARK  18 active torsions:
REMARK  status: ('A' for Active; 'I' for Inactive)
REMARK    1  A    between atoms: C_3  and  O_52
REMARK    2  A    between atoms: C_4  and  O_51
REMARK    3  A    between atoms: C_6  and  C_7
REMARK    4  A    between atoms: C_8  and  O_35
REMARK    5  A    between atoms: C_12  and  O_34
REMARK    6  A    between atoms: C_14  and  O_18
REMARK    7  A    between atoms: O_18  and  C_19
REMARK    8  A    between atoms: C_20  and  O_33
REMARK    9  A    between atoms: C_22  and  O_32
REMARK   10  A    between atoms: C_24  and  O_31
REMARK   11  A    between atoms: C_26  and  C_29
REMARK   12  A    between atoms: C_29  and  O_30
REMARK   13  A    between atoms: O_35  and  C_36
REMARK   14  A    between atoms: C_37  and  O_50
REMARK   15  A    between atoms: C_39  and  O_49
REMARK   16  A    between atoms: C_41  and  O_48
REMARK   17  A    between atoms: C_43  and  C_46
REMARK   18  A    between atoms: C_46  and  O_47
REMARK                            x       y       z     vdW  Elec       q    Type
REMARK                         _______ _______ _______ _____ _____    ______ ____
ROOT
ATOM      1  C   UNL     1       7.648   1.763  24.750  0.00  0.00    +0.181 A 
ATOM      2  O   UNL     1       6.931   0.563  24.610  0.00  0.00    -0.451 OA
ATOM      3  C   UNL     1       7.500  -0.509  23.958  0.00  0.00    +0.147 A 
ATOM      4  C   UNL     1       8.696  -0.374  23.267  0.00  0.00    +0.109 A 
ATOM      5  C   UNL     1       9.194  -1.445  22.531  0.00  0.00    +0.135 A 
ATOM      6  C   UNL     1       8.529  -2.667  22.520  0.00  0.00    +0.092 A 
ATOM      7  C   UNL     1       7.322  -2.840  23.211  0.00  0.00    +0.131 A 
ATOM      8  C   UNL     1       9.439   0.885  23.363  0.00  0.00    +0.238 A 
ATOM      9  O   UNL     1      10.469   1.036  22.715  0.00  0.00    -0.283 OA
ATOM     10  C   UNL     1       6.824  -1.751  23.956  0.00  0.00    +0.093 A 
ATOM     11  C   UNL     1       8.923   1.925  24.292  0.00  0.00    +0.214 A 
ENDROOT
BRANCH   1  13
ATOM     12  C   UNL     1       7.079   3.094  26.815  0.00  0.00    +0.015 A 
ATOM     13  C   UNL     1       6.881   2.844  25.445  0.00  0.00    +0.025 A 
ATOM     14  C   UNL     1       5.927   3.644  24.778  0.00  0.00    +0.060 A 
ATOM     15  C   UNL     1       5.293   4.697  25.429  0.00  0.00    +0.159 A 
ATOM     16  C   UNL     1       5.486   4.907  26.782  0.00  0.00    +0.158 A 
ATOM     17  C   UNL     1       6.371   4.104  27.490  0.00  0.00    +0.050 A 
BRANCH  16  18
ATOM     18  O   UNL     1       4.769   5.904  27.379  0.00  0.00    -0.503 OA
ATOM     19  H   UNL     1       5.401   6.548  27.744  0.00  0.00    +0.292 HD
ENDBRANCH  16  18
BRANCH  15  20
ATOM     20  O   UNL     1       4.479   5.527  24.711  0.00  0.00    -0.503 OA
ATOM     21  H   UNL     1       3.578   5.350  25.045  0.00  0.00    +0.292 HD
ENDBRANCH  15  20
ENDBRANCH   1  13
BRANCH   5  22
ATOM     22  O   UNL     1      10.328  -1.375  21.763  0.00  0.00    -0.506 OA
ATOM     23  H   UNL     1      10.286  -2.088  21.089  0.00  0.00    +0.292 HD
ENDBRANCH   5  22
BRANCH  11  24
ATOM     24  O   UNL     1       9.789   2.988  24.541  0.00  0.00    -0.453 OA
BRANCH  24  25
ATOM     25  C   UNL     1       9.655   4.096  23.628  0.00  0.00    +0.340 C 
ATOM     26  O   UNL     1      10.820   4.246  22.814  0.00  0.00    -0.331 OA
ATOM     27  C   UNL     1      11.825   5.223  23.105  0.00  0.00    +0.179 C 
ATOM     28  C   UNL     1      11.447   6.373  24.060  0.00  0.00    +0.177 C 
ATOM     29  C   UNL     1      10.407   5.935  25.082  0.00  0.00    +0.180 C 
ATOM     30  C   UNL     1       9.203   5.377  24.337  0.00  0.00    +0.214 C 
BRANCH  30  31
ATOM     31  O   UNL     1       8.695   6.342  23.396  0.00  0.00    -0.383 OA
ATOM     32  H   UNL     1       8.196   7.042  23.860  0.00  0.00    +0.210 HD
ENDBRANCH  30  31
BRANCH  29  33
ATOM     33  O   UNL     1      10.072   7.070  25.894  0.00  0.00    -0.386 OA
ATOM     34  H   UNL     1      10.169   7.864  25.333  0.00  0.00    +0.210 HD
ENDBRANCH  29  33
BRANCH  28  35
ATOM     35  O   UNL     1      12.581   6.922  24.755  0.00  0.00    -0.386 OA
ATOM     36  H   UNL     1      12.276   7.803  25.060  0.00  0.00    +0.210 HD
ENDBRANCH  28  35
BRANCH  27  37
ATOM     37  C   UNL     1      13.161   4.543  23.459  0.00  0.00    +0.190 C 
BRANCH  37  38
ATOM     38  O   UNL     1      14.274   5.299  22.983  0.00  0.00    -0.392 OA
ATOM     39  H   UNL     1      13.985   6.240  22.998  0.00  0.00    +0.210 HD
ENDBRANCH  37  38
ENDBRANCH  27  37
ENDBRANCH  24  25
ENDBRANCH  11  24
BRANCH   7  40
ATOM     40  O   UNL     1       6.569  -4.015  23.173  0.00  0.00    -0.461 OA
BRANCH  40  41
ATOM     41  C   UNL     1       7.228  -5.144  23.782  0.00  0.00    +0.339 C 
ATOM     42  O   UNL     1       6.298  -6.006  24.459  0.00  0.00    -0.331 OA
ATOM     43  C   UNL     1       5.907  -5.601  25.778  0.00  0.00    +0.179 C 
ATOM     44  C   UNL     1       7.140  -5.639  26.676  0.00  0.00    +0.177 C 
ATOM     45  C   UNL     1       8.177  -4.634  26.155  0.00  0.00    +0.180 C 
ATOM     46  C   UNL     1       8.474  -4.854  24.665  0.00  0.00    +0.214 C 
BRANCH  46  47
ATOM     47  O   UNL     1       9.368  -6.010  24.622  0.00  0.00    -0.383 OA
ATOM     48  H   UNL     1       9.771  -6.115  25.505  0.00  0.00    +0.210 HD
ENDBRANCH  46  47
BRANCH  45  49
ATOM     49  O   UNL     1       9.365  -4.762  26.961  0.00  0.00    -0.386 OA
ATOM     50  H   UNL     1       9.750  -3.863  27.030  0.00  0.00    +0.210 HD
ENDBRANCH  45  49
BRANCH  44  51
ATOM     51  O   UNL     1       6.806  -5.343  28.030  0.00  0.00    -0.386 OA
ATOM     52  H   UNL     1       5.917  -5.728  28.171  0.00  0.00    +0.210 HD
ENDBRANCH  44  51
BRANCH  43  53
ATOM     53  C   UNL     1       5.164  -4.246  25.880  0.00  0.00    +0.190 C 
BRANCH  53  54
ATOM     54  O   UNL     1       4.151  -4.074  24.896  0.00  0.00    -0.392 OA
ATOM     55  H   UNL     1       4.408  -4.579  24.110  0.00  0.00    +0.210 HD
ENDBRANCH  53  54
ENDBRANCH  43  53
ENDBRANCH  40  41
ENDBRANCH   7  40
TORSDOF 18
ENDMDL
MODEL 5
REMARK VINA RESULT:      -7.0      2.167     10.425
REMARK  Name = 
REMARK  18 active torsions:
REMARK  status: ('A' for Active; 'I' for Inactive)
REMARK    1  A    between atoms: C_3  and  O_52
REMARK    2  A    between atoms: C_4  and  O_51
REMARK    3  A    between atoms: C_6  and  C_7
REMARK    4  A    between atoms: C_8  and  O_35
REMARK    5  A    between atoms: C_12  and  O_34
REMARK    6  A    between atoms: C_14  and  O_18
REMARK    7  A    between atoms: O_18  and  C_19
REMARK    8  A    between atoms: C_20  and  O_33
REMARK    9  A    between atoms: C_22  and  O_32
REMARK   10  A    between atoms: C_24  and  O_31
REMARK   11  A    between atoms: C_26  and  C_29
REMARK   12  A    between atoms: C_29  and  O_30
REMARK   13  A    between atoms: O_35  and  C_36
REMARK   14  A    between atoms: C_37  and  O_50
REMARK   15  A    between atoms: C_39  and  O_49
REMARK   16  A    between atoms: C_41  and  O_48
REMARK   17  A    between atoms: C_43  and  C_46
REMARK   18  A    between atoms: C_46  and  O_47
REMARK                            x       y       z     vdW  Elec       q    Type
REMARK                         _______ _______ _______ _____ _____    ______ ____
ROOT
ATOM      1  C   UNL     1       6.953  -3.430  26.042  0.00  0.00    +0.181 A 
ATOM      2  O   UNL     1       7.329  -2.102  26.303  0.00  0.00    -0.451 OA
ATOM      3  C   UNL     1       7.969  -1.362  25.333  0.00  0.00    +0.147 A 
ATOM      4  C   UNL     1       8.422  -1.955  24.163  0.00  0.00    +0.109 A 
ATOM      5  C   UNL     1       9.157  -1.207  23.248  0.00  0.00    +0.135 A 
ATOM      6  C   UNL     1       9.400   0.145  23.472  0.00  0.00    +0.092 A 
ATOM      7  C   UNL     1       8.951   0.777  24.639  0.00  0.00    +0.131 A 
ATOM      8  C   UNL     1       8.079  -3.353  23.891  0.00  0.00    +0.238 A 
ATOM      9  O   UNL     1       8.519  -3.904  22.888  0.00  0.00    -0.283 OA
ATOM     10  C   UNL     1       8.207   0.013  25.561  0.00  0.00    +0.093 A 
ATOM     11  C   UNL     1       7.162  -4.039  24.839  0.00  0.00    +0.214 A 
ENDROOT
BRANCH   1  13
ATOM     12  C   UNL     1       5.268  -3.482  27.918  0.00  0.00    +0.015 A 
ATOM     13  C   UNL     1       6.305  -4.112  27.206  0.00  0.00    +0.025 A 
ATOM     14  C   UNL     1       6.704  -5.391  27.652  0.00  0.00    +0.060 A 
ATOM     15  C   UNL     1       6.027  -6.035  28.682  0.00  0.00    +0.159 A 
ATOM     16  C   UNL     1       5.026  -5.385  29.382  0.00  0.00    +0.158 A 
ATOM     17  C   UNL     1       4.644  -4.102  29.014  0.00  0.00    +0.050 A 
BRANCH  16  18
ATOM     18  O   UNL     1       4.459  -6.041  30.436  0.00  0.00    -0.503 OA
ATOM     19  H   UNL     1       5.092  -6.019  31.176  0.00  0.00    +0.292 HD
ENDBRANCH  16  18
BRANCH  15  20
ATOM     20  O   UNL     1       6.360  -7.324  28.991  0.00  0.00    -0.503 OA
ATOM     21  H   UNL     1       7.313  -7.296  29.205  0.00  0.00    +0.292 HD
ENDBRANCH  15  20
ENDBRANCH   1  13
BRANCH   5  22
ATOM     22  O   UNL     1       9.703  -1.731  22.105  0.00  0.00    -0.506 OA
ATOM     23  H   UNL     1      10.598  -2.073  22.322  0.00  0.00    +0.292 HD
ENDBRANCH   5  22
BRANCH  11  24
ATOM     24  O   UNL     1       6.665  -5.268  24.409  0.00  0.00    -0.453 OA
BRANCH  24  25
ATOM     25  C   UNL     1       5.786  -5.192  23.268  0.00  0.00    +0.340 C 
ATOM     26  O   UNL     1       4.897  -4.077  23.368  0.00  0.00    -0.331 OA
ATOM     27  C   UNL     1       3.542  -4.227  23.805  0.00  0.00    +0.179 C 
ATOM     28  C   UNL     1       2.937  -5.645  23.780  0.00  0.00    +0.177 C 
ATOM     29  C   UNL     1       3.998  -6.713  24.013  0.00  0.00    +0.180 C 
ATOM     30  C   UNL     1       5.100  -6.531  22.979  0.00  0.00    +0.214 C 
BRANCH  30  31
ATOM     31  O   UNL     1       4.556  -6.560  21.645  0.00  0.00    -0.383 OA
ATOM     32  H   UNL     1       4.840  -5.770  21.144  0.00  0.00    +0.210 HD
ENDBRANCH  30  31
BRANCH  29  33
ATOM     33  O   UNL     1       3.367  -7.998  23.922  0.00  0.00    -0.386 OA
ATOM     34  H   UNL     1       2.401  -7.846  23.935  0.00  0.00    +0.210 HD
ENDBRANCH  29  33
BRANCH  28  35
ATOM     35  O   UNL     1       1.880  -5.822  24.741  0.00  0.00    -0.386 OA
ATOM     36  H   UNL     1       2.081  -6.683  25.167  0.00  0.00    +0.210 HD
ENDBRANCH  28  35
BRANCH  27  37
ATOM     37  C   UNL     1       3.311  -3.483  25.134  0.00  0.00    +0.190 C 
BRANCH  37  38
ATOM     38  O   UNL     1       1.953  -3.065  25.270  0.00  0.00    -0.392 OA
ATOM     39  H   UNL     1       1.409  -3.868  25.106  0.00  0.00    +0.210 HD
ENDBRANCH  37  38
ENDBRANCH  27  37
ENDBRANCH  24  25
ENDBRANCH  11  24
BRANCH   7  40
ATOM     40  O   UNL     1       9.232   2.107  24.956  0.00  0.00    -0.461 OA
BRANCH  40  41
ATOM     41  C   UNL     1       8.118   2.999  24.748  0.00  0.00    +0.339 C 
ATOM     42  O   UNL     1       8.206   3.680  23.485  0.00  0.00    -0.331 OA
ATOM     43  C   UNL     1       9.056   4.833  23.447  0.00  0.00    +0.179 C 
ATOM     44  C   UNL     1       8.471   5.892  24.378  0.00  0.00    +0.177 C 
ATOM     45  C   UNL     1       8.461   5.351  25.815  0.00  0.00    +0.180 C 
ATOM     46  C   UNL     1       7.767   3.985  25.898  0.00  0.00    +0.214 C 
BRANCH  46  47
ATOM     47  O   UNL     1       6.336   4.281  25.850  0.00  0.00    -0.383 OA
ATOM     48  H   UNL     1       5.942   3.758  25.125  0.00  0.00    +0.210 HD
ENDBRANCH  46  47
BRANCH  45  49
ATOM     49  O   UNL     1       7.814   6.330  26.653  0.00  0.00    -0.386 OA
ATOM     50  H   UNL     1       8.531   6.812  27.118  0.00  0.00    +0.210 HD
ENDBRANCH  45  49
BRANCH  44  51
ATOM     51  O   UNL     1       9.214   7.107  24.316  0.00  0.00    -0.386 OA
ATOM     52  H   UNL     1       8.660   7.727  23.797  0.00  0.00    +0.210 HD
ENDBRANCH  44  51
BRANCH  43  53
ATOM     53  C   UNL     1      10.557   4.580  23.738  0.00  0.00    +0.190 C 
BRANCH  53  54
ATOM     54  O   UNL     1      11.099   3.477  23.022  0.00  0.00    -0.392 OA
ATOM     55  H   UNL     1      10.778   2.663  23.437  0.00  0.00    +0.210 HD
ENDBRANCH  53  54
ENDBRANCH  43  53
ENDBRANCH  40  41
ENDBRANCH   7  40
TORSDOF 18
ENDMDL
MODEL 6
REMARK VINA RESULT:      -7.0      2.181      9.796
REMARK  Name = 
REMARK  18 active torsions:
REMARK  status: ('A' for Active; 'I' for Inactive)
REMARK    1  A    between atoms: C_3  and  O_52
REMARK    2  A    between atoms: C_4  and  O_51
REMARK    3  A    between atoms: C_6  and  C_7
REMARK    4  A    between atoms: C_8  and  O_35
REMARK    5  A    between atoms: C_12  and  O_34
REMARK    6  A    between atoms: C_14  and  O_18
REMARK    7  A    between atoms: O_18  and  C_19
REMARK    8  A    between atoms: C_20  and  O_33
REMARK    9  A    between atoms: C_22  and  O_32
REMARK   10  A    between atoms: C_24  and  O_31
REMARK   11  A    between atoms: C_26  and  C_29
REMARK   12  A    between atoms: C_29  and  O_30
REMARK   13  A    between atoms: O_35  and  C_36
REMARK   14  A    between atoms: C_37  and  O_50
REMARK   15  A    between atoms: C_39  and  O_49
REMARK   16  A    between atoms: C_41  and  O_48
REMARK   17  A    between atoms: C_43  and  C_46
REMARK   18  A    between atoms: C_46  and  O_47
REMARK                            x       y       z     vdW  Elec       q    Type
REMARK                         _______ _______ _______ _____ _____    ______ ____
ROOT
ATOM      1  C   UNL     1       7.579  -3.076  25.788  0.00  0.00    +0.181 A 
ATOM      2  O   UNL     1       7.566  -1.721  26.161  0.00  0.00    -0.451 OA
ATOM      3  C   UNL     1       8.167  -0.779  25.357  0.00  0.00    +0.147 A 
ATOM      4  C   UNL     1       8.952  -1.155  24.276  0.00  0.00    +0.109 A 
ATOM      5  C   UNL     1       9.632  -0.186  23.544  0.00  0.00    +0.135 A 
ATOM      6  C   UNL     1       9.493   1.163  23.855  0.00  0.00    +0.092 A 
ATOM      7  C   UNL     1       8.703   1.579  24.936  0.00  0.00    +0.131 A 
ATOM      8  C   UNL     1       9.015  -2.569  23.897  0.00  0.00    +0.238 A 
ATOM      9  O   UNL     1       9.747  -2.921  22.978  0.00  0.00    -0.283 OA
ATOM     10  C   UNL     1       8.017   0.592  25.672  0.00  0.00    +0.093 A 
ATOM     11  C   UNL     1       8.141  -3.522  24.628  0.00  0.00    +0.214 A 
ENDROOT
BRANCH   1  13
ATOM     12  C   UNL     1       7.484  -5.233  27.093  0.00  0.00    +0.015 A 
ATOM     13  C   UNL     1       6.922  -3.980  26.784  0.00  0.00    +0.025 A 
ATOM     14  C   UNL     1       5.720  -3.638  27.441  0.00  0.00    +0.060 A 
ATOM     15  C   UNL     1       5.179  -4.459  28.423  0.00  0.00    +0.159 A 
ATOM     16  C   UNL     1       5.737  -5.696  28.692  0.00  0.00    +0.158 A 
ATOM     17  C   UNL     1       6.886  -6.099  28.025  0.00  0.00    +0.050 A 
BRANCH  16  18
ATOM     18  O   UNL     1       5.109  -6.491  29.607  0.00  0.00    -0.503 OA
ATOM     19  H   UNL     1       5.481  -7.388  29.528  0.00  0.00    +0.292 HD
ENDBRANCH  16  18
BRANCH  15  20
ATOM     20  O   UNL     1       4.090  -4.027  29.126  0.00  0.00    -0.503 OA
ATOM     21  H   UNL     1       3.937  -4.712  29.805  0.00  0.00    +0.292 HD
ENDBRANCH  15  20
ENDBRANCH   1  13
BRANCH   5  22
ATOM     22  O   UNL     1      10.483  -0.476  22.510  0.00  0.00    -0.506 OA
ATOM     23  H   UNL     1      11.405  -0.360  22.829  0.00  0.00    +0.292 HD
ENDBRANCH   5  22
BRANCH  11  24
ATOM     24  O   UNL     1       8.044  -4.796  24.070  0.00  0.00    -0.453 OA
BRANCH  24  25
ATOM     25  C   UNL     1       7.264  -4.861  22.858  0.00  0.00    +0.340 C 
ATOM     26  O   UNL     1       6.436  -3.706  22.709  0.00  0.00    -0.331 OA
ATOM     27  C   UNL     1       5.043  -3.725  23.043  0.00  0.00    +0.179 C 
ATOM     28  C   UNL     1       4.362  -5.102  23.181  0.00  0.00    +0.177 C 
ATOM     29  C   UNL     1       5.338  -6.166  23.666  0.00  0.00    +0.180 C 
ATOM     30  C   UNL     1       6.528  -6.197  22.717  0.00  0.00    +0.214 C 
BRANCH  30  31
ATOM     31  O   UNL     1       6.092  -6.410  21.360  0.00  0.00    -0.383 OA
ATOM     32  H   UNL     1       5.155  -6.152  21.259  0.00  0.00    +0.210 HD
ENDBRANCH  30  31
BRANCH  29  33
ATOM     33  O   UNL     1       4.644  -7.420  23.717  0.00  0.00    -0.386 OA
ATOM     34  H   UNL     1       5.295  -8.099  23.980  0.00  0.00    +0.210 HD
ENDBRANCH  29  33
BRANCH  28  35
ATOM     35  O   UNL     1       3.223  -5.080  24.061  0.00  0.00    -0.386 OA
ATOM     36  H   UNL     1       3.612  -5.102  24.961  0.00  0.00    +0.210 HD
ENDBRANCH  28  35
BRANCH  27  37
ATOM     37  C   UNL     1       4.750  -2.773  24.217  0.00  0.00    +0.190 C 
BRANCH  37  38
ATOM     38  O   UNL     1       5.292  -1.473  23.984  0.00  0.00    -0.392 OA
ATOM     39  H   UNL     1       4.554  -0.843  24.148  0.00  0.00    +0.210 HD
ENDBRANCH  37  38
ENDBRANCH  27  37
ENDBRANCH  24  25
ENDBRANCH  11  24
BRANCH   7  40
ATOM     40  O   UNL     1       8.589   2.908  25.345  0.00  0.00    -0.461 OA
BRANCH  40  41
ATOM     41  C   UNL     1       8.544   3.848  24.253  0.00  0.00    +0.339 C 
ATOM     42  O   UNL     1       8.641   5.207  24.710  0.00  0.00    -0.331 OA
ATOM     43  C   UNL     1       7.428   5.801  25.189  0.00  0.00    +0.179 C 
ATOM     44  C   UNL     1       6.445   5.891  24.026  0.00  0.00    +0.177 C 
ATOM     45  C   UNL     1       6.121   4.476  23.526  0.00  0.00    +0.180 C 
ATOM     46  C   UNL     1       7.397   3.683  23.215  0.00  0.00    +0.214 C 
BRANCH  46  47
ATOM     47  O   UNL     1       7.852   4.187  21.920  0.00  0.00    -0.383 OA
ATOM     48  H   UNL     1       7.955   3.425  21.317  0.00  0.00    +0.210 HD
ENDBRANCH  46  47
BRANCH  45  49
ATOM     49  O   UNL     1       5.271   4.597  22.368  0.00  0.00    -0.386 OA
ATOM     50  H   UNL     1       5.820   4.346  21.595  0.00  0.00    +0.210 HD
ENDBRANCH  45  49
BRANCH  44  51
ATOM     51  O   UNL     1       5.247   6.564  24.407  0.00  0.00    -0.386 OA
ATOM     52  H   UNL     1       4.952   6.127  25.233  0.00  0.00    +0.210 HD
ENDBRANCH  44  51
BRANCH  43  53
ATOM     53  C   UNL     1       6.787   5.129  26.430  0.00  0.00    +0.190 C 
BRANCH  53  54
ATOM     54  O   UNL     1       7.707   4.890  27.488  0.00  0.00    -0.392 OA
ATOM     55  H   UNL     1       7.202   4.796  28.310  0.00  0.00    +0.210 HD
ENDBRANCH  53  54
ENDBRANCH  43  53
ENDBRANCH  40  41
ENDBRANCH   7  40
TORSDOF 18
ENDMDL
MODEL 7
REMARK VINA RESULT:      -7.0      2.873     10.613
REMARK  Name = 
REMARK  18 active torsions:
REMARK  status: ('A' for Active; 'I' for Inactive)
REMARK    1  A    between atoms: C_3  and  O_52
REMARK    2  A    between atoms: C_4  and  O_51
REMARK    3  A    between atoms: C_6  and  C_7
REMARK    4  A    between atoms: C_8  and  O_35
REMARK    5  A    between atoms: C_12  and  O_34
REMARK    6  A    between atoms: C_14  and  O_18
REMARK    7  A    between atoms: O_18  and  C_19
REMARK    8  A    between atoms: C_20  and  O_33
REMARK    9  A    between atoms: C_22  and  O_32
REMARK   10  A    between atoms: C_24  and  O_31
REMARK   11  A    between atoms: C_26  and  C_29
REMARK   12  A    between atoms: C_29  and  O_30
REMARK   13  A    between atoms: O_35  and  C_36
REMARK   14  A    between atoms: C_37  and  O_50
REMARK   15  A    between atoms: C_39  and  O_49
REMARK   16  A    between atoms: C_41  and  O_48
REMARK   17  A    between atoms: C_43  and  C_46
REMARK   18  A    between atoms: C_46  and  O_47
REMARK                            x       y       z     vdW  Elec       q    Type
REMARK                         _______ _______ _______ _____ _____    ______ ____
ROOT
ATOM      1  C   UNL     1       4.702  -2.398  25.301  0.00  0.00    +0.181 A 
ATOM      2  O   UNL     1       5.342  -1.196  24.955  0.00  0.00    -0.451 OA
ATOM      3  C   UNL     1       5.101  -0.052  25.683  0.00  0.00    +0.147 A 
ATOM      4  C   UNL     1       4.095  -0.008  26.638  0.00  0.00    +0.109 A 
ATOM      5  C   UNL     1       3.805   1.190  27.284  0.00  0.00    +0.135 A 
ATOM      6  C   UNL     1       4.547   2.335  27.017  0.00  0.00    +0.092 A 
ATOM      7  C   UNL     1       5.575   2.326  26.063  0.00  0.00    +0.131 A 
ATOM      8  C   UNL     1       3.384  -1.242  26.982  0.00  0.00    +0.238 A 
ATOM      9  O   UNL     1       2.457  -1.208  27.784  0.00  0.00    -0.283 OA
ATOM     10  C   UNL     1       5.864   1.109  25.414  0.00  0.00    +0.093 A 
ATOM     11  C   UNL     1       3.855  -2.509  26.364  0.00  0.00    +0.214 A 
ENDROOT
BRANCH   1  13
ATOM     12  C   UNL     1       6.375  -3.851  24.096  0.00  0.00    +0.015 A 
ATOM     13  C   UNL     1       5.035  -3.540  24.392  0.00  0.00    +0.025 A 
ATOM     14  C   UNL     1       4.042  -4.338  23.784  0.00  0.00    +0.060 A 
ATOM     15  C   UNL     1       4.382  -5.444  23.014  0.00  0.00    +0.159 A 
ATOM     16  C   UNL     1       5.706  -5.716  22.717  0.00  0.00    +0.158 A 
ATOM     17  C   UNL     1       6.712  -4.918  23.246  0.00  0.00    +0.050 A 
BRANCH  16  18
ATOM     18  O   UNL     1       5.969  -6.766  21.886  0.00  0.00    -0.503 OA
ATOM     19  H   UNL     1       5.472  -7.536  22.212  0.00  0.00    +0.292 HD
ENDBRANCH  16  18
BRANCH  15  20
ATOM     20  O   UNL     1       3.391  -6.266  22.557  0.00  0.00    -0.503 OA
ATOM     21  H   UNL     1       3.523  -6.310  21.590  0.00  0.00    +0.292 HD
ENDBRANCH  15  20
ENDBRANCH   1  13
BRANCH   5  22
ATOM     22  O   UNL     1       2.782   1.337  28.185  0.00  0.00    -0.506 OA
ATOM     23  H   UNL     1       2.031   0.777  27.890  0.00  0.00    +0.292 HD
ENDBRANCH   5  22
BRANCH  11  24
ATOM     24  O   UNL     1       3.323  -3.676  26.910  0.00  0.00    -0.453 OA
BRANCH  24  25
ATOM     25  C   UNL     1       3.692  -3.917  28.283  0.00  0.00    +0.340 C 
ATOM     26  O   UNL     1       5.111  -3.958  28.443  0.00  0.00    -0.331 OA
ATOM     27  C   UNL     1       5.827  -5.195  28.530  0.00  0.00    +0.179 C 
ATOM     28  C   UNL     1       5.017  -6.467  28.855  0.00  0.00    +0.177 C 
ATOM     29  C   UNL     1       3.593  -6.377  28.321  0.00  0.00    +0.180 C 
ATOM     30  C   UNL     1       2.947  -5.117  28.878  0.00  0.00    +0.214 C 
BRANCH  30  31
ATOM     31  O   UNL     1       3.011  -5.107  30.318  0.00  0.00    -0.383 OA
ATOM     32  H   UNL     1       3.913  -4.884  30.618  0.00  0.00    +0.210 HD
ENDBRANCH  30  31
BRANCH  29  33
ATOM     33  O   UNL     1       2.895  -7.569  28.707  0.00  0.00    -0.386 OA
ATOM     34  H   UNL     1       3.323  -7.903  29.521  0.00  0.00    +0.210 HD
ENDBRANCH  29  33
BRANCH  28  35
ATOM     35  O   UNL     1       5.629  -7.667  28.349  0.00  0.00    -0.386 OA
ATOM     36  H   UNL     1       6.008  -8.100  29.144  0.00  0.00    +0.210 HD
ENDBRANCH  28  35
BRANCH  27  37
ATOM     37  C   UNL     1       6.779  -5.361  27.331  0.00  0.00    +0.190 C 
BRANCH  37  38
ATOM     38  O   UNL     1       7.942  -6.108  27.686  0.00  0.00    -0.392 OA
ATOM     39  H   UNL     1       8.383  -6.337  26.837  0.00  0.00    +0.210 HD
ENDBRANCH  37  38
ENDBRANCH  27  37
ENDBRANCH  24  25
ENDBRANCH  11  24
BRANCH   7  40
ATOM     40  O   UNL     1       6.300   3.461  25.695  0.00  0.00    -0.461 OA
BRANCH  40  41
ATOM     41  C   UNL     1       7.222   3.232  24.612  0.00  0.00    +0.339 C 
ATOM     42  O   UNL     1       8.580   3.508  24.995  0.00  0.00    -0.331 OA
ATOM     43  C   UNL     1       8.978   4.885  24.960  0.00  0.00    +0.179 C 
ATOM     44  C   UNL     1       8.916   5.366  23.513  0.00  0.00    +0.177 C 
ATOM     45  C   UNL     1       7.469   5.273  23.011  0.00  0.00    +0.180 C 
ATOM     46  C   UNL     1       6.883   3.873  23.236  0.00  0.00    +0.214 C 
BRANCH  46  47
ATOM     47  O   UNL     1       7.453   3.046  22.173  0.00  0.00    -0.383 OA
ATOM     48  H   UNL     1       8.276   3.473  21.864  0.00  0.00    +0.210 HD
ENDBRANCH  46  47
BRANCH  45  49
ATOM     49  O   UNL     1       7.458   5.638  21.616  0.00  0.00    -0.386 OA
ATOM     50  H   UNL     1       6.640   5.254  21.236  0.00  0.00    +0.210 HD
ENDBRANCH  45  49
BRANCH  44  51
ATOM     51  O   UNL     1       9.395   6.703  23.389  0.00  0.00    -0.386 OA
ATOM     52  H   UNL     1       9.260   6.943  22.449  0.00  0.00    +0.210 HD
ENDBRANCH  44  51
BRANCH  43  53
ATOM     53  C   UNL     1       8.214   5.837  25.914  0.00  0.00    +0.190 C 
BRANCH  53  54
ATOM     54  O   UNL     1       7.996   5.293  27.210  0.00  0.00    -0.392 OA
ATOM     55  H   UNL     1       7.043   5.302  27.383  0.00  0.00    +0.210 HD
ENDBRANCH  53  54
ENDBRANCH  43  53
ENDBRANCH  40  41
ENDBRANCH   7  40
TORSDOF 18
ENDMDL
MODEL 8
REMARK VINA RESULT:      -6.9      2.405     10.182
REMARK  Name = 
REMARK  18 active torsions:
REMARK  status: ('A' for Active; 'I' for Inactive)
REMARK    1  A    between atoms: C_3  and  O_52
REMARK    2  A    between atoms: C_4  and  O_51
REMARK    3  A    between atoms: C_6  and  C_7
REMARK    4  A    between atoms: C_8  and  O_35
REMARK    5  A    between atoms: C_12  and  O_34
REMARK    6  A    between atoms: C_14  and  O_18
REMARK    7  A    between atoms: O_18  and  C_19
REMARK    8  A    between atoms: C_20  and  O_33
REMARK    9  A    between atoms: C_22  and  O_32
REMARK   10  A    between atoms: C_24  and  O_31
REMARK   11  A    between atoms: C_26  and  C_29
REMARK   12  A    between atoms: C_29  and  O_30
REMARK   13  A    between atoms: O_35  and  C_36
REMARK   14  A    between atoms: C_37  and  O_50
REMARK   15  A    between atoms: C_39  and  O_49
REMARK   16  A    between atoms: C_41  and  O_48
REMARK   17  A    between atoms: C_43  and  C_46
REMARK   18  A    between atoms: C_46  and  O_47
REMARK                            x       y       z     vdW  Elec       q    Type
REMARK                         _______ _______ _______ _____ _____    ______ ____
ROOT
ATOM      1  C   UNL     1       5.863  -2.278  24.708  0.00  0.00    +0.181 A 
ATOM      2  O   UNL     1       6.878  -1.340  24.450  0.00  0.00    -0.451 OA
ATOM      3  C   UNL     1       6.865  -0.118  25.084  0.00  0.00    +0.147 A 
ATOM      4  C   UNL     1       5.770   0.290  25.833  0.00  0.00    +0.109 A 
ATOM      5  C   UNL     1       5.740   1.571  26.375  0.00  0.00    +0.135 A 
ATOM      6  C   UNL     1       6.821   2.432  26.215  0.00  0.00    +0.092 A 
ATOM      7  C   UNL     1       7.946   2.052  25.470  0.00  0.00    +0.131 A 
ATOM      8  C   UNL     1       4.680  -0.658  26.078  0.00  0.00    +0.238 A 
ATOM      9  O   UNL     1       3.683  -0.295  26.692  0.00  0.00    -0.283 OA
ATOM     10  C   UNL     1       7.969   0.752  24.925  0.00  0.00    +0.093 A 
ATOM     11  C   UNL     1       4.854  -2.054  25.598  0.00  0.00    +0.214 A 
ENDROOT
BRANCH   1  13
ATOM     12  C   UNL     1       7.264  -4.056  23.595  0.00  0.00    +0.015 A 
ATOM     13  C   UNL     1       5.994  -3.539  23.913  0.00  0.00    +0.025 A 
ATOM     14  C   UNL     1       4.873  -4.254  23.438  0.00  0.00    +0.060 A 
ATOM     15  C   UNL     1       5.024  -5.468  22.777  0.00  0.00    +0.159 A 
ATOM     16  C   UNL     1       6.283  -5.943  22.454  0.00  0.00    +0.158 A 
ATOM     17  C   UNL     1       7.412  -5.239  22.850  0.00  0.00    +0.050 A 
BRANCH  16  18
ATOM     18  O   UNL     1       6.360  -7.097  21.730  0.00  0.00    -0.503 OA
ATOM     19  H   UNL     1       5.640  -7.087  21.075  0.00  0.00    +0.292 HD
ENDBRANCH  16  18
BRANCH  15  20
ATOM     20  O   UNL     1       3.911  -6.191  22.453  0.00  0.00    -0.503 OA
ATOM     21  H   UNL     1       3.455  -5.663  21.769  0.00  0.00    +0.292 HD
ENDBRANCH  15  20
ENDBRANCH   1  13
BRANCH   5  22
ATOM     22  O   UNL     1       4.670   2.077  27.066  0.00  0.00    -0.506 OA
ATOM     23  H   UNL     1       4.441   2.950  26.678  0.00  0.00    +0.292 HD
ENDBRANCH   5  22
BRANCH  11  24
ATOM     24  O   UNL     1       3.918  -2.972  26.072  0.00  0.00    -0.453 OA
BRANCH  24  25
ATOM     25  C   UNL     1       4.017  -3.253  27.483  0.00  0.00    +0.340 C 
ATOM     26  O   UNL     1       5.365  -3.528  27.867  0.00  0.00    -0.331 OA
ATOM     27  C   UNL     1       5.842  -4.866  28.051  0.00  0.00    +0.179 C 
ATOM     28  C   UNL     1       4.789  -5.980  28.224  0.00  0.00    +0.177 C 
ATOM     29  C   UNL     1       3.505  -5.661  27.470  0.00  0.00    +0.180 C 
ATOM     30  C   UNL     1       2.997  -4.304  27.934  0.00  0.00    +0.214 C 
BRANCH  30  31
ATOM     31  O   UNL     1       2.830  -4.286  29.365  0.00  0.00    -0.383 OA
ATOM     32  H   UNL     1       2.044  -4.806  29.623  0.00  0.00    +0.210 HD
ENDBRANCH  30  31
BRANCH  29  33
ATOM     33  O   UNL     1       2.564  -6.715  27.723  0.00  0.00    -0.386 OA
ATOM     34  H   UNL     1       1.980  -6.774  26.941  0.00  0.00    +0.210 HD
ENDBRANCH  29  33
BRANCH  28  35
ATOM     35  O   UNL     1       5.266  -7.273  27.805  0.00  0.00    -0.386 OA
ATOM     36  H   UNL     1       6.228  -7.143  27.666  0.00  0.00    +0.210 HD
ENDBRANCH  28  35
BRANCH  27  37
ATOM     37  C   UNL     1       6.932  -5.205  27.017  0.00  0.00    +0.190 C 
BRANCH  37  38
ATOM     38  O   UNL     1       7.923  -6.072  27.568  0.00  0.00    -0.392 OA
ATOM     39  H   UNL     1       8.591  -5.482  27.987  0.00  0.00    +0.210 HD
ENDBRANCH  37  38
ENDBRANCH  27  37
ENDBRANCH  24  25
ENDBRANCH  11  24
BRANCH   7  40
ATOM     40  O   UNL     1       9.024   2.899  25.208  0.00  0.00    -0.461 OA
BRANCH  40  41
ATOM     41  C   UNL     1       9.150   3.262  23.819  0.00  0.00    +0.339 C 
ATOM     42  O   UNL     1       9.663   4.595  23.656  0.00  0.00    -0.331 OA
ATOM     43  C   UNL     1       8.710   5.658  23.784  0.00  0.00    +0.179 C 
ATOM     44  C   UNL     1       7.695   5.532  22.651  0.00  0.00    +0.177 C 
ATOM     45  C   UNL     1       6.947   4.199  22.788  0.00  0.00    +0.180 C 
ATOM     46  C   UNL     1       7.918   3.016  22.901  0.00  0.00    +0.214 C 
BRANCH  46  47
ATOM     47  O   UNL     1       8.383   2.774  21.536  0.00  0.00    -0.383 OA
ATOM     48  H   UNL     1       9.333   2.551  21.574  0.00  0.00    +0.210 HD
ENDBRANCH  46  47
BRANCH  45  49
ATOM     49  O   UNL     1       6.069   4.063  21.653  0.00  0.00    -0.386 OA
ATOM     50  H   UNL     1       5.585   4.912  21.574  0.00  0.00    +0.210 HD
ENDBRANCH  45  49
BRANCH  44  51
ATOM     51  O   UNL     1       6.771   6.617  22.656  0.00  0.00    -0.386 OA
ATOM     52  H   UNL     1       5.883   6.206  22.676  0.00  0.00    +0.210 HD
ENDBRANCH  44  51
BRANCH  43  53
ATOM     53  C   UNL     1       8.016   5.787  25.163  0.00  0.00    +0.190 C 
BRANCH  53  54
ATOM     54  O   UNL     1       8.915   5.719  26.263  0.00  0.00    -0.392 OA
ATOM     55  H   UNL     1       8.520   6.204  27.003  0.00  0.00    +0.210 HD
ENDBRANCH  53  54
ENDBRANCH  43  53
ENDBRANCH  40  41
ENDBRANCH   7  40
TORSDOF 18
ENDMDL
MODEL 9
REMARK VINA RESULT:      -6.7      1.366      2.288
REMARK  Name = 
REMARK  18 active torsions:
REMARK  status: ('A' for Active; 'I' for Inactive)
REMARK    1  A    between atoms: C_3  and  O_52
REMARK    2  A    between atoms: C_4  and  O_51
REMARK    3  A    between atoms: C_6  and  C_7
REMARK    4  A    between atoms: C_8  and  O_35
REMARK    5  A    between atoms: C_12  and  O_34
REMARK    6  A    between atoms: C_14  and  O_18
REMARK    7  A    between atoms: O_18  and  C_19
REMARK    8  A    between atoms: C_20  and  O_33
REMARK    9  A    between atoms: C_22  and  O_32
REMARK   10  A    between atoms: C_24  and  O_31
REMARK   11  A    between atoms: C_26  and  C_29
REMARK   12  A    between atoms: C_29  and  O_30
REMARK   13  A    between atoms: O_35  and  C_36
REMARK   14  A    between atoms: C_37  and  O_50
REMARK   15  A    between atoms: C_39  and  O_49
REMARK   16  A    between atoms: C_41  and  O_48
REMARK   17  A    between atoms: C_43  and  C_46
REMARK   18  A    between atoms: C_46  and  O_47
REMARK                            x       y       z     vdW  Elec       q    Type
REMARK                         _______ _______ _______ _____ _____    ______ ____
ROOT
ATOM      1  C   UNL     1       6.595   1.760  24.630  0.00  0.00    +0.181 A 
ATOM      2  O   UNL     1       6.101   0.523  24.179  0.00  0.00    -0.451 OA
ATOM      3  C   UNL     1       6.938  -0.360  23.534  0.00  0.00    +0.147 A 
ATOM      4  C   UNL     1       8.217   0.016  23.148  0.00  0.00    +0.109 A 
ATOM      5  C   UNL     1       9.001  -0.861  22.405  0.00  0.00    +0.135 A 
ATOM      6  C   UNL     1       8.535  -2.133  22.088  0.00  0.00    +0.092 A 
ATOM      7  C   UNL     1       7.251  -2.548  22.467  0.00  0.00    +0.131 A 
ATOM      8  C   UNL     1       8.736   1.320  23.569  0.00  0.00    +0.238 A 
ATOM      9  O   UNL     1       9.842   1.687  23.190  0.00  0.00    -0.283 OA
ATOM     10  C   UNL     1       6.462  -1.655  23.220  0.00  0.00    +0.093 A 
ATOM     11  C   UNL     1       7.899   2.134  24.489  0.00  0.00    +0.214 A 
ENDROOT
BRANCH   1  13
ATOM     12  C   UNL     1       5.495   2.745  26.675  0.00  0.00    +0.015 A 
ATOM     13  C   UNL     1       5.557   2.624  25.274  0.00  0.00    +0.025 A 
ATOM     14  C   UNL     1       4.594   3.336  24.526  0.00  0.00    +0.060 A 
ATOM     15  C   UNL     1       3.697   4.197  25.147  0.00  0.00    +0.159 A 
ATOM     16  C   UNL     1       3.640   4.281  26.527  0.00  0.00    +0.158 A 
ATOM     17  C   UNL     1       4.530   3.550  27.303  0.00  0.00    +0.050 A 
BRANCH  16  18
ATOM     18  O   UNL     1       2.680   5.081  27.076  0.00  0.00    -0.503 OA
ATOM     19  H   UNL     1       2.042   4.507  27.537  0.00  0.00    +0.292 HD
ENDBRANCH  16  18
BRANCH  15  20
ATOM     20  O   UNL     1       2.873   4.967  24.375  0.00  0.00    -0.503 OA
ATOM     21  H   UNL     1       3.317   5.023  23.507  0.00  0.00    +0.292 HD
ENDBRANCH  15  20
ENDBRANCH   1  13
BRANCH   5  22
ATOM     22  O   UNL     1      10.244  -0.543  21.922  0.00  0.00    -0.506 OA
ATOM     23  H   UNL     1      10.183   0.326  21.468  0.00  0.00    +0.292 HD
ENDBRANCH   5  22
BRANCH  11  24
ATOM     24  O   UNL     1       8.535   3.235  25.061  0.00  0.00    -0.453 OA
BRANCH  24  25
ATOM     25  C   UNL     1       8.199   4.501  24.456  0.00  0.00    +0.340 C 
ATOM     26  O   UNL     1       9.110   4.837  23.408  0.00  0.00    -0.331 OA
ATOM     27  C   UNL     1      10.188   5.758  23.609  0.00  0.00    +0.179 C 
ATOM     28  C   UNL     1      10.114   6.685  24.840  0.00  0.00    +0.177 C 
ATOM     29  C   UNL     1       9.369   6.026  25.995  0.00  0.00    +0.180 C 
ATOM     30  C   UNL     1       7.993   5.602  25.501  0.00  0.00    +0.214 C 
BRANCH  30  31
ATOM     31  O   UNL     1       7.285   6.725  24.942  0.00  0.00    -0.383 OA
ATOM     32  H   UNL     1       6.329   6.655  25.132  0.00  0.00    +0.210 HD
ENDBRANCH  30  31
BRANCH  29  33
ATOM     33  O   UNL     1       9.299   6.967  27.075  0.00  0.00    -0.386 OA
ATOM     34  H   UNL     1       9.615   6.508  27.878  0.00  0.00    +0.210 HD
ENDBRANCH  29  33
BRANCH  28  35
ATOM     35  O   UNL     1      11.409   7.108  25.304  0.00  0.00    -0.386 OA
ATOM     36  H   UNL     1      12.041   6.559  24.792  0.00  0.00    +0.210 HD
ENDBRANCH  28  35
BRANCH  27  37
ATOM     37  C   UNL     1      11.547   5.052  23.452  0.00  0.00    +0.190 C 
BRANCH  37  38
ATOM     38  O   UNL     1      12.371   5.713  22.492  0.00  0.00    -0.392 OA
ATOM     39  H   UNL     1      12.856   4.999  22.019  0.00  0.00    +0.210 HD
ENDBRANCH  37  38
ENDBRANCH  27  37
ENDBRANCH  24  25
ENDBRANCH  11  24
BRANCH   7  40
ATOM     40  O   UNL     1       6.698  -3.779  22.110  0.00  0.00    -0.461 OA
BRANCH  40  41
ATOM     41  C   UNL     1       7.282  -4.899  22.806  0.00  0.00    +0.339 C 
ATOM     42  O   UNL     1       6.364  -6.000  22.915  0.00  0.00    -0.331 OA
ATOM     43  C   UNL     1       5.405  -5.919  23.978  0.00  0.00    +0.179 C 
ATOM     44  C   UNL     1       6.155  -5.954  25.306  0.00  0.00    +0.177 C 
ATOM     45  C   UNL     1       7.076  -4.729  25.398  0.00  0.00    +0.180 C 
ATOM     46  C   UNL     1       7.981  -4.611  24.165  0.00  0.00    +0.214 C 
BRANCH  46  47
ATOM     47  O   UNL     1       9.040  -5.597  24.373  0.00  0.00    -0.383 OA
ATOM     48  H   UNL     1       9.794  -5.359  23.800  0.00  0.00    +0.210 HD
ENDBRANCH  46  47
BRANCH  45  49
ATOM     49  O   UNL     1       7.843  -4.840  26.614  0.00  0.00    -0.386 OA
ATOM     50  H   UNL     1       7.823  -5.788  26.868  0.00  0.00    +0.210 HD
ENDBRANCH  45  49
BRANCH  44  51
ATOM     51  O   UNL     1       5.256  -5.977  26.411  0.00  0.00    -0.386 OA
ATOM     52  H   UNL     1       4.802  -6.843  26.362  0.00  0.00    +0.210 HD
ENDBRANCH  44  51
BRANCH  43  53
ATOM     53  C   UNL     1       4.415  -4.730  23.910  0.00  0.00    +0.190 C 
BRANCH  53  54
ATOM     54  O   UNL     1       3.453  -4.846  22.868  0.00  0.00    -0.392 OA
ATOM     55  H   UNL     1       2.589  -5.011  23.274  0.00  0.00    +0.210 HD
ENDBRANCH  53  54
ENDBRANCH  43  53
ENDBRANCH  40  41
ENDBRANCH   7  40
TORSDOF 18
ENDMDL
