MODEL 1
REMARK VINA RESULT:      -6.8      0.000      0.000
REMARK  Name = 
REMARK  13 active torsions:
REMARK  status: ('A' for Active; 'I' for Inactive)
REMARK    1  A    between atoms: C_1  and  C_2
REMARK    2  A    between atoms: C_3  and  O_39
REMARK    3  A    between atoms: C_5  and  O_38
REMARK    4  A    between atoms: C_6  and  O_37
REMARK    5  A    between atoms: C_8  and  O_11
REMARK    6  A    between atoms: O_11  and  C_12
REMARK    7  A    between atoms: C_13  and  C_25
REMARK    8  A    between atoms: C_17  and  O_24
REMARK    9  A    between atoms: C_19  and  O_23
REMARK   10  A    between atoms: C_27  and  O_32
REMARK   11  A    between atoms: C_28  and  O_31
REMARK   12  A    between atoms: O_32  and  S_33
REMARK   13  A    between atoms: S_33  and  O_36
REMARK                            x       y       z     vdW  Elec       q    Type
REMARK                         _______ _______ _______ _____ _____    ______ ____
ROOT
ATOM      1  C   UNL     1       7.647  -2.307  25.032  0.00  0.00    +0.214 A 
ATOM      2  C   UNL     1       7.108  -3.687  25.245  0.00  0.00    +0.238 A 
ATOM      3  O   UNL     1       7.307  -4.316  26.278  0.00  0.00    -0.283 OA
ATOM      4  C   UNL     1       6.479  -4.357  24.107  0.00  0.00    +0.109 A 
ATOM      5  C   UNL     1       6.737  -3.839  22.843  0.00  0.00    +0.147 A 
ATOM      6  C   UNL     1       6.344  -4.556  21.709  0.00  0.00    +0.092 A 
ATOM      7  C   UNL     1       5.683  -5.775  21.867  0.00  0.00    +0.124 A 
ATOM      8  C   UNL     1       5.378  -6.276  23.127  0.00  0.00    +0.091 A 
ATOM      9  O   UNL     1       7.408  -2.656  22.645  0.00  0.00    -0.451 OA
ATOM     10  C   UNL     1       5.766  -5.559  24.250  0.00  0.00    +0.135 A 
ATOM     11  C   UNL     1       7.798  -1.895  23.749  0.00  0.00    +0.181 A 
ENDROOT
BRANCH  11  12
ATOM     12  C   UNL     1       8.525  -0.633  23.369  0.00  0.00    +0.025 A 
ATOM     13  C   UNL     1       9.927  -0.515  23.429  0.00  0.00    +0.015 A 
ATOM     14  C   UNL     1      10.590   0.623  22.956  0.00  0.00    +0.050 A 
ATOM     15  C   UNL     1       9.855   1.683  22.452  0.00  0.00    +0.161 A 
ATOM     16  C   UNL     1       8.463   1.634  22.424  0.00  0.00    +0.201 A 
ATOM     17  C   UNL     1       7.803   0.485  22.889  0.00  0.00    +0.064 A 
BRANCH  15  18
ATOM     18  O   UNL     1      10.545   2.765  21.980  0.00  0.00    -0.503 OA
ATOM     19  H   UNL     1      10.580   3.425  22.694  0.00  0.00    +0.292 HD
ENDBRANCH  15  18
BRANCH  16  20
ATOM     20  O   UNL     1       7.836   2.765  21.959  0.00  0.00    -0.321 OA
BRANCH  20  21
ATOM     21  S   UNL     1       7.430   3.998  22.946  0.00  0.00    +0.251 S 
ATOM     22  O   UNL     1       7.526   3.561  24.320  0.00  0.00    -0.108 OA
ATOM     23  O   UNL     1       6.249   4.641  22.419  0.00  0.00    -0.108 OA
BRANCH  21  24
ATOM     24  O   UNL     1       8.624   5.045  22.677  0.00  0.00    -0.222 OA
ATOM     25  H   UNL     1       8.247   5.946  22.743  0.00  0.00    +0.248 HD
ENDBRANCH  21  24
ENDBRANCH  20  21
ENDBRANCH  16  20
ENDBRANCH  11  12
BRANCH   7  26
ATOM     26  O   UNL     1       5.304  -6.533  20.800  0.00  0.00    -0.507 OA
ATOM     27  H   UNL     1       5.503  -7.464  20.989  0.00  0.00    +0.292 HD
ENDBRANCH   7  26
BRANCH  10  28
ATOM     28  O   UNL     1       5.432  -6.038  25.486  0.00  0.00    -0.506 OA
ATOM     29  H   UNL     1       4.929  -6.862  25.401  0.00  0.00    +0.292 HD
ENDBRANCH  10  28
BRANCH   1  30
ATOM     30  O   UNL     1       8.104  -1.538  26.093  0.00  0.00    -0.453 OA
BRANCH  30  34
ATOM     31  C   UNL     1       4.316  -0.664  27.968  0.00  0.00    +0.041 C 
ATOM     32  C   UNL     1       4.956   0.205  26.886  0.00  0.00    +0.150 C 
ATOM     33  O   UNL     1       5.963  -0.493  26.132  0.00  0.00    -0.334 OA
ATOM     34  C   UNL     1       7.159  -0.790  26.868  0.00  0.00    +0.339 C 
ATOM     35  C   UNL     1       7.840   0.514  27.321  0.00  0.00    +0.214 C 
ATOM     36  C   UNL     1       6.849   1.305  28.182  0.00  0.00    +0.180 C 
ATOM     37  C   UNL     1       5.517   1.521  27.443  0.00  0.00    +0.174 C 
BRANCH  35  38
ATOM     38  O   UNL     1       8.239   1.323  26.194  0.00  0.00    -0.383 OA
ATOM     39  H   UNL     1       7.449   1.853  25.972  0.00  0.00    +0.210 HD
ENDBRANCH  35  38
BRANCH  36  40
ATOM     40  O   UNL     1       7.430   2.574  28.516  0.00  0.00    -0.386 OA
ATOM     41  H   UNL     1       8.321   2.562  28.111  0.00  0.00    +0.210 HD
ENDBRANCH  36  40
BRANCH  37  42
ATOM     42  O   UNL     1       5.760   2.440  26.360  0.00  0.00    -0.387 OA
ATOM     43  H   UNL     1       5.453   1.981  25.545  0.00  0.00    +0.210 HD
ENDBRANCH  37  42
ENDBRANCH  30  34
ENDBRANCH   1  30
TORSDOF 12
ENDMDL
MODEL 2
REMARK VINA RESULT:      -6.6      2.640      7.428
REMARK  Name = 
REMARK  13 active torsions:
REMARK  status: ('A' for Active; 'I' for Inactive)
REMARK    1  A    between atoms: C_1  and  C_2
REMARK    2  A    between atoms: C_3  and  O_39
REMARK    3  A    between atoms: C_5  and  O_38
REMARK    4  A    between atoms: C_6  and  O_37
REMARK    5  A    between atoms: C_8  and  O_11
REMARK    6  A    between atoms: O_11  and  C_12
REMARK    7  A    between atoms: C_13  and  C_25
REMARK    8  A    between atoms: C_17  and  O_24
REMARK    9  A    between atoms: C_19  and  O_23
REMARK   10  A    between atoms: C_27  and  O_32
REMARK   11  A    between atoms: C_28  and  O_31
REMARK   12  A    between atoms: O_32  and  S_33
REMARK   13  A    between atoms: S_33  and  O_36
REMARK                            x       y       z     vdW  Elec       q    Type
REMARK                         _______ _______ _______ _____ _____    ______ ____
ROOT
ATOM      1  C   UNL     1       8.168   2.534  23.816  0.00  0.00    +0.214 A 
ATOM      2  C   UNL     1       8.551   3.976  23.699  0.00  0.00    +0.238 A 
ATOM      3  O   UNL     1       7.734   4.851  23.435  0.00  0.00    -0.283 OA
ATOM      4  C   UNL     1       9.975   4.309  23.731  0.00  0.00    +0.109 A 
ATOM      5  C   UNL     1      10.874   3.274  23.504  0.00  0.00    +0.147 A 
ATOM      6  C   UNL     1      12.227   3.565  23.309  0.00  0.00    +0.092 A 
ATOM      7  C   UNL     1      12.655   4.892  23.361  0.00  0.00    +0.124 A 
ATOM      8  C   UNL     1      11.771   5.928  23.636  0.00  0.00    +0.091 A 
ATOM      9  O   UNL     1      10.488   1.957  23.418  0.00  0.00    -0.451 OA
ATOM     10  C   UNL     1      10.428   5.634  23.834  0.00  0.00    +0.135 A 
ATOM     11  C   UNL     1       9.150   1.618  23.630  0.00  0.00    +0.181 A 
ENDROOT
BRANCH  11  12
ATOM     12  C   UNL     1       8.887   0.142  23.497  0.00  0.00    +0.025 A 
ATOM     13  C   UNL     1       8.805  -0.507  22.250  0.00  0.00    +0.015 A 
ATOM     14  C   UNL     1       8.682  -1.897  22.152  0.00  0.00    +0.050 A 
ATOM     15  C   UNL     1       8.597  -2.660  23.304  0.00  0.00    +0.161 A 
ATOM     16  C   UNL     1       8.618  -2.057  24.560  0.00  0.00    +0.201 A 
ATOM     17  C   UNL     1       8.753  -0.662  24.653  0.00  0.00    +0.064 A 
BRANCH  15  18
ATOM     18  O   UNL     1       8.500  -4.016  23.160  0.00  0.00    -0.503 OA
ATOM     19  H   UNL     1       7.691  -4.200  22.653  0.00  0.00    +0.292 HD
ENDBRANCH  15  18
BRANCH  16  20
ATOM     20  O   UNL     1       8.466  -2.904  25.631  0.00  0.00    -0.321 OA
BRANCH  20  21
ATOM     21  S   UNL     1       6.998  -3.355  26.177  0.00  0.00    +0.251 S 
ATOM     22  O   UNL     1       6.321  -4.117  25.152  0.00  0.00    -0.108 OA
ATOM     23  O   UNL     1       6.382  -2.225  26.834  0.00  0.00    -0.108 OA
BRANCH  21  24
ATOM     24  O   UNL     1       7.382  -4.366  27.370  0.00  0.00    -0.222 OA
ATOM     25  H   UNL     1       7.450  -5.264  26.986  0.00  0.00    +0.248 HD
ENDBRANCH  21  24
ENDBRANCH  20  21
ENDBRANCH  16  20
ENDBRANCH  11  12
BRANCH   7  26
ATOM     26  O   UNL     1      13.956   5.240  23.148  0.00  0.00    -0.507 OA
ATOM     27  H   UNL     1      14.245   5.828  23.863  0.00  0.00    +0.292 HD
ENDBRANCH   7  26
BRANCH  10  28
ATOM     28  O   UNL     1       9.569   6.652  24.140  0.00  0.00    -0.506 OA
ATOM     29  H   UNL     1       8.921   6.357  24.799  0.00  0.00    +0.292 HD
ENDBRANCH  10  28
BRANCH   1  30
ATOM     30  O   UNL     1       6.843   2.147  23.965  0.00  0.00    -0.453 OA
BRANCH  30  34
ATOM     31  C   UNL     1       6.291   3.782  27.921  0.00  0.00    +0.041 C 
ATOM     32  C   UNL     1       6.465   2.293  27.628  0.00  0.00    +0.150 C 
ATOM     33  O   UNL     1       7.049   2.042  26.336  0.00  0.00    -0.334 OA
ATOM     34  C   UNL     1       6.196   2.356  25.226  0.00  0.00    +0.339 C 
ATOM     35  C   UNL     1       4.933   1.477  25.264  0.00  0.00    +0.214 C 
ATOM     36  C   UNL     1       4.211   1.721  26.594  0.00  0.00    +0.180 C 
ATOM     37  C   UNL     1       5.157   1.505  27.788  0.00  0.00    +0.174 C 
BRANCH  35  38
ATOM     38  O   UNL     1       5.257   0.075  25.151  0.00  0.00    -0.383 OA
ATOM     39  H   UNL     1       5.355  -0.235  26.072  0.00  0.00    +0.210 HD
ENDBRANCH  35  38
BRANCH  36  40
ATOM     40  O   UNL     1       3.095   0.825  26.691  0.00  0.00    -0.386 OA
ATOM     41  H   UNL     1       3.295   0.098  26.067  0.00  0.00    +0.210 HD
ENDBRANCH  36  40
BRANCH  37  42
ATOM     42  O   UNL     1       5.448   0.095  27.868  0.00  0.00    -0.387 OA
ATOM     43  H   UNL     1       5.288  -0.159  28.805  0.00  0.00    +0.210 HD
ENDBRANCH  37  42
ENDBRANCH  30  34
ENDBRANCH   1  30
TORSDOF 12
ENDMDL
MODEL 3
REMARK VINA RESULT:      -6.5      1.250      1.605
REMARK  Name = 
REMARK  13 active torsions:
REMARK  status: ('A' for Active; 'I' for Inactive)
REMARK    1  A    between atoms: C_1  and  C_2
REMARK    2  A    between atoms: C_3  and  O_39
REMARK    3  A    between atoms: C_5  and  O_38
REMARK    4  A    between atoms: C_6  and  O_37
REMARK    5  A    between atoms: C_8  and  O_11
REMARK    6  A    between atoms: O_11  and  C_12
REMARK    7  A    between atoms: C_13  and  C_25
REMARK    8  A    between atoms: C_17  and  O_24
REMARK    9  A    between atoms: C_19  and  O_23
REMARK   10  A    between atoms: C_27  and  O_32
REMARK   11  A    between atoms: C_28  and  O_31
REMARK   12  A    between atoms: O_32  and  S_33
REMARK   13  A    between atoms: S_33  and  O_36
REMARK                            x       y       z     vdW  Elec       q    Type
REMARK                         _______ _______ _______ _____ _____    ______ ____
ROOT
ATOM      1  C   UNL     1       7.840  -1.550  25.613  0.00  0.00    +0.214 A 
ATOM      2  C   UNL     1       7.323  -2.940  25.816  0.00  0.00    +0.238 A 
ATOM      3  O   UNL     1       7.386  -3.510  26.900  0.00  0.00    -0.283 OA
ATOM      4  C   UNL     1       6.895  -3.688  24.634  0.00  0.00    +0.109 A 
ATOM      5  C   UNL     1       7.323  -3.220  23.397  0.00  0.00    +0.147 A 
ATOM      6  C   UNL     1       7.130  -4.006  22.257  0.00  0.00    +0.092 A 
ATOM      7  C   UNL     1       6.495  -5.243  22.380  0.00  0.00    +0.124 A 
ATOM      8  C   UNL     1       6.021  -5.696  23.605  0.00  0.00    +0.091 A 
ATOM      9  O   UNL     1       7.976  -2.021  23.239  0.00  0.00    -0.451 OA
ATOM     10  C   UNL     1       6.211  -4.910  24.734  0.00  0.00    +0.135 A 
ATOM     11  C   UNL     1       8.169  -1.193  24.347  0.00  0.00    +0.181 A 
ENDROOT
BRANCH  11  12
ATOM     12  C   UNL     1       8.901   0.079  24.012  0.00  0.00    +0.025 A 
ATOM     13  C   UNL     1      10.225   0.325  24.424  0.00  0.00    +0.015 A 
ATOM     14  C   UNL     1      10.928   1.459  24.000  0.00  0.00    +0.050 A 
ATOM     15  C   UNL     1      10.301   2.389  23.188  0.00  0.00    +0.161 A 
ATOM     16  C   UNL     1       8.974   2.215  22.800  0.00  0.00    +0.201 A 
ATOM     17  C   UNL     1       8.277   1.070  23.220  0.00  0.00    +0.064 A 
BRANCH  15  18
ATOM     18  O   UNL     1      11.033   3.469  22.780  0.00  0.00    -0.503 OA
ATOM     19  H   UNL     1      10.500   3.955  22.127  0.00  0.00    +0.292 HD
ENDBRANCH  15  18
BRANCH  16  20
ATOM     20  O   UNL     1       8.436   3.229  22.046  0.00  0.00    -0.321 OA
BRANCH  20  21
ATOM     21  S   UNL     1       7.245   4.189  22.608  0.00  0.00    +0.251 S 
ATOM     22  O   UNL     1       7.580   4.633  23.942  0.00  0.00    -0.108 OA
ATOM     23  O   UNL     1       5.973   3.582  22.292  0.00  0.00    -0.108 OA
BRANCH  21  24
ATOM     24  O   UNL     1       7.350   5.460  21.625  0.00  0.00    -0.222 OA
ATOM     25  H   UNL     1       8.113   5.312  21.030  0.00  0.00    +0.248 HD
ENDBRANCH  21  24
ENDBRANCH  20  21
ENDBRANCH  16  20
ENDBRANCH  11  12
BRANCH   7  26
ATOM     26  O   UNL     1       6.307  -6.066  21.310  0.00  0.00    -0.507 OA
ATOM     27  H   UNL     1       5.427  -5.898  20.935  0.00  0.00    +0.292 HD
ENDBRANCH   7  26
BRANCH  10  28
ATOM     28  O   UNL     1       5.711  -5.344  25.930  0.00  0.00    -0.506 OA
ATOM     29  H   UNL     1       4.798  -5.652  25.820  0.00  0.00    +0.292 HD
ENDBRANCH  10  28
BRANCH   1  30
ATOM     30  O   UNL     1       8.106  -0.713  26.688  0.00  0.00    -0.453 OA
BRANCH  30  34
ATOM     31  C   UNL     1       5.265   2.458  25.977  0.00  0.00    +0.041 C 
ATOM     32  C   UNL     1       6.572   2.637  26.749  0.00  0.00    +0.150 C 
ATOM     33  O   UNL     1       7.522   1.589  26.489  0.00  0.00    -0.334 OA
ATOM     34  C   UNL     1       7.159   0.308  27.025  0.00  0.00    +0.339 C 
ATOM     35  C   UNL     1       7.067   0.383  28.560  0.00  0.00    +0.214 C 
ATOM     36  C   UNL     1       6.029   1.447  28.932  0.00  0.00    +0.180 C 
ATOM     37  C   UNL     1       6.346   2.794  28.260  0.00  0.00    +0.174 C 
BRANCH  35  38
ATOM     38  O   UNL     1       8.337   0.733  29.152  0.00  0.00    -0.383 OA
ATOM     39  H   UNL     1       8.775  -0.122  29.330  0.00  0.00    +0.210 HD
ENDBRANCH  35  38
BRANCH  36  40
ATOM     40  O   UNL     1       6.016   1.608  30.358  0.00  0.00    -0.386 OA
ATOM     41  H   UNL     1       5.071   1.602  30.608  0.00  0.00    +0.210 HD
ENDBRANCH  36  40
BRANCH  37  42
ATOM     42  O   UNL     1       7.538   3.322  28.875  0.00  0.00    -0.387 OA
ATOM     43  H   UNL     1       7.227   3.952  29.564  0.00  0.00    +0.210 HD
ENDBRANCH  37  42
ENDBRANCH  30  34
ENDBRANCH   1  30
TORSDOF 12
ENDMDL
MODEL 4
REMARK VINA RESULT:      -6.4      2.841      8.253
REMARK  Name = 
REMARK  13 active torsions:
REMARK  status: ('A' for Active; 'I' for Inactive)
REMARK    1  A    between atoms: C_1  and  C_2
REMARK    2  A    between atoms: C_3  and  O_39
REMARK    3  A    between atoms: C_5  and  O_38
REMARK    4  A    between atoms: C_6  and  O_37
REMARK    5  A    between atoms: C_8  and  O_11
REMARK    6  A    between atoms: O_11  and  C_12
REMARK    7  A    between atoms: C_13  and  C_25
REMARK    8  A    between atoms: C_17  and  O_24
REMARK    9  A    between atoms: C_19  and  O_23
REMARK   10  A    between atoms: C_27  and  O_32
REMARK   11  A    between atoms: C_28  and  O_31
REMARK   12  A    between atoms: O_32  and  S_33
REMARK   13  A    between atoms: S_33  and  O_36
REMARK                            x       y       z     vdW  Elec       q    Type
REMARK                         _______ _______ _______ _____ _____    ______ ____
ROOT
ATOM      1  C   UNL     1       7.771  -1.825  24.533  0.00  0.00    +0.214 A 
ATOM      2  C   UNL     1       8.838  -0.969  23.923  0.00  0.00    +0.238 A 
ATOM      3  O   UNL     1       9.861  -1.443  23.443  0.00  0.00    -0.283 OA
ATOM      4  C   UNL     1       8.717   0.481  24.071  0.00  0.00    +0.109 A 
ATOM      5  C   UNL     1       7.849   0.949  25.050  0.00  0.00    +0.147 A 
ATOM      6  C   UNL     1       7.853   2.307  25.383  0.00  0.00    +0.092 A 
ATOM      7  C   UNL     1       8.719   3.173  24.714  0.00  0.00    +0.124 A 
ATOM      8  C   UNL     1       9.555   2.721  23.700  0.00  0.00    +0.091 A 
ATOM      9  O   UNL     1       7.001   0.125  25.751  0.00  0.00    -0.451 OA
ATOM     10  C   UNL     1       9.545   1.372  23.368  0.00  0.00    +0.135 A 
ATOM     11  C   UNL     1       6.947  -1.234  25.434  0.00  0.00    +0.181 A 
ENDROOT
BRANCH  11  12
ATOM     12  C   UNL     1       5.977  -2.001  26.291  0.00  0.00    +0.025 A 
ATOM     13  C   UNL     1       4.588  -1.767  26.264  0.00  0.00    +0.015 A 
ATOM     14  C   UNL     1       3.693  -2.573  26.977  0.00  0.00    +0.050 A 
ATOM     15  C   UNL     1       4.178  -3.603  27.764  0.00  0.00    +0.161 A 
ATOM     16  C   UNL     1       5.548  -3.838  27.866  0.00  0.00    +0.201 A 
ATOM     17  C   UNL     1       6.441  -3.033  27.139  0.00  0.00    +0.064 A 
BRANCH  15  18
ATOM     18  O   UNL     1       3.266  -4.379  28.425  0.00  0.00    -0.503 OA
ATOM     19  H   UNL     1       2.498  -3.818  28.630  0.00  0.00    +0.292 HD
ENDBRANCH  15  18
BRANCH  16  20
ATOM     20  O   UNL     1       5.918  -4.846  28.721  0.00  0.00    -0.321 OA
BRANCH  20  21
ATOM     21  S   UNL     1       6.377  -6.315  28.182  0.00  0.00    +0.251 S 
ATOM     22  O   UNL     1       5.545  -6.693  27.062  0.00  0.00    -0.108 OA
ATOM     23  O   UNL     1       6.583  -7.181  29.319  0.00  0.00    -0.108 OA
BRANCH  21  24
ATOM     24  O   UNL     1       7.856  -6.015  27.619  0.00  0.00    -0.222 OA
ATOM     25  H   UNL     1       8.351  -6.860  27.624  0.00  0.00    +0.248 HD
ENDBRANCH  21  24
ENDBRANCH  20  21
ENDBRANCH  16  20
ENDBRANCH  11  12
BRANCH   7  26
ATOM     26  O   UNL     1       8.789   4.500  25.017  0.00  0.00    -0.507 OA
ATOM     27  H   UNL     1       8.833   5.009  24.192  0.00  0.00    +0.292 HD
ENDBRANCH   7  26
BRANCH  10  28
ATOM     28  O   UNL     1      10.342   0.939  22.347  0.00  0.00    -0.506 OA
ATOM     29  H   UNL     1       9.801   0.564  21.635  0.00  0.00    +0.292 HD
ENDBRANCH  10  28
BRANCH   1  30
ATOM     30  O   UNL     1       7.715  -3.191  24.297  0.00  0.00    -0.453 OA
BRANCH  30  34
ATOM     31  C   UNL     1       3.632  -4.548  23.962  0.00  0.00    +0.041 C 
ATOM     32  C   UNL     1       4.851  -5.448  23.769  0.00  0.00    +0.150 C 
ATOM     33  O   UNL     1       6.051  -4.895  24.340  0.00  0.00    -0.334 OA
ATOM     34  C   UNL     1       6.558  -3.739  23.655  0.00  0.00    +0.339 C 
ATOM     35  C   UNL     1       6.943  -4.107  22.211  0.00  0.00    +0.214 C 
ATOM     36  C   UNL     1       5.702  -4.661  21.504  0.00  0.00    +0.180 C 
ATOM     37  C   UNL     1       5.080  -5.823  22.298  0.00  0.00    +0.174 C 
BRANCH  35  38
ATOM     38  O   UNL     1       7.991  -5.100  22.177  0.00  0.00    -0.383 OA
ATOM     39  H   UNL     1       8.776  -4.649  22.543  0.00  0.00    +0.210 HD
ENDBRANCH  35  38
BRANCH  36  40
ATOM     40  O   UNL     1       6.074  -5.113  20.194  0.00  0.00    -0.386 OA
ATOM     41  H   UNL     1       5.383  -4.763  19.596  0.00  0.00    +0.210 HD
ENDBRANCH  36  40
BRANCH  37  42
ATOM     42  O   UNL     1       5.985  -6.942  22.219  0.00  0.00    -0.387 OA
ATOM     43  H   UNL     1       5.416  -7.744  22.168  0.00  0.00    +0.210 HD
ENDBRANCH  37  42
ENDBRANCH  30  34
ENDBRANCH   1  30
TORSDOF 12
ENDMDL
MODEL 5
REMARK VINA RESULT:      -6.4      2.425      7.049
REMARK  Name = 
REMARK  13 active torsions:
REMARK  status: ('A' for Active; 'I' for Inactive)
REMARK    1  A    between atoms: C_1  and  C_2
REMARK    2  A    between atoms: C_3  and  O_39
REMARK    3  A    between atoms: C_5  and  O_38
REMARK    4  A    between atoms: C_6  and  O_37
REMARK    5  A    between atoms: C_8  and  O_11
REMARK    6  A    between atoms: O_11  and  C_12
REMARK    7  A    between atoms: C_13  and  C_25
REMARK    8  A    between atoms: C_17  and  O_24
REMARK    9  A    between atoms: C_19  and  O_23
REMARK   10  A    between atoms: C_27  and  O_32
REMARK   11  A    between atoms: C_28  and  O_31
REMARK   12  A    between atoms: O_32  and  S_33
REMARK   13  A    between atoms: S_33  and  O_36
REMARK                            x       y       z     vdW  Elec       q    Type
REMARK                         _______ _______ _______ _____ _____    ______ ____
ROOT
ATOM      1  C   UNL     1       7.381  -0.033  26.231  0.00  0.00    +0.214 A 
ATOM      2  C   UNL     1       6.648   1.030  26.989  0.00  0.00    +0.238 A 
ATOM      3  O   UNL     1       7.181   2.082  27.322  0.00  0.00    -0.283 OA
ATOM      4  C   UNL     1       5.311   0.712  27.490  0.00  0.00    +0.109 A 
ATOM      5  C   UNL     1       4.960  -0.632  27.552  0.00  0.00    +0.147 A 
ATOM      6  C   UNL     1       3.790  -1.009  28.218  0.00  0.00    +0.092 A 
ATOM      7  C   UNL     1       2.986  -0.026  28.797  0.00  0.00    +0.124 A 
ATOM      8  C   UNL     1       3.305   1.323  28.697  0.00  0.00    +0.091 A 
ATOM      9  O   UNL     1       5.738  -1.631  27.020  0.00  0.00    -0.451 OA
ATOM     10  C   UNL     1       4.465   1.694  28.031  0.00  0.00    +0.135 A 
ATOM     11  C   UNL     1       6.903  -1.298  26.325  0.00  0.00    +0.181 A 
ENDROOT
BRANCH  11  12
ATOM     12  C   UNL     1       7.646  -2.501  25.808  0.00  0.00    +0.025 A 
ATOM     13  C   UNL     1       8.706  -3.102  26.514  0.00  0.00    +0.015 A 
ATOM     14  C   UNL     1       9.302  -4.289  26.075  0.00  0.00    +0.050 A 
ATOM     15  C   UNL     1       8.873  -4.875  24.895  0.00  0.00    +0.161 A 
ATOM     16  C   UNL     1       7.864  -4.287  24.135  0.00  0.00    +0.201 A 
ATOM     17  C   UNL     1       7.262  -3.101  24.586  0.00  0.00    +0.064 A 
BRANCH  15  18
ATOM     18  O   UNL     1       9.467  -6.046  24.517  0.00  0.00    -0.503 OA
ATOM     19  H   UNL     1       9.972  -6.379  25.279  0.00  0.00    +0.292 HD
ENDBRANCH  15  18
BRANCH  16  20
ATOM     20  O   UNL     1       7.561  -4.921  22.955  0.00  0.00    -0.321 OA
BRANCH  20  21
ATOM     21  S   UNL     1       6.058  -5.459  22.622  0.00  0.00    +0.251 S 
ATOM     22  O   UNL     1       5.363  -4.472  21.829  0.00  0.00    -0.108 OA
ATOM     23  O   UNL     1       5.492  -6.022  23.826  0.00  0.00    -0.108 OA
BRANCH  21  24
ATOM     24  O   UNL     1       6.361  -6.727  21.677  0.00  0.00    -0.222 OA
ATOM     25  H   UNL     1       7.331  -6.780  21.554  0.00  0.00    +0.248 HD
ENDBRANCH  21  24
ENDBRANCH  20  21
ENDBRANCH  16  20
ENDBRANCH  11  12
BRANCH   7  26
ATOM     26  O   UNL     1       1.851  -0.336  29.485  0.00  0.00    -0.507 OA
ATOM     27  H   UNL     1       1.799  -1.300  29.589  0.00  0.00    +0.292 HD
ENDBRANCH   7  26
BRANCH  10  28
ATOM     28  O   UNL     1       4.756   3.023  27.904  0.00  0.00    -0.506 OA
ATOM     29  H   UNL     1       5.669   3.139  27.600  0.00  0.00    +0.292 HD
ENDBRANCH  10  28
BRANCH   1  30
ATOM     30  O   UNL     1       8.575   0.238  25.577  0.00  0.00    -0.453 OA
BRANCH  30  34
ATOM     31  C   UNL     1       9.131  -1.144  21.526  0.00  0.00    +0.041 C 
ATOM     32  C   UNL     1       9.912   0.012  22.151  0.00  0.00    +0.150 C 
ATOM     33  O   UNL     1       9.867   0.004  23.589  0.00  0.00    -0.334 OA
ATOM     34  C   UNL     1       8.582   0.319  24.147  0.00  0.00    +0.339 C 
ATOM     35  C   UNL     1       8.168   1.747  23.749  0.00  0.00    +0.214 C 
ATOM     36  C   UNL     1       8.137   1.835  22.219  0.00  0.00    +0.180 C 
ATOM     37  C   UNL     1       9.473   1.380  21.608  0.00  0.00    +0.174 C 
BRANCH  35  38
ATOM     38  O   UNL     1       9.093   2.731  24.261  0.00  0.00    -0.383 OA
ATOM     39  H   UNL     1       9.787   2.212  24.712  0.00  0.00    +0.210 HD
ENDBRANCH  35  38
BRANCH  36  40
ATOM     40  O   UNL     1       7.864   3.190  21.835  0.00  0.00    -0.386 OA
ATOM     41  H   UNL     1       7.347   3.123  21.007  0.00  0.00    +0.210 HD
ENDBRANCH  36  40
BRANCH  37  42
ATOM     42  O   UNL     1      10.467   2.371  21.936  0.00  0.00    -0.387 OA
ATOM     43  H   UNL     1      10.080   3.237  21.671  0.00  0.00    +0.210 HD
ENDBRANCH  37  42
ENDBRANCH  30  34
ENDBRANCH   1  30
TORSDOF 12
ENDMDL
MODEL 6
REMARK VINA RESULT:      -6.2      2.721      5.096
REMARK  Name = 
REMARK  13 active torsions:
REMARK  status: ('A' for Active; 'I' for Inactive)
REMARK    1  A    between atoms: C_1  and  C_2
REMARK    2  A    between atoms: C_3  and  O_39
REMARK    3  A    between atoms: C_5  and  O_38
REMARK    4  A    between atoms: C_6  and  O_37
REMARK    5  A    between atoms: C_8  and  O_11
REMARK    6  A    between atoms: O_11  and  C_12
REMARK    7  A    between atoms: C_13  and  C_25
REMARK    8  A    between atoms: C_17  and  O_24
REMARK    9  A    between atoms: C_19  and  O_23
REMARK   10  A    between atoms: C_27  and  O_32
REMARK   11  A    between atoms: C_28  and  O_31
REMARK   12  A    between atoms: O_32  and  S_33
REMARK   13  A    between atoms: S_33  and  O_36
REMARK                            x       y       z     vdW  Elec       q    Type
REMARK                         _______ _______ _______ _____ _____    ______ ____
ROOT
ATOM      1  C   UNL     1       7.968  -0.906  26.067  0.00  0.00    +0.214 A 
ATOM      2  C   UNL     1       8.424  -2.324  25.919  0.00  0.00    +0.238 A 
ATOM      3  O   UNL     1       9.298  -2.651  25.124  0.00  0.00    -0.283 OA
ATOM      4  C   UNL     1       7.671  -3.361  26.625  0.00  0.00    +0.109 A 
ATOM      5  C   UNL     1       6.400  -3.025  27.078  0.00  0.00    +0.147 A 
ATOM      6  C   UNL     1       5.553  -4.026  27.564  0.00  0.00    +0.092 A 
ATOM      7  C   UNL     1       6.007  -5.346  27.600  0.00  0.00    +0.124 A 
ATOM      8  C   UNL     1       7.292  -5.682  27.195  0.00  0.00    +0.091 A 
ATOM      9  O   UNL     1       5.907  -1.743  27.033  0.00  0.00    -0.451 OA
ATOM     10  C   UNL     1       8.132  -4.684  26.717  0.00  0.00    +0.135 A 
ATOM     11  C   UNL     1       6.727  -0.708  26.577  0.00  0.00    +0.181 A 
ENDROOT
BRANCH  11  12
ATOM     12  C   UNL     1       6.043   0.633  26.584  0.00  0.00    +0.025 A 
ATOM     13  C   UNL     1       6.397   1.663  27.476  0.00  0.00    +0.015 A 
ATOM     14  C   UNL     1       5.833   2.941  27.386  0.00  0.00    +0.050 A 
ATOM     15  C   UNL     1       4.871   3.197  26.423  0.00  0.00    +0.161 A 
ATOM     16  C   UNL     1       4.448   2.193  25.555  0.00  0.00    +0.201 A 
ATOM     17  C   UNL     1       5.026   0.916  25.643  0.00  0.00    +0.064 A 
BRANCH  15  18
ATOM     18  O   UNL     1       4.364   4.465  26.357  0.00  0.00    -0.503 OA
ATOM     19  H   UNL     1       5.067   5.077  26.634  0.00  0.00    +0.292 HD
ENDBRANCH  15  18
BRANCH  16  20
ATOM     20  O   UNL     1       3.447   2.543  24.682  0.00  0.00    -0.321 OA
BRANCH  20  21
ATOM     21  S   UNL     1       3.750   3.330  23.287  0.00  0.00    +0.251 S 
ATOM     22  O   UNL     1       5.033   2.909  22.771  0.00  0.00    -0.108 OA
ATOM     23  O   UNL     1       3.403   4.721  23.456  0.00  0.00    -0.108 OA
BRANCH  21  24
ATOM     24  O   UNL     1       2.610   2.736  22.315  0.00  0.00    -0.222 OA
ATOM     25  H   UNL     1       1.908   3.414  22.236  0.00  0.00    +0.248 HD
ENDBRANCH  21  24
ENDBRANCH  20  21
ENDBRANCH  16  20
ENDBRANCH  11  12
BRANCH   7  26
ATOM     26  O   UNL     1       5.216  -6.368  28.034  0.00  0.00    -0.507 OA
ATOM     27  H   UNL     1       4.311  -6.222  27.715  0.00  0.00    +0.292 HD
ENDBRANCH   7  26
BRANCH  10  28
ATOM     28  O   UNL     1       9.407  -5.014  26.354  0.00  0.00    -0.506 OA
ATOM     29  H   UNL     1      10.029  -4.338  26.663  0.00  0.00    +0.292 HD
ENDBRANCH  10  28
BRANCH   1  30
ATOM     30  O   UNL     1       8.719   0.151  25.574  0.00  0.00    -0.453 OA
BRANCH  30  34
ATOM     31  C   UNL     1       9.370  -0.779  21.409  0.00  0.00    +0.041 C 
ATOM     32  C   UNL     1      10.115   0.318  22.168  0.00  0.00    +0.150 C 
ATOM     33  O   UNL     1      10.047   0.156  23.596  0.00  0.00    -0.334 OA
ATOM     34  C   UNL     1       8.748   0.384  24.161  0.00  0.00    +0.339 C 
ATOM     35  C   UNL     1       8.310   1.838  23.910  0.00  0.00    +0.214 C 
ATOM     36  C   UNL     1       8.302   2.088  22.398  0.00  0.00    +0.180 C 
ATOM     37  C   UNL     1       9.657   1.728  21.766  0.00  0.00    +0.174 C 
BRANCH  35  38
ATOM     38  O   UNL     1       9.206   2.779  24.541  0.00  0.00    -0.383 OA
ATOM     39  H   UNL     1       8.941   2.786  25.481  0.00  0.00    +0.210 HD
ENDBRANCH  35  38
BRANCH  36  40
ATOM     40  O   UNL     1       8.006   3.471  22.155  0.00  0.00    -0.386 OA
ATOM     41  H   UNL     1       7.276   3.689  22.768  0.00  0.00    +0.210 HD
ENDBRANCH  36  40
BRANCH  37  42
ATOM     42  O   UNL     1      10.624   2.697  22.216  0.00  0.00    -0.387 OA
ATOM     43  H   UNL     1      10.944   3.153  21.405  0.00  0.00    +0.210 HD
ENDBRANCH  37  42
ENDBRANCH  30  34
ENDBRANCH   1  30
TORSDOF 12
ENDMDL
MODEL 7
REMARK VINA RESULT:      -5.9      1.907      4.966
REMARK  Name = 
REMARK  13 active torsions:
REMARK  status: ('A' for Active; 'I' for Inactive)
REMARK    1  A    between atoms: C_1  and  C_2
REMARK    2  A    between atoms: C_3  and  O_39
REMARK    3  A    between atoms: C_5  and  O_38
REMARK    4  A    between atoms: C_6  and  O_37
REMARK    5  A    between atoms: C_8  and  O_11
REMARK    6  A    between atoms: O_11  and  C_12
REMARK    7  A    between atoms: C_13  and  C_25
REMARK    8  A    between atoms: C_17  and  O_24
REMARK    9  A    between atoms: C_19  and  O_23
REMARK   10  A    between atoms: C_27  and  O_32
REMARK   11  A    between atoms: C_28  and  O_31
REMARK   12  A    between atoms: O_32  and  S_33
REMARK   13  A    between atoms: S_33  and  O_36
REMARK                            x       y       z     vdW  Elec       q    Type
REMARK                         _______ _______ _______ _____ _____    ______ ____
ROOT
ATOM      1  C   UNL     1       5.953  -1.964  23.919  0.00  0.00    +0.214 A 
ATOM      2  C   UNL     1       5.587  -3.126  23.049  0.00  0.00    +0.238 A 
ATOM      3  O   UNL     1       5.360  -3.001  21.851  0.00  0.00    -0.283 OA
ATOM      4  C   UNL     1       5.326  -4.410  23.699  0.00  0.00    +0.109 A 
ATOM      5  C   UNL     1       5.080  -4.391  25.067  0.00  0.00    +0.147 A 
ATOM      6  C   UNL     1       4.615  -5.547  25.701  0.00  0.00    +0.092 A 
ATOM      7  C   UNL     1       4.420  -6.707  24.950  0.00  0.00    +0.124 A 
ATOM      8  C   UNL     1       4.710  -6.748  23.592  0.00  0.00    +0.091 A 
ATOM      9  O   UNL     1       5.233  -3.262  25.836  0.00  0.00    -0.451 OA
ATOM     10  C   UNL     1       5.176  -5.599  22.967  0.00  0.00    +0.135 A 
ATOM     11  C   UNL     1       5.718  -2.091  25.248  0.00  0.00    +0.181 A 
ENDROOT
BRANCH  11  12
ATOM     12  C   UNL     1       5.824  -0.945  26.218  0.00  0.00    +0.025 A 
ATOM     13  C   UNL     1       6.992  -0.681  26.959  0.00  0.00    +0.015 A 
ATOM     14  C   UNL     1       7.111   0.458  27.762  0.00  0.00    +0.050 A 
ATOM     15  C   UNL     1       6.044   1.335  27.869  0.00  0.00    +0.161 A 
ATOM     16  C   UNL     1       4.849   1.087  27.197  0.00  0.00    +0.201 A 
ATOM     17  C   UNL     1       4.739  -0.053  26.384  0.00  0.00    +0.064 A 
BRANCH  15  18
ATOM     18  O   UNL     1       6.213   2.447  28.646  0.00  0.00    -0.503 OA
ATOM     19  H   UNL     1       7.130   2.440  28.973  0.00  0.00    +0.292 HD
ENDBRANCH  15  18
BRANCH  16  20
ATOM     20  O   UNL     1       3.839   1.990  27.423  0.00  0.00    -0.321 OA
BRANCH  20  21
ATOM     21  S   UNL     1       3.572   3.256  26.431  0.00  0.00    +0.251 S 
ATOM     22  O   UNL     1       4.835   3.870  26.090  0.00  0.00    -0.108 OA
ATOM     23  O   UNL     1       2.456   4.016  26.943  0.00  0.00    -0.108 OA
BRANCH  21  24
ATOM     24  O   UNL     1       3.004   2.530  25.110  0.00  0.00    -0.222 OA
ATOM     25  H   UNL     1       3.255   3.079  24.339  0.00  0.00    +0.248 HD
ENDBRANCH  21  24
ENDBRANCH  20  21
ENDBRANCH  16  20
ENDBRANCH  11  12
BRANCH   7  26
ATOM     26  O   UNL     1       3.939  -7.854  25.508  0.00  0.00    -0.507 OA
ATOM     27  H   UNL     1       4.644  -8.269  26.030  0.00  0.00    +0.292 HD
ENDBRANCH   7  26
BRANCH  10  28
ATOM     28  O   UNL     1       5.494  -5.655  21.639  0.00  0.00    -0.506 OA
ATOM     29  H   UNL     1       5.123  -4.890  21.173  0.00  0.00    +0.292 HD
ENDBRANCH  10  28
BRANCH   1  30
ATOM     30  O   UNL     1       6.381  -0.761  23.376  0.00  0.00    -0.453 OA
BRANCH  30  34
ATOM     31  C   UNL     1      10.512  -1.922  22.909  0.00  0.00    +0.041 C 
ATOM     32  C   UNL     1      10.047  -0.728  23.742  0.00  0.00    +0.150 C 
ATOM     33  O   UNL     1       8.653  -0.798  24.091  0.00  0.00    -0.334 OA
ATOM     34  C   UNL     1       7.752  -0.621  22.988  0.00  0.00    +0.339 C 
ATOM     35  C   UNL     1       7.934   0.780  22.376  0.00  0.00    +0.214 C 
ATOM     36  C   UNL     1       9.391   0.926  21.923  0.00  0.00    +0.180 C 
ATOM     37  C   UNL     1      10.365   0.617  23.073  0.00  0.00    +0.174 C 
BRANCH  35  38
ATOM     38  O   UNL     1       7.627   1.819  23.330  0.00  0.00    -0.383 OA
ATOM     39  H   UNL     1       7.530   1.356  24.184  0.00  0.00    +0.210 HD
ENDBRANCH  35  38
BRANCH  36  40
ATOM     40  O   UNL     1       9.601   2.266  21.456  0.00  0.00    -0.386 OA
ATOM     41  H   UNL     1       9.289   2.843  22.182  0.00  0.00    +0.210 HD
ENDBRANCH  36  40
BRANCH  37  42
ATOM     42  O   UNL     1      10.253   1.678  24.041  0.00  0.00    -0.387 OA
ATOM     43  H   UNL     1       9.580   2.300  23.682  0.00  0.00    +0.210 HD
ENDBRANCH  37  42
ENDBRANCH  30  34
ENDBRANCH   1  30
TORSDOF 12
ENDMDL
MODEL 8
REMARK VINA RESULT:      -5.9      2.625      7.338
REMARK  Name = 
REMARK  13 active torsions:
REMARK  status: ('A' for Active; 'I' for Inactive)
REMARK    1  A    between atoms: C_1  and  C_2
REMARK    2  A    between atoms: C_3  and  O_39
REMARK    3  A    between atoms: C_5  and  O_38
REMARK    4  A    between atoms: C_6  and  O_37
REMARK    5  A    between atoms: C_8  and  O_11
REMARK    6  A    between atoms: O_11  and  C_12
REMARK    7  A    between atoms: C_13  and  C_25
REMARK    8  A    between atoms: C_17  and  O_24
REMARK    9  A    between atoms: C_19  and  O_23
REMARK   10  A    between atoms: C_27  and  O_32
REMARK   11  A    between atoms: C_28  and  O_31
REMARK   12  A    between atoms: O_32  and  S_33
REMARK   13  A    between atoms: S_33  and  O_36
REMARK                            x       y       z     vdW  Elec       q    Type
REMARK                         _______ _______ _______ _____ _____    ______ ____
ROOT
ATOM      1  C   UNL     1       8.204   2.709  23.893  0.00  0.00    +0.214 A 
ATOM      2  C   UNL     1       8.634   4.142  23.824  0.00  0.00    +0.238 A 
ATOM      3  O   UNL     1       7.840   5.055  23.631  0.00  0.00    -0.283 OA
ATOM      4  C   UNL     1      10.070   4.424  23.813  0.00  0.00    +0.109 A 
ATOM      5  C   UNL     1      10.922   3.369  23.506  0.00  0.00    +0.147 A 
ATOM      6  C   UNL     1      12.276   3.622  23.269  0.00  0.00    +0.092 A 
ATOM      7  C   UNL     1      12.753   4.931  23.362  0.00  0.00    +0.124 A 
ATOM      8  C   UNL     1      11.917   5.983  23.717  0.00  0.00    +0.091 A 
ATOM      9  O   UNL     1      10.486   2.072  23.378  0.00  0.00    -0.451 OA
ATOM     10  C   UNL     1      10.574   5.727  23.956  0.00  0.00    +0.135 A 
ATOM     11  C   UNL     1       9.146   1.770  23.628  0.00  0.00    +0.181 A 
ENDROOT
BRANCH  11  12
ATOM     12  C   UNL     1       8.825   0.311  23.442  0.00  0.00    +0.025 A 
ATOM     13  C   UNL     1       8.314  -0.208  22.237  0.00  0.00    +0.015 A 
ATOM     14  C   UNL     1       8.138  -1.582  22.044  0.00  0.00    +0.050 A 
ATOM     15  C   UNL     1       8.432  -2.461  23.073  0.00  0.00    +0.161 A 
ATOM     16  C   UNL     1       8.889  -1.990  24.303  0.00  0.00    +0.201 A 
ATOM     17  C   UNL     1       9.074  -0.610  24.486  0.00  0.00    +0.064 A 
BRANCH  15  18
ATOM     18  O   UNL     1       8.267  -3.797  22.833  0.00  0.00    -0.503 OA
ATOM     19  H   UNL     1       8.028  -3.898  21.895  0.00  0.00    +0.292 HD
ENDBRANCH  15  18
BRANCH  16  20
ATOM     20  O   UNL     1       9.092  -2.944  25.269  0.00  0.00    -0.321 OA
BRANCH  20  21
ATOM     21  S   UNL     1       7.906  -3.413  26.285  0.00  0.00    +0.251 S 
ATOM     22  O   UNL     1       7.266  -2.244  26.843  0.00  0.00    -0.108 OA
ATOM     23  O   UNL     1       8.404  -4.490  27.110  0.00  0.00    -0.108 OA
BRANCH  21  24
ATOM     24  O   UNL     1       6.862  -4.114  25.279  0.00  0.00    -0.222 OA
ATOM     25  H   UNL     1       7.203  -3.994  24.369  0.00  0.00    +0.248 HD
ENDBRANCH  21  24
ENDBRANCH  20  21
ENDBRANCH  16  20
ENDBRANCH  11  12
BRANCH   7  26
ATOM     26  O   UNL     1      14.056   5.243  23.112  0.00  0.00    -0.507 OA
ATOM     27  H   UNL     1      14.104   5.756  22.289  0.00  0.00    +0.292 HD
ENDBRANCH   7  26
BRANCH  10  28
ATOM     28  O   UNL     1       9.764   6.758  24.340  0.00  0.00    -0.506 OA
ATOM     29  H   UNL     1      10.289   7.459  24.756  0.00  0.00    +0.292 HD
ENDBRANCH  10  28
BRANCH   1  30
ATOM     30  O   UNL     1       6.874   2.361  24.078  0.00  0.00    -0.453 OA
BRANCH  30  34
ATOM     31  C   UNL     1       4.637  -0.144  26.789  0.00  0.00    +0.041 C 
ATOM     32  C   UNL     1       4.581   1.383  26.792  0.00  0.00    +0.150 C 
ATOM     33  O   UNL     1       5.053   1.962  25.562  0.00  0.00    -0.334 OA
ATOM     34  C   UNL     1       6.465   1.824  25.341  0.00  0.00    +0.339 C 
ATOM     35  C   UNL     1       7.247   2.556  26.446  0.00  0.00    +0.214 C 
ATOM     36  C   UNL     1       6.844   1.964  27.801  0.00  0.00    +0.180 C 
ATOM     37  C   UNL     1       5.318   1.997  27.991  0.00  0.00    +0.174 C 
BRANCH  35  38
ATOM     38  O   UNL     1       6.966   3.973  26.446  0.00  0.00    -0.383 OA
ATOM     39  H   UNL     1       7.510   4.337  25.721  0.00  0.00    +0.210 HD
ENDBRANCH  35  38
BRANCH  36  40
ATOM     40  O   UNL     1       7.480   2.713  28.846  0.00  0.00    -0.386 OA
ATOM     41  H   UNL     1       8.205   2.141  29.168  0.00  0.00    +0.210 HD
ENDBRANCH  36  40
BRANCH  37  42
ATOM     42  O   UNL     1       4.925   3.375  28.147  0.00  0.00    -0.387 OA
ATOM     43  H   UNL     1       5.762   3.890  28.186  0.00  0.00    +0.210 HD
ENDBRANCH  37  42
ENDBRANCH  30  34
ENDBRANCH   1  30
TORSDOF 12
ENDMDL
MODEL 9
REMARK VINA RESULT:      -5.8      3.295      7.791
REMARK  Name = 
REMARK  13 active torsions:
REMARK  status: ('A' for Active; 'I' for Inactive)
REMARK    1  A    between atoms: C_1  and  C_2
REMARK    2  A    between atoms: C_3  and  O_39
REMARK    3  A    between atoms: C_5  and  O_38
REMARK    4  A    between atoms: C_6  and  O_37
REMARK    5  A    between atoms: C_8  and  O_11
REMARK    6  A    between atoms: O_11  and  C_12
REMARK    7  A    between atoms: C_13  and  C_25
REMARK    8  A    between atoms: C_17  and  O_24
REMARK    9  A    between atoms: C_19  and  O_23
REMARK   10  A    between atoms: C_27  and  O_32
REMARK   11  A    between atoms: C_28  and  O_31
REMARK   12  A    between atoms: O_32  and  S_33
REMARK   13  A    between atoms: S_33  and  O_36
REMARK                            x       y       z     vdW  Elec       q    Type
REMARK                         _______ _______ _______ _____ _____    ______ ____
ROOT
ATOM      1  C   UNL     1       8.523   3.080  24.546  0.00  0.00    +0.214 A 
ATOM      2  C   UNL     1       8.986   4.501  24.622  0.00  0.00    +0.238 A 
ATOM      3  O   UNL     1       8.215   5.432  24.826  0.00  0.00    -0.283 OA
ATOM      4  C   UNL     1      10.376   4.786  24.265  0.00  0.00    +0.109 A 
ATOM      5  C   UNL     1      11.059   3.811  23.547  0.00  0.00    +0.147 A 
ATOM      6  C   UNL     1      12.308   4.109  22.994  0.00  0.00    +0.092 A 
ATOM      7  C   UNL     1      12.855   5.378  23.187  0.00  0.00    +0.124 A 
ATOM      8  C   UNL     1      12.201   6.342  23.944  0.00  0.00    +0.091 A 
ATOM      9  O   UNL     1      10.543   2.559  23.312  0.00  0.00    -0.451 OA
ATOM     10  C   UNL     1      10.963   6.041  24.496  0.00  0.00    +0.135 A 
ATOM     11  C   UNL     1       9.309   2.210  23.865  0.00  0.00    +0.181 A 
ENDROOT
BRANCH  11  12
ATOM     12  C   UNL     1       8.879   0.811  23.514  0.00  0.00    +0.025 A 
ATOM     13  C   UNL     1       8.990   0.286  22.212  0.00  0.00    +0.015 A 
ATOM     14  C   UNL     1       8.699  -1.054  21.933  0.00  0.00    +0.050 A 
ATOM     15  C   UNL     1       8.251  -1.883  22.948  0.00  0.00    +0.161 A 
ATOM     16  C   UNL     1       8.073  -1.393  24.240  0.00  0.00    +0.201 A 
ATOM     17  C   UNL     1       8.378  -0.050  24.517  0.00  0.00    +0.064 A 
BRANCH  15  18
ATOM     18  O   UNL     1       8.000  -3.190  22.634  0.00  0.00    -0.503 OA
ATOM     19  H   UNL     1       7.296  -3.504  23.227  0.00  0.00    +0.292 HD
ENDBRANCH  15  18
BRANCH  16  20
ATOM     20  O   UNL     1       7.568  -2.288  25.152  0.00  0.00    -0.321 OA
BRANCH  20  21
ATOM     21  S   UNL     1       5.965  -2.502  25.357  0.00  0.00    +0.251 S 
ATOM     22  O   UNL     1       5.255  -1.393  24.762  0.00  0.00    -0.108 OA
ATOM     23  O   UNL     1       5.726  -2.935  26.714  0.00  0.00    -0.108 OA
BRANCH  21  24
ATOM     24  O   UNL     1       5.686  -3.807  24.454  0.00  0.00    -0.222 OA
ATOM     25  H   UNL     1       6.553  -4.159  24.167  0.00  0.00    +0.248 HD
ENDBRANCH  21  24
ENDBRANCH  20  21
ENDBRANCH  16  20
ENDBRANCH  11  12
BRANCH   7  26
ATOM     26  O   UNL     1      14.054   5.736  22.646  0.00  0.00    -0.507 OA
ATOM     27  H   UNL     1      14.634   6.061  23.354  0.00  0.00    +0.292 HD
ENDBRANCH   7  26
BRANCH  10  28
ATOM     28  O   UNL     1      10.340   6.979  25.270  0.00  0.00    -0.506 OA
ATOM     29  H   UNL     1      10.515   6.809  26.208  0.00  0.00    +0.292 HD
ENDBRANCH  10  28
BRANCH   1  30
ATOM     30  O   UNL     1       7.278   2.698  25.027  0.00  0.00    -0.453 OA
BRANCH  30  34
ATOM     31  C   UNL     1       4.479   5.984  25.043  0.00  0.00    +0.041 C 
ATOM     32  C   UNL     1       4.112   4.546  25.407  0.00  0.00    +0.150 C 
ATOM     33  O   UNL     1       5.260   3.744  25.741  0.00  0.00    -0.334 OA
ATOM     34  C   UNL     1       6.122   3.446  24.632  0.00  0.00    +0.339 C 
ATOM     35  C   UNL     1       5.360   2.623  23.577  0.00  0.00    +0.214 C 
ATOM     36  C   UNL     1       4.140   3.430  23.120  0.00  0.00    +0.180 C 
ATOM     37  C   UNL     1       3.276   3.859  24.318  0.00  0.00    +0.174 C 
BRANCH  35  38
ATOM     38  O   UNL     1       4.919   1.356  24.109  0.00  0.00    -0.383 OA
ATOM     39  H   UNL     1       3.950   1.355  23.984  0.00  0.00    +0.210 HD
ENDBRANCH  35  38
BRANCH  36  40
ATOM     40  O   UNL     1       3.360   2.628  22.221  0.00  0.00    -0.386 OA
ATOM     41  H   UNL     1       2.491   2.526  22.658  0.00  0.00    +0.210 HD
ENDBRANCH  36  40
BRANCH  37  42
ATOM     42  O   UNL     1       2.657   2.675  24.859  0.00  0.00    -0.387 OA
ATOM     43  H   UNL     1       1.784   2.965  25.208  0.00  0.00    +0.210 HD
ENDBRANCH  37  42
ENDBRANCH  30  34
ENDBRANCH   1  30
TORSDOF 12
ENDMDL
