MODEL 1
REMARK VINA RESULT:      -6.4      0.000      0.000
REMARK  Name = 
REMARK  24 active torsions:
REMARK  status: ('A' for Active; 'I' for Inactive)
REMARK    1  A    between atoms: C_1  and  C_2
REMARK    2  A    between atoms: C_3  and  O_62
REMARK    3  A    between atoms: C_5  and  O_48
REMARK    4  A    between atoms: C_7  and  O_47
REMARK    5  A    between atoms: C_8  and  O_11
REMARK    6  A    between atoms: O_11  and  C_12
REMARK    7  A    between atoms: C_12  and  C_13
REMARK    8  A    between atoms: C_14  and  O_46
REMARK    9  A    between atoms: C_16  and  O_45
REMARK   10  A    between atoms: C_17  and  O_44
REMARK   11  A    between atoms: C_18  and  O_21
REMARK   12  A    between atoms: O_21  and  C_22
REMARK   13  A    between atoms: C_23  and  C_35
REMARK   14  A    between atoms: C_27  and  O_34
REMARK   15  A    between atoms: C_29  and  O_33
REMARK   16  A    between atoms: C_37  and  O_42
REMARK   17  A    between atoms: C_38  and  O_41
REMARK   18  A    between atoms: O_42  and  C_43
REMARK   19  A    between atoms: O_48  and  C_49
REMARK   20  A    between atoms: C_49  and  C_51
REMARK   21  A    between atoms: C_52  and  C_53
REMARK   22  A    between atoms: C_55  and  O_60
REMARK   23  A    between atoms: C_56  and  O_59
REMARK   24  A    between atoms: O_60  and  C_61
REMARK                            x       y       z     vdW  Elec       q    Type
REMARK                         _______ _______ _______ _____ _____    ______ ____
ROOT
ATOM      1  C   UNL     1       5.282   1.378  27.026  0.00  0.00    +0.179 C 
ATOM      2  O   UNL     1       5.676   0.110  27.608  0.00  0.00    -0.331 OA
ATOM      3  C   UNL     1       4.759  -0.993  27.469  0.00  0.00    +0.340 C 
ATOM      4  C   UNL     1       3.364  -0.596  28.001  0.00  0.00    +0.214 C 
ATOM      5  C   UNL     1       2.873   0.628  27.216  0.00  0.00    +0.180 C 
ATOM      6  C   UNL     1       3.846   1.802  27.380  0.00  0.00    +0.177 C 
ENDROOT
BRANCH   4   7
ATOM      7  O   UNL     1       3.433  -0.248  29.408  0.00  0.00    -0.383 OA
ATOM      8  H   UNL     1       2.783  -0.814  29.867  0.00  0.00    +0.210 HD
ENDBRANCH   4   7
BRANCH   6   9
ATOM      9  O   UNL     1       3.829   2.275  28.746  0.00  0.00    -0.386 OA
ATOM     10  H   UNL     1       2.999   2.785  28.861  0.00  0.00    +0.210 HD
ENDBRANCH   6   9
BRANCH   5  11
ATOM     11  O   UNL     1       1.564   1.012  27.654  0.00  0.00    -0.386 OA
ATOM     12  H   UNL     1       0.982   0.260  27.431  0.00  0.00    +0.210 HD
ENDBRANCH   5  11
BRANCH   3  13
ATOM     13  O   UNL     1       5.264  -2.143  28.191  0.00  0.00    -0.453 OA
BRANCH  13  14
ATOM     14  C   UNL     1       4.676  -3.409  28.042  0.00  0.00    +0.214 A 
ATOM     15  C   UNL     1       3.297  -3.746  28.542  0.00  0.00    +0.238 A 
ATOM     16  O   UNL     1       2.677  -2.977  29.264  0.00  0.00    -0.283 OA
ATOM     17  C   UNL     1       2.691  -5.020  28.074  0.00  0.00    +0.109 A 
ATOM     18  C   UNL     1       3.513  -5.946  27.447  0.00  0.00    +0.147 A 
ATOM     19  C   UNL     1       3.018  -7.189  27.027  0.00  0.00    +0.092 A 
ATOM     20  C   UNL     1       1.674  -7.485  27.214  0.00  0.00    +0.124 A 
ATOM     21  C   UNL     1       0.824  -6.552  27.789  0.00  0.00    +0.091 A 
ATOM     22  O   UNL     1       4.830  -5.687  27.202  0.00  0.00    -0.451 OA
ATOM     23  C   UNL     1       1.337  -5.326  28.218  0.00  0.00    +0.135 A 
ATOM     24  C   UNL     1       5.303  -4.402  27.372  0.00  0.00    +0.181 A 
BRANCH  24  25
ATOM     25  C   UNL     1       6.513  -4.193  26.567  0.00  0.00    +0.025 A 
ATOM     26  C   UNL     1       6.987  -5.302  25.842  0.00  0.00    +0.015 A 
ATOM     27  C   UNL     1       8.240  -5.273  25.240  0.00  0.00    +0.050 A 
ATOM     28  C   UNL     1       8.952  -4.086  25.229  0.00  0.00    +0.158 A 
ATOM     29  C   UNL     1       8.432  -2.940  25.841  0.00  0.00    +0.162 A 
ATOM     30  C   UNL     1       7.266  -3.016  26.606  0.00  0.00    +0.061 A 
BRANCH  29  31
ATOM     31  O   UNL     1       8.958  -1.691  25.628  0.00  0.00    -0.491 OA
ATOM     32  C   UNL     1       8.786  -0.875  26.798  0.00  0.00    +0.277 C 
ENDBRANCH  29  31
BRANCH  28  33
ATOM     33  O   UNL     1      10.136  -4.028  24.548  0.00  0.00    -0.503 OA
ATOM     34  H   UNL     1      10.570  -3.192  24.790  0.00  0.00    +0.292 HD
ENDBRANCH  28  33
ENDBRANCH  24  25
BRANCH  23  35
ATOM     35  O   UNL     1       0.475  -4.434  28.771  0.00  0.00    -0.506 OA
ATOM     36  H   UNL     1      -0.435  -4.729  28.549  0.00  0.00    +0.292 HD
ENDBRANCH  23  35
BRANCH  20  37
ATOM     37  O   UNL     1       1.142  -8.686  26.851  0.00  0.00    -0.507 OA
ATOM     38  H   UNL     1       1.301  -8.835  25.904  0.00  0.00    +0.292 HD
ENDBRANCH  20  37
ENDBRANCH  13  14
ENDBRANCH   3  13
BRANCH   1  39
ATOM     39  C   UNL     1       5.662   1.596  25.531  0.00  0.00    +0.197 C 
BRANCH  39  40
ATOM     40  O   UNL     1       6.767   2.447  25.207  0.00  0.00    -0.346 OA
BRANCH  40  44
ATOM     41  C   UNL     1      10.909   1.542  24.411  0.00  0.00    +0.041 C 
ATOM     42  C   UNL     1       9.967   2.151  23.370  0.00  0.00    +0.150 C 
ATOM     43  O   UNL     1       8.819   2.750  24.011  0.00  0.00    -0.343 OA
ATOM     44  C   UNL     1       7.849   1.823  24.505  0.00  0.00    +0.283 C 
ATOM     45  C   UNL     1       7.304   0.988  23.317  0.00  0.00    +0.213 C 
ATOM     46  C   UNL     1       8.506   0.170  22.814  0.00  0.00    +0.241 C 
ATOM     47  C   UNL     1       9.598   1.118  22.281  0.00  0.00    +0.186 C 
BRANCH  47  48
ATOM     48  O   UNL     1       9.174   1.794  21.089  0.00  0.00    -0.385 OA
ATOM     49  H   UNL     1       8.750   2.633  21.372  0.00  0.00    +0.210 HD
ENDBRANCH  47  48
BRANCH  45  50
ATOM     50  O   UNL     1       6.803   1.842  22.264  0.00  0.00    -0.383 OA
ATOM     51  H   UNL     1       6.659   1.264  21.490  0.00  0.00    +0.210 HD
ENDBRANCH  45  50
BRANCH  46  52
ATOM     52  O   UNL     1       8.102  -0.833  21.869  0.00  0.00    -0.453 OA
BRANCH  52  53
ATOM     53  C   UNL     1       8.803  -1.989  22.024  0.00  0.00    +0.332 C 
ATOM     54  O   UNL     1       9.997  -2.112  22.253  0.00  0.00    -0.246 OA
BRANCH  53  55
ATOM     55  C   UNL     1       7.855  -3.111  22.104  0.00  0.00    +0.092 C 
ATOM     56  C   UNL     1       6.628  -2.860  22.587  0.00  0.00    +0.015 C 
BRANCH  56  57
ATOM     57  C   UNL     1       5.686  -3.960  22.738  0.00  0.00    -0.021 A 
ATOM     58  C   UNL     1       5.972  -5.229  22.228  0.00  0.00    +0.012 A 
ATOM     59  C   UNL     1       5.102  -6.281  22.492  0.00  0.00    +0.050 A 
ATOM     60  C   UNL     1       3.960  -6.048  23.255  0.00  0.00    +0.158 A 
ATOM     61  C   UNL     1       3.655  -4.775  23.754  0.00  0.00    +0.162 A 
ATOM     62  C   UNL     1       4.521  -3.726  23.476  0.00  0.00    +0.057 A 
BRANCH  61  63
ATOM     63  O   UNL     1       2.513  -4.687  24.505  0.00  0.00    -0.491 OA
ATOM     64  C   UNL     1       2.220  -3.400  25.053  0.00  0.00    +0.277 C 
ENDBRANCH  61  63
BRANCH  60  65
ATOM     65  O   UNL     1       3.138  -7.106  23.529  0.00  0.00    -0.503 OA
ATOM     66  H   UNL     1       3.243  -7.263  24.489  0.00  0.00    +0.292 HD
ENDBRANCH  60  65
ENDBRANCH  56  57
ENDBRANCH  53  55
ENDBRANCH  52  53
ENDBRANCH  46  52
ENDBRANCH  40  44
ENDBRANCH  39  40
ENDBRANCH   1  39
TORSDOF 21
ENDMDL
MODEL 2
REMARK VINA RESULT:      -6.4      2.679      7.978
REMARK  Name = 
REMARK  24 active torsions:
REMARK  status: ('A' for Active; 'I' for Inactive)
REMARK    1  A    between atoms: C_1  and  C_2
REMARK    2  A    between atoms: C_3  and  O_62
REMARK    3  A    between atoms: C_5  and  O_48
REMARK    4  A    between atoms: C_7  and  O_47
REMARK    5  A    between atoms: C_8  and  O_11
REMARK    6  A    between atoms: O_11  and  C_12
REMARK    7  A    between atoms: C_12  and  C_13
REMARK    8  A    between atoms: C_14  and  O_46
REMARK    9  A    between atoms: C_16  and  O_45
REMARK   10  A    between atoms: C_17  and  O_44
REMARK   11  A    between atoms: C_18  and  O_21
REMARK   12  A    between atoms: O_21  and  C_22
REMARK   13  A    between atoms: C_23  and  C_35
REMARK   14  A    between atoms: C_27  and  O_34
REMARK   15  A    between atoms: C_29  and  O_33
REMARK   16  A    between atoms: C_37  and  O_42
REMARK   17  A    between atoms: C_38  and  O_41
REMARK   18  A    between atoms: O_42  and  C_43
REMARK   19  A    between atoms: O_48  and  C_49
REMARK   20  A    between atoms: C_49  and  C_51
REMARK   21  A    between atoms: C_52  and  C_53
REMARK   22  A    between atoms: C_55  and  O_60
REMARK   23  A    between atoms: C_56  and  O_59
REMARK   24  A    between atoms: O_60  and  C_61
REMARK                            x       y       z     vdW  Elec       q    Type
REMARK                         _______ _______ _______ _____ _____    ______ ____
ROOT
ATOM      1  C   UNL     1       8.678  -2.919  24.127  0.00  0.00    +0.179 C 
ATOM      2  O   UNL     1       7.563  -2.703  25.029  0.00  0.00    -0.331 OA
ATOM      3  C   UNL     1       7.711  -3.174  26.384  0.00  0.00    +0.340 C 
ATOM      4  C   UNL     1       8.092  -4.671  26.389  0.00  0.00    +0.214 C 
ATOM      5  C   UNL     1       9.400  -4.843  25.603  0.00  0.00    +0.180 C 
ATOM      6  C   UNL     1       9.232  -4.353  24.159  0.00  0.00    +0.177 C 
ENDROOT
BRANCH   4   7
ATOM      7  O   UNL     1       7.059  -5.465  25.750  0.00  0.00    -0.383 OA
ATOM      8  H   UNL     1       7.245  -6.397  25.975  0.00  0.00    +0.210 HD
ENDBRANCH   4   7
BRANCH   6   9
ATOM      9  O   UNL     1       8.318  -5.215  23.445  0.00  0.00    -0.386 OA
ATOM     10  H   UNL     1       8.861  -5.899  22.998  0.00  0.00    +0.210 HD
ENDBRANCH   6   9
BRANCH   5  11
ATOM     11  O   UNL     1       9.811  -6.216  25.610  0.00  0.00    -0.386 OA
ATOM     12  H   UNL     1      10.481  -6.285  26.318  0.00  0.00    +0.210 HD
ENDBRANCH   5  11
BRANCH   3  13
ATOM     13  O   UNL     1       6.474  -2.968  27.110  0.00  0.00    -0.453 OA
BRANCH  13  14
ATOM     14  C   UNL     1       5.786  -1.746  27.040  0.00  0.00    +0.214 A 
ATOM     15  C   UNL     1       6.421  -0.418  27.352  0.00  0.00    +0.238 A 
ATOM     16  O   UNL     1       7.534  -0.348  27.855  0.00  0.00    -0.283 OA
ATOM     17  C   UNL     1       5.672   0.807  26.968  0.00  0.00    +0.109 A 
ATOM     18  C   UNL     1       4.338   0.675  26.611  0.00  0.00    +0.147 A 
ATOM     19  C   UNL     1       3.557   1.795  26.288  0.00  0.00    +0.092 A 
ATOM     20  C   UNL     1       4.142   3.055  26.294  0.00  0.00    +0.124 A 
ATOM     21  C   UNL     1       5.487   3.202  26.594  0.00  0.00    +0.091 A 
ATOM     22  O   UNL     1       3.728  -0.545  26.549  0.00  0.00    -0.451 OA
ATOM     23  C   UNL     1       6.244   2.079  26.931  0.00  0.00    +0.135 A 
ATOM     24  C   UNL     1       4.502  -1.684  26.619  0.00  0.00    +0.181 A 
BRANCH  24  25
ATOM     25  C   UNL     1       3.802  -2.816  25.999  0.00  0.00    +0.025 A 
ATOM     26  C   UNL     1       2.786  -3.422  26.762  0.00  0.00    +0.015 A 
ATOM     27  C   UNL     1       2.227  -4.631  26.365  0.00  0.00    +0.050 A 
ATOM     28  C   UNL     1       2.568  -5.157  25.131  0.00  0.00    +0.158 A 
ATOM     29  C   UNL     1       3.487  -4.495  24.307  0.00  0.00    +0.162 A 
ATOM     30  C   UNL     1       4.189  -3.386  24.783  0.00  0.00    +0.061 A 
BRANCH  29  31
ATOM     31  O   UNL     1       3.653  -4.819  22.985  0.00  0.00    -0.491 OA
ATOM     32  C   UNL     1       4.820  -5.642  22.819  0.00  0.00    +0.277 C 
ENDBRANCH  29  31
BRANCH  28  33
ATOM     33  O   UNL     1       1.942  -6.290  24.694  0.00  0.00    -0.503 OA
ATOM     34  H   UNL     1       1.993  -6.946  25.410  0.00  0.00    +0.292 HD
ENDBRANCH  28  33
ENDBRANCH  24  25
BRANCH  23  35
ATOM     35  O   UNL     1       7.561   2.260  27.213  0.00  0.00    -0.506 OA
ATOM     36  H   UNL     1       8.067   1.609  26.680  0.00  0.00    +0.292 HD
ENDBRANCH  23  35
BRANCH  20  37
ATOM     37  O   UNL     1       3.429   4.182  26.015  0.00  0.00    -0.507 OA
ATOM     38  H   UNL     1       3.924   4.960  26.320  0.00  0.00    +0.292 HD
ENDBRANCH  20  37
ENDBRANCH  13  14
ENDBRANCH   3  13
BRANCH   1  39
ATOM     39  C   UNL     1       9.774  -1.811  24.112  0.00  0.00    +0.197 C 
BRANCH  39  40
ATOM     40  O   UNL     1       9.642  -0.685  24.987  0.00  0.00    -0.346 OA
BRANCH  40  44
ATOM     41  C   UNL     1       6.304   1.505  23.353  0.00  0.00    +0.041 C 
ATOM     42  C   UNL     1       7.630   1.319  22.613  0.00  0.00    +0.150 C 
ATOM     43  O   UNL     1       8.371   0.209  23.166  0.00  0.00    -0.343 OA
ATOM     44  C   UNL     1       8.988   0.462  24.430  0.00  0.00    +0.283 C 
ATOM     45  C   UNL     1       9.998   1.628  24.271  0.00  0.00    +0.213 C 
ATOM     46  C   UNL     1       9.142   2.858  23.923  0.00  0.00    +0.241 C 
ATOM     47  C   UNL     1       8.434   2.639  22.571  0.00  0.00    +0.186 C 
BRANCH  47  48
ATOM     48  O   UNL     1       9.370   2.608  21.485  0.00  0.00    -0.385 OA
ATOM     49  H   UNL     1       9.747   1.701  21.458  0.00  0.00    +0.210 HD
ENDBRANCH  47  48
BRANCH  45  50
ATOM     50  O   UNL     1      10.943   1.360  23.210  0.00  0.00    -0.383 OA
ATOM     51  H   UNL     1      10.656   0.523  22.796  0.00  0.00    +0.210 HD
ENDBRANCH  45  50
BRANCH  46  52
ATOM     52  O   UNL     1       9.911   4.070  23.981  0.00  0.00    -0.453 OA
BRANCH  52  53
ATOM     53  C   UNL     1       9.122   5.176  23.928  0.00  0.00    +0.332 C 
ATOM     54  O   UNL     1       8.983   5.950  22.992  0.00  0.00    -0.246 OA
BRANCH  53  55
ATOM     55  C   UNL     1       8.251   5.195  25.113  0.00  0.00    +0.092 C 
ATOM     56  C   UNL     1       7.815   6.387  25.551  0.00  0.00    +0.015 C 
BRANCH  56  57
ATOM     57  C   UNL     1       7.003   6.447  26.758  0.00  0.00    -0.021 A 
ATOM     58  C   UNL     1       5.697   6.942  26.723  0.00  0.00    +0.012 A 
ATOM     59  C   UNL     1       4.914   6.876  27.870  0.00  0.00    +0.050 A 
ATOM     60  C   UNL     1       5.448   6.324  29.032  0.00  0.00    +0.158 A 
ATOM     61  C   UNL     1       6.763   5.843  29.080  0.00  0.00    +0.162 A 
ATOM     62  C   UNL     1       7.544   5.923  27.936  0.00  0.00    +0.057 A 
BRANCH  61  63
ATOM     63  O   UNL     1       7.158   5.308  30.278  0.00  0.00    -0.491 OA
ATOM     64  C   UNL     1       7.193   3.881  30.346  0.00  0.00    +0.277 C 
ENDBRANCH  61  63
BRANCH  60  65
ATOM     65  O   UNL     1       4.647   6.240  30.137  0.00  0.00    -0.503 OA
ATOM     66  H   UNL     1       4.369   5.302  30.174  0.00  0.00    +0.292 HD
ENDBRANCH  60  65
ENDBRANCH  56  57
ENDBRANCH  53  55
ENDBRANCH  52  53
ENDBRANCH  46  52
ENDBRANCH  40  44
ENDBRANCH  39  40
ENDBRANCH   1  39
TORSDOF 21
ENDMDL
MODEL 3
REMARK VINA RESULT:      -6.4      2.864      8.466
REMARK  Name = 
REMARK  24 active torsions:
REMARK  status: ('A' for Active; 'I' for Inactive)
REMARK    1  A    between atoms: C_1  and  C_2
REMARK    2  A    between atoms: C_3  and  O_62
REMARK    3  A    between atoms: C_5  and  O_48
REMARK    4  A    between atoms: C_7  and  O_47
REMARK    5  A    between atoms: C_8  and  O_11
REMARK    6  A    between atoms: O_11  and  C_12
REMARK    7  A    between atoms: C_12  and  C_13
REMARK    8  A    between atoms: C_14  and  O_46
REMARK    9  A    between atoms: C_16  and  O_45
REMARK   10  A    between atoms: C_17  and  O_44
REMARK   11  A    between atoms: C_18  and  O_21
REMARK   12  A    between atoms: O_21  and  C_22
REMARK   13  A    between atoms: C_23  and  C_35
REMARK   14  A    between atoms: C_27  and  O_34
REMARK   15  A    between atoms: C_29  and  O_33
REMARK   16  A    between atoms: C_37  and  O_42
REMARK   17  A    between atoms: C_38  and  O_41
REMARK   18  A    between atoms: O_42  and  C_43
REMARK   19  A    between atoms: O_48  and  C_49
REMARK   20  A    between atoms: C_49  and  C_51
REMARK   21  A    between atoms: C_52  and  C_53
REMARK   22  A    between atoms: C_55  and  O_60
REMARK   23  A    between atoms: C_56  and  O_59
REMARK   24  A    between atoms: O_60  and  C_61
REMARK                            x       y       z     vdW  Elec       q    Type
REMARK                         _______ _______ _______ _____ _____    ______ ____
ROOT
ATOM      1  C   UNL     1       7.873  -1.445  24.325  0.00  0.00    +0.179 C 
ATOM      2  O   UNL     1       8.047  -0.030  24.589  0.00  0.00    -0.331 OA
ATOM      3  C   UNL     1       8.321   0.823  23.460  0.00  0.00    +0.340 C 
ATOM      4  C   UNL     1       9.542   0.293  22.677  0.00  0.00    +0.214 C 
ATOM      5  C   UNL     1       9.243  -1.142  22.220  0.00  0.00    +0.180 C 
ATOM      6  C   UNL     1       8.966  -2.047  23.427  0.00  0.00    +0.177 C 
ENDROOT
BRANCH   4   7
ATOM      7  O   UNL     1      10.724   0.276  23.520  0.00  0.00    -0.383 OA
ATOM      8  H   UNL     1      10.839  -0.646  23.819  0.00  0.00    +0.210 HD
ENDBRANCH   4   7
BRANCH   6   9
ATOM      9  O   UNL     1      10.168  -2.209  24.213  0.00  0.00    -0.386 OA
ATOM     10  H   UNL     1      10.027  -2.987  24.794  0.00  0.00    +0.210 HD
ENDBRANCH   6   9
BRANCH   5  11
ATOM     11  O   UNL     1      10.339  -1.663  21.458  0.00  0.00    -0.386 OA
ATOM     12  H   UNL     1       9.936  -2.241  20.780  0.00  0.00    +0.210 HD
ENDBRANCH   5  11
BRANCH   3  13
ATOM     13  O   UNL     1       8.566   2.176  23.918  0.00  0.00    -0.453 OA
BRANCH  13  14
ATOM     14  C   UNL     1       7.550   3.145  23.896  0.00  0.00    +0.214 A 
ATOM     15  C   UNL     1       6.083   2.807  23.903  0.00  0.00    +0.238 A 
ATOM     16  O   UNL     1       5.695   1.657  23.752  0.00  0.00    -0.283 OA
ATOM     17  C   UNL     1       5.127   3.915  24.163  0.00  0.00    +0.109 A 
ATOM     18  C   UNL     1       5.601   5.218  24.105  0.00  0.00    +0.147 A 
ATOM     19  C   UNL     1       4.743   6.312  24.289  0.00  0.00    +0.092 A 
ATOM     20  C   UNL     1       3.401   6.084  24.567  0.00  0.00    +0.124 A 
ATOM     21  C   UNL     1       2.918   4.790  24.683  0.00  0.00    +0.091 A 
ATOM     22  O   UNL     1       6.918   5.494  23.878  0.00  0.00    -0.451 OA
ATOM     23  C   UNL     1       3.783   3.713  24.478  0.00  0.00    +0.135 A 
ATOM     24  C   UNL     1       7.836   4.466  23.932  0.00  0.00    +0.181 A 
BRANCH  24  25
ATOM     25  C   UNL     1       9.176   4.993  24.218  0.00  0.00    +0.025 A 
ATOM     26  C   UNL     1       9.269   5.962  25.234  0.00  0.00    +0.015 A 
ATOM     27  C   UNL     1      10.442   6.683  25.421  0.00  0.00    +0.050 A 
ATOM     28  C   UNL     1      11.570   6.331  24.701  0.00  0.00    +0.158 A 
ATOM     29  C   UNL     1      11.521   5.282  23.775  0.00  0.00    +0.162 A 
ATOM     30  C   UNL     1      10.302   4.684  23.449  0.00  0.00    +0.061 A 
BRANCH  29  31
ATOM     31  O   UNL     1      12.653   4.720  23.242  0.00  0.00    -0.491 OA
ATOM     32  C   UNL     1      13.239   5.606  22.274  0.00  0.00    +0.277 C 
ENDBRANCH  29  31
BRANCH  28  33
ATOM     33  O   UNL     1      12.750   6.969  24.958  0.00  0.00    -0.503 OA
ATOM     34  H   UNL     1      13.389   6.296  25.249  0.00  0.00    +0.292 HD
ENDBRANCH  28  33
ENDBRANCH  24  25
BRANCH  23  35
ATOM     35  O   UNL     1       3.278   2.458  24.606  0.00  0.00    -0.506 OA
ATOM     36  H   UNL     1       2.427   2.532  25.092  0.00  0.00    +0.292 HD
ENDBRANCH  23  35
BRANCH  20  37
ATOM     37  O   UNL     1       2.514   7.107  24.729  0.00  0.00    -0.507 OA
ATOM     38  H   UNL     1       1.952   7.174  23.938  0.00  0.00    +0.292 HD
ENDBRANCH  20  37
ENDBRANCH  13  14
ENDBRANCH   3  13
BRANCH   1  39
ATOM     39  C   UNL     1       6.428  -1.903  23.965  0.00  0.00    +0.197 C 
BRANCH  39  40
ATOM     40  O   UNL     1       5.319  -1.357  24.689  0.00  0.00    -0.346 OA
BRANCH  40  44
ATOM     41  C   UNL     1       2.101  -3.682  26.374  0.00  0.00    +0.041 C 
ATOM     42  C   UNL     1       2.834  -2.582  27.143  0.00  0.00    +0.150 C 
ATOM     43  O   UNL     1       3.521  -1.695  26.232  0.00  0.00    -0.343 OA
ATOM     44  C   UNL     1       4.712  -2.229  25.649  0.00  0.00    +0.283 C 
ATOM     45  C   UNL     1       5.718  -2.563  26.780  0.00  0.00    +0.213 C 
ATOM     46  C   UNL     1       5.056  -3.692  27.589  0.00  0.00    +0.241 C 
ATOM     47  C   UNL     1       3.753  -3.180  28.233  0.00  0.00    +0.186 C 
BRANCH  47  48
ATOM     48  O   UNL     1       4.014  -2.199  29.246  0.00  0.00    -0.385 OA
ATOM     49  H   UNL     1       3.962  -2.661  30.111  0.00  0.00    +0.210 HD
ENDBRANCH  47  48
BRANCH  45  50
ATOM     50  O   UNL     1       5.954  -1.414  27.625  0.00  0.00    -0.383 OA
ATOM     51  H   UNL     1       5.148  -1.302  28.164  0.00  0.00    +0.210 HD
ENDBRANCH  45  50
BRANCH  46  52
ATOM     52  O   UNL     1       5.973  -4.275  28.528  0.00  0.00    -0.453 OA
BRANCH  52  53
ATOM     53  C   UNL     1       6.432  -5.484  28.107  0.00  0.00    +0.332 C 
ATOM     54  O   UNL     1       6.890  -6.388  28.790  0.00  0.00    -0.246 OA
BRANCH  53  55
ATOM     55  C   UNL     1       6.084  -5.655  26.688  0.00  0.00    +0.092 C 
ATOM     56  C   UNL     1       7.016  -5.343  25.773  0.00  0.00    +0.015 C 
BRANCH  56  57
ATOM     57  C   UNL     1       6.684  -5.441  24.359  0.00  0.00    -0.021 A 
ATOM     58  C   UNL     1       7.684  -5.457  23.383  0.00  0.00    +0.012 A 
ATOM     59  C   UNL     1       7.334  -5.667  22.054  0.00  0.00    +0.050 A 
ATOM     60  C   UNL     1       5.995  -5.853  21.721  0.00  0.00    +0.158 A 
ATOM     61  C   UNL     1       4.984  -5.820  22.690  0.00  0.00    +0.162 A 
ATOM     62  C   UNL     1       5.337  -5.596  24.013  0.00  0.00    +0.057 A 
BRANCH  61  63
ATOM     63  O   UNL     1       3.711  -6.037  22.232  0.00  0.00    -0.491 OA
ATOM     64  C   UNL     1       2.657  -5.769  23.158  0.00  0.00    +0.277 C 
ENDBRANCH  61  63
BRANCH  60  65
ATOM     65  O   UNL     1       5.680  -6.093  20.411  0.00  0.00    -0.503 OA
ATOM     66  H   UNL     1       6.409  -6.652  20.076  0.00  0.00    +0.292 HD
ENDBRANCH  60  65
ENDBRANCH  56  57
ENDBRANCH  53  55
ENDBRANCH  52  53
ENDBRANCH  46  52
ENDBRANCH  40  44
ENDBRANCH  39  40
ENDBRANCH   1  39
TORSDOF 21
ENDMDL
MODEL 4
REMARK VINA RESULT:      -6.3      2.244      8.778
REMARK  Name = 
REMARK  24 active torsions:
REMARK  status: ('A' for Active; 'I' for Inactive)
REMARK    1  A    between atoms: C_1  and  C_2
REMARK    2  A    between atoms: C_3  and  O_62
REMARK    3  A    between atoms: C_5  and  O_48
REMARK    4  A    between atoms: C_7  and  O_47
REMARK    5  A    between atoms: C_8  and  O_11
REMARK    6  A    between atoms: O_11  and  C_12
REMARK    7  A    between atoms: C_12  and  C_13
REMARK    8  A    between atoms: C_14  and  O_46
REMARK    9  A    between atoms: C_16  and  O_45
REMARK   10  A    between atoms: C_17  and  O_44
REMARK   11  A    between atoms: C_18  and  O_21
REMARK   12  A    between atoms: O_21  and  C_22
REMARK   13  A    between atoms: C_23  and  C_35
REMARK   14  A    between atoms: C_27  and  O_34
REMARK   15  A    between atoms: C_29  and  O_33
REMARK   16  A    between atoms: C_37  and  O_42
REMARK   17  A    between atoms: C_38  and  O_41
REMARK   18  A    between atoms: O_42  and  C_43
REMARK   19  A    between atoms: O_48  and  C_49
REMARK   20  A    between atoms: C_49  and  C_51
REMARK   21  A    between atoms: C_52  and  C_53
REMARK   22  A    between atoms: C_55  and  O_60
REMARK   23  A    between atoms: C_56  and  O_59
REMARK   24  A    between atoms: O_60  and  C_61
REMARK                            x       y       z     vdW  Elec       q    Type
REMARK                         _______ _______ _______ _____ _____    ______ ____
ROOT
ATOM      1  C   UNL     1       3.962  -2.107  27.093  0.00  0.00    +0.179 C 
ATOM      2  O   UNL     1       4.374  -1.373  25.912  0.00  0.00    -0.331 OA
ATOM      3  C   UNL     1       5.012  -0.097  26.118  0.00  0.00    +0.340 C 
ATOM      4  C   UNL     1       4.123   0.807  27.000  0.00  0.00    +0.214 C 
ATOM      5  C   UNL     1       3.877   0.093  28.337  0.00  0.00    +0.180 C 
ATOM      6  C   UNL     1       3.186  -1.257  28.112  0.00  0.00    +0.177 C 
ENDROOT
BRANCH   4   7
ATOM      7  O   UNL     1       2.842   1.047  26.360  0.00  0.00    -0.383 OA
ATOM      8  H   UNL     1       2.281   0.273  26.560  0.00  0.00    +0.210 HD
ENDBRANCH   4   7
BRANCH   6   9
ATOM      9  O   UNL     1       1.845  -1.051  27.612  0.00  0.00    -0.386 OA
ATOM     10  H   UNL     1       1.346  -0.587  28.318  0.00  0.00    +0.210 HD
ENDBRANCH   6   9
BRANCH   5  11
ATOM     11  O   UNL     1       3.082   0.913  29.203  0.00  0.00    -0.386 OA
ATOM     12  H   UNL     1       3.642   1.089  29.985  0.00  0.00    +0.210 HD
ENDBRANCH   5  11
BRANCH   3  13
ATOM     13  O   UNL     1       5.262   0.537  24.839  0.00  0.00    -0.453 OA
BRANCH  13  14
ATOM     14  C   UNL     1       6.364   1.386  24.653  0.00  0.00    +0.214 A 
ATOM     15  C   UNL     1       7.792   0.914  24.713  0.00  0.00    +0.238 A 
ATOM     16  O   UNL     1       8.074  -0.211  25.103  0.00  0.00    -0.283 OA
ATOM     17  C   UNL     1       8.842   1.844  24.222  0.00  0.00    +0.109 A 
ATOM     18  C   UNL     1       8.494   3.170  24.003  0.00  0.00    +0.147 A 
ATOM     19  C   UNL     1       9.447   4.112  23.589  0.00  0.00    +0.092 A 
ATOM     20  C   UNL     1      10.755   3.703  23.362  0.00  0.00    +0.124 A 
ATOM     21  C   UNL     1      11.110   2.372  23.522  0.00  0.00    +0.091 A 
ATOM     22  O   UNL     1       7.214   3.614  24.171  0.00  0.00    -0.451 OA
ATOM     23  C   UNL     1      10.153   1.451  23.952  0.00  0.00    +0.135 A 
ATOM     24  C   UNL     1       6.203   2.691  24.338  0.00  0.00    +0.181 A 
BRANCH  24  25
ATOM     25  C   UNL     1       4.912   3.273  23.951  0.00  0.00    +0.025 A 
ATOM     26  C   UNL     1       4.179   3.913  24.969  0.00  0.00    +0.015 A 
ATOM     27  C   UNL     1       2.857   4.289  24.761  0.00  0.00    +0.050 A 
ATOM     28  C   UNL     1       2.316   4.169  23.493  0.00  0.00    +0.158 A 
ATOM     29  C   UNL     1       3.079   3.648  22.441  0.00  0.00    +0.162 A 
ATOM     30  C   UNL     1       4.337   3.096  22.689  0.00  0.00    +0.061 A 
BRANCH  29  31
ATOM     31  O   UNL     1       2.693   3.759  21.130  0.00  0.00    -0.491 OA
ATOM     32  C   UNL     1       1.926   2.608  20.740  0.00  0.00    +0.277 C 
ENDBRANCH  29  31
BRANCH  28  33
ATOM     33  O   UNL     1       1.052   4.635  23.263  0.00  0.00    -0.503 OA
ATOM     34  H   UNL     1       0.838   5.263  23.974  0.00  0.00    +0.292 HD
ENDBRANCH  28  33
ENDBRANCH  24  25
BRANCH  23  35
ATOM     35  O   UNL     1      10.535   0.155  24.091  0.00  0.00    -0.506 OA
ATOM     36  H   UNL     1      11.412   0.059  23.658  0.00  0.00    +0.292 HD
ENDBRANCH  23  35
BRANCH  20  37
ATOM     37  O   UNL     1      11.729   4.577  22.985  0.00  0.00    -0.507 OA
ATOM     38  H   UNL     1      12.223   4.205  22.234  0.00  0.00    +0.292 HD
ENDBRANCH  20  37
ENDBRANCH  13  14
ENDBRANCH   3  13
BRANCH   1  39
ATOM     39  C   UNL     1       5.033  -3.044  27.727  0.00  0.00    +0.197 C 
BRANCH  39  40
ATOM     40  O   UNL     1       4.665  -4.377  28.100  0.00  0.00    -0.346 OA
BRANCH  40  44
ATOM     41  C   UNL     1       0.443  -4.764  27.305  0.00  0.00    +0.041 C 
ATOM     42  C   UNL     1       1.332  -5.940  27.715  0.00  0.00    +0.150 C 
ATOM     43  O   UNL     1       2.547  -5.466  28.338  0.00  0.00    -0.343 OA
ATOM     44  C   UNL     1       3.511  -4.912  27.440  0.00  0.00    +0.283 C 
ATOM     45  C   UNL     1       3.935  -6.002  26.423  0.00  0.00    +0.213 C 
ATOM     46  C   UNL     1       2.667  -6.306  25.606  0.00  0.00    +0.241 C 
ATOM     47  C   UNL     1       1.579  -6.894  26.525  0.00  0.00    +0.186 C 
BRANCH  47  48
ATOM     48  O   UNL     1       1.943  -8.195  27.007  0.00  0.00    -0.385 OA
ATOM     49  H   UNL     1       1.328  -8.410  27.742  0.00  0.00    +0.210 HD
ENDBRANCH  47  48
BRANCH  45  50
ATOM     50  O   UNL     1       4.393  -7.196  27.097  0.00  0.00    -0.383 OA
ATOM     51  H   UNL     1       3.592  -7.709  27.317  0.00  0.00    +0.210 HD
ENDBRANCH  45  50
BRANCH  46  52
ATOM     52  O   UNL     1       2.961  -7.124  24.462  0.00  0.00    -0.453 OA
BRANCH  52  53
ATOM     53  C   UNL     1       2.825  -6.436  23.296  0.00  0.00    +0.332 C 
ATOM     54  O   UNL     1       1.891  -6.479  22.509  0.00  0.00    -0.246 OA
BRANCH  53  55
ATOM     55  C   UNL     1       3.890  -5.425  23.216  0.00  0.00    +0.092 C 
ATOM     56  C   UNL     1       5.123  -5.840  22.884  0.00  0.00    +0.015 C 
BRANCH  56  57
ATOM     57  C   UNL     1       6.213  -4.875  22.855  0.00  0.00    -0.021 A 
ATOM     58  C   UNL     1       6.097  -3.678  22.145  0.00  0.00    +0.012 A 
ATOM     59  C   UNL     1       7.112  -2.732  22.235  0.00  0.00    +0.050 A 
ATOM     60  C   UNL     1       8.227  -2.999  23.027  0.00  0.00    +0.158 A 
ATOM     61  C   UNL     1       8.360  -4.204  23.728  0.00  0.00    +0.162 A 
ATOM     62  C   UNL     1       7.350  -5.150  23.624  0.00  0.00    +0.057 A 
BRANCH  61  63
ATOM     63  O   UNL     1       9.494  -4.332  24.485  0.00  0.00    -0.491 OA
ATOM     64  C   UNL     1       9.319  -4.892  25.788  0.00  0.00    +0.277 C 
ENDBRANCH  61  63
BRANCH  60  65
ATOM     65  O   UNL     1       9.195  -2.038  23.127  0.00  0.00    -0.503 OA
ATOM     66  H   UNL     1       9.133  -1.531  22.293  0.00  0.00    +0.292 HD
ENDBRANCH  60  65
ENDBRANCH  56  57
ENDBRANCH  53  55
ENDBRANCH  52  53
ENDBRANCH  46  52
ENDBRANCH  40  44
ENDBRANCH  39  40
ENDBRANCH   1  39
TORSDOF 21
ENDMDL
MODEL 5
REMARK VINA RESULT:      -6.2      2.687      7.569
REMARK  Name = 
REMARK  24 active torsions:
REMARK  status: ('A' for Active; 'I' for Inactive)
REMARK    1  A    between atoms: C_1  and  C_2
REMARK    2  A    between atoms: C_3  and  O_62
REMARK    3  A    between atoms: C_5  and  O_48
REMARK    4  A    between atoms: C_7  and  O_47
REMARK    5  A    between atoms: C_8  and  O_11
REMARK    6  A    between atoms: O_11  and  C_12
REMARK    7  A    between atoms: C_12  and  C_13
REMARK    8  A    between atoms: C_14  and  O_46
REMARK    9  A    between atoms: C_16  and  O_45
REMARK   10  A    between atoms: C_17  and  O_44
REMARK   11  A    between atoms: C_18  and  O_21
REMARK   12  A    between atoms: O_21  and  C_22
REMARK   13  A    between atoms: C_23  and  C_35
REMARK   14  A    between atoms: C_27  and  O_34
REMARK   15  A    between atoms: C_29  and  O_33
REMARK   16  A    between atoms: C_37  and  O_42
REMARK   17  A    between atoms: C_38  and  O_41
REMARK   18  A    between atoms: O_42  and  C_43
REMARK   19  A    between atoms: O_48  and  C_49
REMARK   20  A    between atoms: C_49  and  C_51
REMARK   21  A    between atoms: C_52  and  C_53
REMARK   22  A    between atoms: C_55  and  O_60
REMARK   23  A    between atoms: C_56  and  O_59
REMARK   24  A    between atoms: O_60  and  C_61
REMARK                            x       y       z     vdW  Elec       q    Type
REMARK                         _______ _______ _______ _____ _____    ______ ____
ROOT
ATOM      1  C   UNL     1       8.200  -3.097  24.069  0.00  0.00    +0.179 C 
ATOM      2  O   UNL     1       7.118  -2.850  25.002  0.00  0.00    -0.331 OA
ATOM      3  C   UNL     1       7.320  -3.262  26.368  0.00  0.00    +0.340 C 
ATOM      4  C   UNL     1       7.713  -4.754  26.422  0.00  0.00    +0.214 C 
ATOM      5  C   UNL     1       8.992  -4.952  25.595  0.00  0.00    +0.180 C 
ATOM      6  C   UNL     1       8.766  -4.525  24.140  0.00  0.00    +0.177 C 
ENDROOT
BRANCH   4   7
ATOM      7  O   UNL     1       6.663  -5.582  25.857  0.00  0.00    -0.383 OA
ATOM      8  H   UNL     1       5.932  -4.980  25.618  0.00  0.00    +0.210 HD
ENDBRANCH   4   7
BRANCH   6   9
ATOM      9  O   UNL     1       7.833  -5.422  23.497  0.00  0.00    -0.386 OA
ATOM     10  H   UNL     1       7.229  -4.867  22.957  0.00  0.00    +0.210 HD
ENDBRANCH   6   9
BRANCH   5  11
ATOM     11  O   UNL     1       9.414  -6.320  25.645  0.00  0.00    -0.386 OA
ATOM     12  H   UNL     1       8.881  -6.734  26.352  0.00  0.00    +0.210 HD
ENDBRANCH   5  11
BRANCH   3  13
ATOM     13  O   UNL     1       6.110  -3.033  27.132  0.00  0.00    -0.453 OA
BRANCH  13  14
ATOM     14  C   UNL     1       5.435  -1.803  27.072  0.00  0.00    +0.214 A 
ATOM     15  C   UNL     1       6.101  -0.479  27.334  0.00  0.00    +0.238 A 
ATOM     16  O   UNL     1       7.236  -0.417  27.788  0.00  0.00    -0.283 OA
ATOM     17  C   UNL     1       5.352   0.750  26.964  0.00  0.00    +0.109 A 
ATOM     18  C   UNL     1       4.002   0.631  26.666  0.00  0.00    +0.147 A 
ATOM     19  C   UNL     1       3.223   1.756  26.359  0.00  0.00    +0.092 A 
ATOM     20  C   UNL     1       3.824   3.008  26.320  0.00  0.00    +0.124 A 
ATOM     21  C   UNL     1       5.183   3.142  26.559  0.00  0.00    +0.091 A 
ATOM     22  O   UNL     1       3.374  -0.581  26.650  0.00  0.00    -0.451 OA
ATOM     23  C   UNL     1       5.939   2.013  26.882  0.00  0.00    +0.135 A 
ATOM     24  C   UNL     1       4.136  -1.730  26.705  0.00  0.00    +0.181 A 
BRANCH  24  25
ATOM     25  C   UNL     1       3.394  -2.861  26.134  0.00  0.00    +0.025 A 
ATOM     26  C   UNL     1       2.415  -3.451  26.955  0.00  0.00    +0.015 A 
ATOM     27  C   UNL     1       1.826  -4.659  26.601  0.00  0.00    +0.050 A 
ATOM     28  C   UNL     1       2.097  -5.199  25.356  0.00  0.00    +0.158 A 
ATOM     29  C   UNL     1       2.977  -4.553  24.478  0.00  0.00    +0.162 A 
ATOM     30  C   UNL     1       3.712  -3.446  24.905  0.00  0.00    +0.061 A 
BRANCH  29  31
ATOM     31  O   UNL     1       3.071  -4.891  23.152  0.00  0.00    -0.491 OA
ATOM     32  C   UNL     1       4.274  -5.640  22.915  0.00  0.00    +0.277 C 
ENDBRANCH  29  31
BRANCH  28  33
ATOM     33  O   UNL     1       1.440  -6.331  24.963  0.00  0.00    -0.503 OA
ATOM     34  H   UNL     1       2.096  -6.927  24.564  0.00  0.00    +0.292 HD
ENDBRANCH  28  33
ENDBRANCH  24  25
BRANCH  23  35
ATOM     35  O   UNL     1       7.269   2.180  27.104  0.00  0.00    -0.506 OA
ATOM     36  H   UNL     1       7.365   2.724  27.916  0.00  0.00    +0.292 HD
ENDBRANCH  23  35
BRANCH  20  37
ATOM     37  O   UNL     1       3.115   4.141  26.053  0.00  0.00    -0.507 OA
ATOM     38  H   UNL     1       3.655   4.918  26.273  0.00  0.00    +0.292 HD
ENDBRANCH  20  37
ENDBRANCH  13  14
ENDBRANCH   3  13
BRANCH   1  39
ATOM     39  C   UNL     1       9.286  -1.984  23.966  0.00  0.00    +0.197 C 
BRANCH  39  40
ATOM     40  O   UNL     1       9.189  -0.831  24.810  0.00  0.00    -0.346 OA
BRANCH  40  44
ATOM     41  C   UNL     1       6.946   1.890  22.325  0.00  0.00    +0.041 C 
ATOM     42  C   UNL     1       8.394   1.490  22.037  0.00  0.00    +0.150 C 
ATOM     43  O   UNL     1       8.732   0.269  22.733  0.00  0.00    -0.343 OA
ATOM     44  C   UNL     1       8.938   0.411  24.141  0.00  0.00    +0.283 C 
ATOM     45  C   UNL     1      10.114   1.393  24.378  0.00  0.00    +0.213 C 
ATOM     46  C   UNL     1       9.621   2.750  23.847  0.00  0.00    +0.241 C 
ATOM     47  C   UNL     1       9.364   2.657  22.330  0.00  0.00    +0.186 C 
BRANCH  47  48
ATOM     48  O   UNL     1      10.584   2.474  21.599  0.00  0.00    -0.385 OA
ATOM     49  H   UNL     1      10.568   3.112  20.853  0.00  0.00    +0.210 HD
ENDBRANCH  47  48
BRANCH  45  50
ATOM     50  O   UNL     1      11.298   0.976  23.661  0.00  0.00    -0.383 OA
ATOM     51  H   UNL     1      11.012   0.264  23.056  0.00  0.00    +0.210 HD
ENDBRANCH  45  50
BRANCH  46  52
ATOM     52  O   UNL     1      10.510   3.816  24.217  0.00  0.00    -0.453 OA
BRANCH  52  53
ATOM     53  C   UNL     1      10.022   5.033  23.855  0.00  0.00    +0.332 C 
ATOM     54  O   UNL     1      10.610   5.928  23.265  0.00  0.00    -0.246 OA
BRANCH  53  55
ATOM     55  C   UNL     1       8.568   5.047  24.078  0.00  0.00    +0.092 C 
ATOM     56  C   UNL     1       7.841   5.958  23.412  0.00  0.00    +0.015 C 
BRANCH  56  57
ATOM     57  C   UNL     1       6.408   6.040  23.656  0.00  0.00    -0.021 A 
ATOM     58  C   UNL     1       5.888   6.925  24.604  0.00  0.00    +0.012 A 
ATOM     59  C   UNL     1       4.509   7.056  24.727  0.00  0.00    +0.050 A 
ATOM     60  C   UNL     1       3.674   6.301  23.907  0.00  0.00    +0.158 A 
ATOM     61  C   UNL     1       4.187   5.398  22.967  0.00  0.00    +0.162 A 
ATOM     62  C   UNL     1       5.564   5.260  22.858  0.00  0.00    +0.057 A 
BRANCH  61  63
ATOM     63  O   UNL     1       3.258   4.732  22.211  0.00  0.00    -0.491 OA
ATOM     64  C   UNL     1       3.124   3.334  22.471  0.00  0.00    +0.277 C 
ENDBRANCH  61  63
BRANCH  60  65
ATOM     65  O   UNL     1       2.323   6.474  24.024  0.00  0.00    -0.503 OA
ATOM     66  H   UNL     1       2.207   7.425  24.222  0.00  0.00    +0.292 HD
ENDBRANCH  60  65
ENDBRANCH  56  57
ENDBRANCH  53  55
ENDBRANCH  52  53
ENDBRANCH  46  52
ENDBRANCH  40  44
ENDBRANCH  39  40
ENDBRANCH   1  39
TORSDOF 21
ENDMDL
MODEL 6
REMARK VINA RESULT:      -6.2      2.635      6.424
REMARK  Name = 
REMARK  24 active torsions:
REMARK  status: ('A' for Active; 'I' for Inactive)
REMARK    1  A    between atoms: C_1  and  C_2
REMARK    2  A    between atoms: C_3  and  O_62
REMARK    3  A    between atoms: C_5  and  O_48
REMARK    4  A    between atoms: C_7  and  O_47
REMARK    5  A    between atoms: C_8  and  O_11
REMARK    6  A    between atoms: O_11  and  C_12
REMARK    7  A    between atoms: C_12  and  C_13
REMARK    8  A    between atoms: C_14  and  O_46
REMARK    9  A    between atoms: C_16  and  O_45
REMARK   10  A    between atoms: C_17  and  O_44
REMARK   11  A    between atoms: C_18  and  O_21
REMARK   12  A    between atoms: O_21  and  C_22
REMARK   13  A    between atoms: C_23  and  C_35
REMARK   14  A    between atoms: C_27  and  O_34
REMARK   15  A    between atoms: C_29  and  O_33
REMARK   16  A    between atoms: C_37  and  O_42
REMARK   17  A    between atoms: C_38  and  O_41
REMARK   18  A    between atoms: O_42  and  C_43
REMARK   19  A    between atoms: O_48  and  C_49
REMARK   20  A    between atoms: C_49  and  C_51
REMARK   21  A    between atoms: C_52  and  C_53
REMARK   22  A    between atoms: C_55  and  O_60
REMARK   23  A    between atoms: C_56  and  O_59
REMARK   24  A    between atoms: O_60  and  C_61
REMARK                            x       y       z     vdW  Elec       q    Type
REMARK                         _______ _______ _______ _____ _____    ______ ____
ROOT
ATOM      1  C   UNL     1       5.675   1.599  25.976  0.00  0.00    +0.179 C 
ATOM      2  O   UNL     1       5.790   0.175  26.228  0.00  0.00    -0.331 OA
ATOM      3  C   UNL     1       5.776  -0.254  27.604  0.00  0.00    +0.340 C 
ATOM      4  C   UNL     1       6.860   0.498  28.408  0.00  0.00    +0.214 C 
ATOM      5  C   UNL     1       6.588   2.006  28.300  0.00  0.00    +0.180 C 
ATOM      6  C   UNL     1       6.618   2.458  26.835  0.00  0.00    +0.177 C 
ENDROOT
BRANCH   4   7
ATOM      7  O   UNL     1       8.179   0.225  27.869  0.00  0.00    -0.383 OA
ATOM      8  H   UNL     1       8.343   0.896  27.179  0.00  0.00    +0.210 HD
ENDBRANCH   4   7
BRANCH   6   9
ATOM      9  O   UNL     1       7.958   2.340  26.306  0.00  0.00    -0.386 OA
ATOM     10  H   UNL     1       7.889   1.836  25.466  0.00  0.00    +0.210 HD
ENDBRANCH   6   9
BRANCH   5  11
ATOM     11  O   UNL     1       7.552   2.744  29.061  0.00  0.00    -0.386 OA
ATOM     12  H   UNL     1       8.189   3.095  28.407  0.00  0.00    +0.210 HD
ENDBRANCH   5  11
BRANCH   3  13
ATOM     13  O   UNL     1       6.001  -1.683  27.673  0.00  0.00    -0.453 OA
BRANCH  13  14
ATOM     14  C   UNL     1       5.887  -2.492  26.531  0.00  0.00    +0.214 A 
ATOM     15  C   UNL     1       7.046  -2.812  25.624  0.00  0.00    +0.238 A 
ATOM     16  O   UNL     1       8.120  -2.238  25.738  0.00  0.00    -0.283 OA
ATOM     17  C   UNL     1       6.854  -3.895  24.625  0.00  0.00    +0.109 A 
ATOM     18  C   UNL     1       5.565  -4.352  24.392  0.00  0.00    +0.147 A 
ATOM     19  C   UNL     1       5.306  -5.336  23.426  0.00  0.00    +0.092 A 
ATOM     20  C   UNL     1       6.365  -5.886  22.714  0.00  0.00    +0.124 A 
ATOM     21  C   UNL     1       7.666  -5.483  22.971  0.00  0.00    +0.091 A 
ATOM     22  O   UNL     1       4.495  -3.875  25.093  0.00  0.00    -0.451 OA
ATOM     23  C   UNL     1       7.904  -4.489  23.923  0.00  0.00    +0.135 A 
ATOM     24  C   UNL     1       4.721  -3.095  26.208  0.00  0.00    +0.181 A 
BRANCH  24  25
ATOM     25  C   UNL     1       3.563  -3.146  27.110  0.00  0.00    +0.025 A 
ATOM     26  C   UNL     1       2.670  -2.059  27.050  0.00  0.00    +0.015 A 
ATOM     27  C   UNL     1       1.681  -1.902  28.013  0.00  0.00    +0.050 A 
ATOM     28  C   UNL     1       1.482  -2.907  28.943  0.00  0.00    +0.158 A 
ATOM     29  C   UNL     1       2.286  -4.053  28.933  0.00  0.00    +0.162 A 
ATOM     30  C   UNL     1       3.398  -4.127  28.091  0.00  0.00    +0.061 A 
BRANCH  29  31
ATOM     31  O   UNL     1       1.964  -5.182  29.642  0.00  0.00    -0.491 OA
ATOM     32  C   UNL     1       2.645  -6.323  29.094  0.00  0.00    +0.277 C 
ENDBRANCH  29  31
BRANCH  28  33
ATOM     33  O   UNL     1       0.443  -2.802  29.825  0.00  0.00    -0.503 OA
ATOM     34  H   UNL     1      -0.352  -3.144  29.381  0.00  0.00    +0.292 HD
ENDBRANCH  28  33
ENDBRANCH  24  25
BRANCH  23  35
ATOM     35  O   UNL     1       9.192  -4.123  24.154  0.00  0.00    -0.506 OA
ATOM     36  H   UNL     1       9.549  -4.725  24.842  0.00  0.00    +0.292 HD
ENDBRANCH  23  35
BRANCH  20  37
ATOM     37  O   UNL     1       6.173  -6.825  21.746  0.00  0.00    -0.507 OA
ATOM     38  H   UNL     1       6.983  -7.353  21.645  0.00  0.00    +0.292 HD
ENDBRANCH  20  37
ENDBRANCH  13  14
ENDBRANCH   3  13
BRANCH   1  39
ATOM     39  C   UNL     1       4.227   2.161  25.860  0.00  0.00    +0.197 C 
BRANCH  39  40
ATOM     40  O   UNL     1       3.762   2.643  24.594  0.00  0.00    -0.346 OA
BRANCH  40  44
ATOM     41  C   UNL     1       3.624   6.909  25.221  0.00  0.00    +0.041 C 
ATOM     42  C   UNL     1       3.187   6.237  23.918  0.00  0.00    +0.150 C 
ATOM     43  O   UNL     1       2.914   4.835  24.135  0.00  0.00    -0.343 OA
ATOM     44  C   UNL     1       4.072   4.011  24.298  0.00  0.00    +0.283 C 
ATOM     45  C   UNL     1       4.933   4.097  23.011  0.00  0.00    +0.213 C 
ATOM     46  C   UNL     1       5.414   5.557  22.945  0.00  0.00    +0.241 C 
ATOM     47  C   UNL     1       4.206   6.500  22.785  0.00  0.00    +0.186 C 
BRANCH  47  48
ATOM     48  O   UNL     1       3.573   6.335  21.509  0.00  0.00    -0.385 OA
ATOM     49  H   UNL     1       2.611   6.234  21.678  0.00  0.00    +0.210 HD
ENDBRANCH  47  48
BRANCH  45  50
ATOM     50  O   UNL     1       4.154   3.773  21.837  0.00  0.00    -0.383 OA
ATOM     51  H   UNL     1       4.357   2.842  21.625  0.00  0.00    +0.210 HD
ENDBRANCH  45  50
BRANCH  46  52
ATOM     52  O   UNL     1       6.422   5.735  21.937  0.00  0.00    -0.453 OA
BRANCH  52  53
ATOM     53  C   UNL     1       7.678   5.622  22.449  0.00  0.00    +0.332 C 
ATOM     54  O   UNL     1       8.351   6.497  22.974  0.00  0.00    -0.246 OA
BRANCH  53  55
ATOM     55  C   UNL     1       8.047   4.199  22.490  0.00  0.00    +0.092 C 
ATOM     56  C   UNL     1       8.956   3.815  23.401  0.00  0.00    +0.015 C 
BRANCH  56  57
ATOM     57  C   UNL     1       9.390   2.425  23.428  0.00  0.00    -0.021 A 
ATOM     58  C   UNL     1      10.617   2.064  23.991  0.00  0.00    +0.012 A 
ATOM     59  C   UNL     1      10.945   0.718  24.102  0.00  0.00    +0.050 A 
ATOM     60  C   UNL     1      10.047  -0.244  23.645  0.00  0.00    +0.158 A 
ATOM     61  C   UNL     1       8.823   0.109  23.062  0.00  0.00    +0.162 A 
ATOM     62  C   UNL     1       8.507   1.455  22.942  0.00  0.00    +0.057 A 
BRANCH  61  63
ATOM     63  O   UNL     1       8.025  -0.934  22.674  0.00  0.00    -0.491 OA
ATOM     64  C   UNL     1       6.618  -0.742  22.836  0.00  0.00    +0.277 C 
ENDBRANCH  61  63
BRANCH  60  65
ATOM     65  O   UNL     1      10.378  -1.563  23.797  0.00  0.00    -0.503 OA
ATOM     66  H   UNL     1      11.306  -1.626  23.493  0.00  0.00    +0.292 HD
ENDBRANCH  60  65
ENDBRANCH  56  57
ENDBRANCH  53  55
ENDBRANCH  52  53
ENDBRANCH  46  52
ENDBRANCH  40  44
ENDBRANCH  39  40
ENDBRANCH   1  39
TORSDOF 21
ENDMDL
MODEL 7
REMARK VINA RESULT:      -6.1      3.079      8.122
REMARK  Name = 
REMARK  24 active torsions:
REMARK  status: ('A' for Active; 'I' for Inactive)
REMARK    1  A    between atoms: C_1  and  C_2
REMARK    2  A    between atoms: C_3  and  O_62
REMARK    3  A    between atoms: C_5  and  O_48
REMARK    4  A    between atoms: C_7  and  O_47
REMARK    5  A    between atoms: C_8  and  O_11
REMARK    6  A    between atoms: O_11  and  C_12
REMARK    7  A    between atoms: C_12  and  C_13
REMARK    8  A    between atoms: C_14  and  O_46
REMARK    9  A    between atoms: C_16  and  O_45
REMARK   10  A    between atoms: C_17  and  O_44
REMARK   11  A    between atoms: C_18  and  O_21
REMARK   12  A    between atoms: O_21  and  C_22
REMARK   13  A    between atoms: C_23  and  C_35
REMARK   14  A    between atoms: C_27  and  O_34
REMARK   15  A    between atoms: C_29  and  O_33
REMARK   16  A    between atoms: C_37  and  O_42
REMARK   17  A    between atoms: C_38  and  O_41
REMARK   18  A    between atoms: O_42  and  C_43
REMARK   19  A    between atoms: O_48  and  C_49
REMARK   20  A    between atoms: C_49  and  C_51
REMARK   21  A    between atoms: C_52  and  C_53
REMARK   22  A    between atoms: C_55  and  O_60
REMARK   23  A    between atoms: C_56  and  O_59
REMARK   24  A    between atoms: O_60  and  C_61
REMARK                            x       y       z     vdW  Elec       q    Type
REMARK                         _______ _______ _______ _____ _____    ______ ____
ROOT
ATOM      1  C   UNL     1       9.261   1.018  24.901  0.00  0.00    +0.179 C 
ATOM      2  O   UNL     1       8.642   2.243  25.368  0.00  0.00    -0.331 OA
ATOM      3  C   UNL     1       7.822   2.967  24.429  0.00  0.00    +0.340 C 
ATOM      4  C   UNL     1       8.619   3.254  23.137  0.00  0.00    +0.214 C 
ATOM      5  C   UNL     1       9.084   1.916  22.543  0.00  0.00    +0.180 C 
ATOM      6  C   UNL     1       9.967   1.158  23.542  0.00  0.00    +0.177 C 
ENDROOT
BRANCH   4   7
ATOM      7  O   UNL     1       9.788   4.065  23.426  0.00  0.00    -0.383 OA
ATOM      8  H   UNL     1      10.489   3.772  22.813  0.00  0.00    +0.210 HD
ENDBRANCH   4   7
BRANCH   6   9
ATOM      9  O   UNL     1      11.211   1.865  23.741  0.00  0.00    -0.386 OA
ATOM     10  H   UNL     1      11.637   1.476  24.536  0.00  0.00    +0.210 HD
ENDBRANCH   6   9
BRANCH   5  11
ATOM     11  O   UNL     1       9.800   2.133  21.322  0.00  0.00    -0.386 OA
ATOM     12  H   UNL     1       9.591   3.049  21.054  0.00  0.00    +0.210 HD
ENDBRANCH   5  11
BRANCH   3  13
ATOM     13  O   UNL     1       7.371   4.207  25.028  0.00  0.00    -0.453 OA
BRANCH  13  14
ATOM     14  C   UNL     1       6.102   4.732  24.740  0.00  0.00    +0.214 A 
ATOM     15  C   UNL     1       5.850   5.739  23.650  0.00  0.00    +0.238 A 
ATOM     16  O   UNL     1       6.774   6.288  23.065  0.00  0.00    -0.283 OA
ATOM     17  C   UNL     1       4.437   5.996  23.267  0.00  0.00    +0.109 A 
ATOM     18  C   UNL     1       3.435   5.521  24.102  0.00  0.00    +0.147 A 
ATOM     19  C   UNL     1       2.082   5.771  23.829  0.00  0.00    +0.092 A 
ATOM     20  C   UNL     1       1.739   6.479  22.684  0.00  0.00    +0.124 A 
ATOM     21  C   UNL     1       2.722   6.915  21.808  0.00  0.00    +0.091 A 
ATOM     22  O   UNL     1       3.717   4.785  25.216  0.00  0.00    -0.451 OA
ATOM     23  C   UNL     1       4.065   6.673  22.105  0.00  0.00    +0.135 A 
ATOM     24  C   UNL     1       4.998   4.308  25.396  0.00  0.00    +0.181 A 
BRANCH  24  25
ATOM     25  C   UNL     1       4.988   3.137  26.282  0.00  0.00    +0.025 A 
ATOM     26  C   UNL     1       4.759   1.889  25.673  0.00  0.00    +0.015 A 
ATOM     27  C   UNL     1       4.503   0.761  26.443  0.00  0.00    +0.050 A 
ATOM     28  C   UNL     1       4.630   0.843  27.819  0.00  0.00    +0.158 A 
ATOM     29  C   UNL     1       4.981   2.054  28.428  0.00  0.00    +0.162 A 
ATOM     30  C   UNL     1       5.052   3.228  27.675  0.00  0.00    +0.061 A 
BRANCH  29  31
ATOM     31  O   UNL     1       5.382   2.127  29.737  0.00  0.00    -0.491 OA
ATOM     32  C   UNL     1       6.807   1.967  29.830  0.00  0.00    +0.277 C 
ENDBRANCH  29  31
BRANCH  28  33
ATOM     33  O   UNL     1       4.481  -0.289  28.570  0.00  0.00    -0.503 OA
ATOM     34  H   UNL     1       3.532  -0.497  28.600  0.00  0.00    +0.292 HD
ENDBRANCH  28  33
ENDBRANCH  24  25
BRANCH  23  35
ATOM     35  O   UNL     1       5.001   7.108  21.222  0.00  0.00    -0.506 OA
ATOM     36  H   UNL     1       4.760   8.026  20.968  0.00  0.00    +0.292 HD
ENDBRANCH  23  35
BRANCH  20  37
ATOM     37  O   UNL     1       0.445   6.776  22.379  0.00  0.00    -0.507 OA
ATOM     38  H   UNL     1      -0.002   7.120  23.172  0.00  0.00    +0.292 HD
ENDBRANCH  20  37
ENDBRANCH  13  14
ENDBRANCH   3  13
BRANCH   1  39
ATOM     39  C   UNL     1       8.412  -0.280  25.048  0.00  0.00    +0.197 C 
BRANCH  39  40
ATOM     40  O   UNL     1       8.765  -1.238  26.052  0.00  0.00    -0.346 OA
BRANCH  40  44
ATOM     41  C   UNL     1       6.970  -4.980  27.231  0.00  0.00    +0.041 C 
ATOM     42  C   UNL     1       8.350  -4.879  26.579  0.00  0.00    +0.150 C 
ATOM     43  O   UNL     1       8.877  -3.539  26.706  0.00  0.00    -0.343 OA
ATOM     44  C   UNL     1       8.279  -2.569  25.841  0.00  0.00    +0.283 C 
ATOM     45  C   UNL     1       8.514  -2.997  24.369  0.00  0.00    +0.213 C 
ATOM     46  C   UNL     1       7.730  -4.309  24.200  0.00  0.00    +0.241 C 
ATOM     47  C   UNL     1       8.319  -5.395  25.122  0.00  0.00    +0.186 C 
BRANCH  47  48
ATOM     48  O   UNL     1       9.637  -5.779  24.710  0.00  0.00    -0.385 OA
ATOM     49  H   UNL     1      10.231  -5.632  25.478  0.00  0.00    +0.210 HD
ENDBRANCH  47  48
BRANCH  45  50
ATOM     50  O   UNL     1       9.919  -3.217  24.107  0.00  0.00    -0.383 OA
ATOM     51  H   UNL     1       9.966  -3.976  23.495  0.00  0.00    +0.210 HD
ENDBRANCH  45  50
BRANCH  46  52
ATOM     52  O   UNL     1       7.653  -4.704  22.821  0.00  0.00    -0.453 OA
BRANCH  52  53
ATOM     53  C   UNL     1       6.465  -4.354  22.258  0.00  0.00    +0.332 C 
ATOM     54  O   UNL     1       6.239  -3.405  21.522  0.00  0.00    -0.246 OA
BRANCH  53  55
ATOM     55  C   UNL     1       5.498  -5.439  22.479  0.00  0.00    +0.092 C 
ATOM     56  C   UNL     1       4.596  -5.283  23.461  0.00  0.00    +0.015 C 
BRANCH  56  57
ATOM     57  C   UNL     1       3.663  -6.364  23.748  0.00  0.00    -0.021 A 
ATOM     58  C   UNL     1       3.816  -7.165  24.882  0.00  0.00    +0.012 A 
ATOM     59  C   UNL     1       2.842  -8.111  25.183  0.00  0.00    +0.050 A 
ATOM     60  C   UNL     1       1.738  -8.245  24.345  0.00  0.00    +0.158 A 
ATOM     61  C   UNL     1       1.586  -7.460  23.196  0.00  0.00    +0.162 A 
ATOM     62  C   UNL     1       2.567  -6.526  22.893  0.00  0.00    +0.057 A 
BRANCH  61  63
ATOM     63  O   UNL     1       0.445  -7.678  22.470  0.00  0.00    -0.491 OA
ATOM     64  C   UNL     1       0.623  -7.878  21.067  0.00  0.00    +0.277 C 
ENDBRANCH  61  63
BRANCH  60  65
ATOM     65  O   UNL     1       0.777  -9.159  24.681  0.00  0.00    -0.503 OA
ATOM     66  H   UNL     1       0.840  -9.244  25.654  0.00  0.00    +0.292 HD
ENDBRANCH  60  65
ENDBRANCH  56  57
ENDBRANCH  53  55
ENDBRANCH  52  53
ENDBRANCH  46  52
ENDBRANCH  40  44
ENDBRANCH  39  40
ENDBRANCH   1  39
TORSDOF 21
ENDMDL
MODEL 8
REMARK VINA RESULT:      -6.0      2.527      8.886
REMARK  Name = 
REMARK  24 active torsions:
REMARK  status: ('A' for Active; 'I' for Inactive)
REMARK    1  A    between atoms: C_1  and  C_2
REMARK    2  A    between atoms: C_3  and  O_62
REMARK    3  A    between atoms: C_5  and  O_48
REMARK    4  A    between atoms: C_7  and  O_47
REMARK    5  A    between atoms: C_8  and  O_11
REMARK    6  A    between atoms: O_11  and  C_12
REMARK    7  A    between atoms: C_12  and  C_13
REMARK    8  A    between atoms: C_14  and  O_46
REMARK    9  A    between atoms: C_16  and  O_45
REMARK   10  A    between atoms: C_17  and  O_44
REMARK   11  A    between atoms: C_18  and  O_21
REMARK   12  A    between atoms: O_21  and  C_22
REMARK   13  A    between atoms: C_23  and  C_35
REMARK   14  A    between atoms: C_27  and  O_34
REMARK   15  A    between atoms: C_29  and  O_33
REMARK   16  A    between atoms: C_37  and  O_42
REMARK   17  A    between atoms: C_38  and  O_41
REMARK   18  A    between atoms: O_42  and  C_43
REMARK   19  A    between atoms: O_48  and  C_49
REMARK   20  A    between atoms: C_49  and  C_51
REMARK   21  A    between atoms: C_52  and  C_53
REMARK   22  A    between atoms: C_55  and  O_60
REMARK   23  A    between atoms: C_56  and  O_59
REMARK   24  A    between atoms: O_60  and  C_61
REMARK                            x       y       z     vdW  Elec       q    Type
REMARK                         _______ _______ _______ _____ _____    ______ ____
ROOT
ATOM      1  C   UNL     1       4.069  -1.835  26.754  0.00  0.00    +0.179 C 
ATOM      2  O   UNL     1       4.489  -1.029  25.625  0.00  0.00    -0.331 OA
ATOM      3  C   UNL     1       5.111   0.239  25.915  0.00  0.00    +0.340 C 
ATOM      4  C   UNL     1       4.200   1.081  26.835  0.00  0.00    +0.214 C 
ATOM      5  C   UNL     1       3.944   0.287  28.125  0.00  0.00    +0.180 C 
ATOM      6  C   UNL     1       3.269  -1.054  27.810  0.00  0.00    +0.177 C 
ENDROOT
BRANCH   4   7
ATOM      7  O   UNL     1       2.926   1.345  26.192  0.00  0.00    -0.383 OA
ATOM      8  H   UNL     1       2.856   2.315  26.101  0.00  0.00    +0.210 HD
ENDBRANCH   4   7
BRANCH   6   9
ATOM      9  O   UNL     1       1.934  -0.832  27.304  0.00  0.00    -0.386 OA
ATOM     10  H   UNL     1       1.515  -1.714  27.209  0.00  0.00    +0.210 HD
ENDBRANCH   6   9
BRANCH   5  11
ATOM     11  O   UNL     1       3.128   1.046  29.026  0.00  0.00    -0.386 OA
ATOM     12  H   UNL     1       3.386   1.979  28.891  0.00  0.00    +0.210 HD
ENDBRANCH   5  11
BRANCH   3  13
ATOM     13  O   UNL     1       5.372   0.950  24.680  0.00  0.00    -0.453 OA
BRANCH  13  14
ATOM     14  C   UNL     1       6.277   2.022  24.636  0.00  0.00    +0.214 A 
ATOM     15  C   UNL     1       7.771   1.847  24.691  0.00  0.00    +0.238 A 
ATOM     16  O   UNL     1       8.276   0.764  24.954  0.00  0.00    -0.283 OA
ATOM     17  C   UNL     1       8.611   3.026  24.353  0.00  0.00    +0.109 A 
ATOM     18  C   UNL     1       7.999   4.269  24.282  0.00  0.00    +0.147 A 
ATOM     19  C   UNL     1       8.740   5.431  24.019  0.00  0.00    +0.092 A 
ATOM     20  C   UNL     1      10.107   5.328  23.793  0.00  0.00    +0.124 A 
ATOM     21  C   UNL     1      10.729   4.088  23.804  0.00  0.00    +0.091 A 
ATOM     22  O   UNL     1       6.653   4.419  24.455  0.00  0.00    -0.451 OA
ATOM     23  C   UNL     1       9.979   2.945  24.086  0.00  0.00    +0.135 A 
ATOM     24  C   UNL     1       5.853   3.295  24.474  0.00  0.00    +0.181 A 
BRANCH  24  25
ATOM     25  C   UNL     1       4.473   3.645  24.113  0.00  0.00    +0.025 A 
ATOM     26  C   UNL     1       3.808   4.545  24.966  0.00  0.00    +0.015 A 
ATOM     27  C   UNL     1       2.440   4.759  24.844  0.00  0.00    +0.050 A 
ATOM     28  C   UNL     1       1.765   4.197  23.774  0.00  0.00    +0.158 A 
ATOM     29  C   UNL     1       2.446   3.400  22.845  0.00  0.00    +0.162 A 
ATOM     30  C   UNL     1       3.773   3.030  23.072  0.00  0.00    +0.061 A 
BRANCH  29  31
ATOM     31  O   UNL     1       1.897   3.048  21.638  0.00  0.00    -0.491 OA
ATOM     32  C   UNL     1       2.307   3.975  20.619  0.00  0.00    +0.277 C 
ENDBRANCH  29  31
BRANCH  28  33
ATOM     33  O   UNL     1       0.443   4.491  23.592  0.00  0.00    -0.503 OA
ATOM     34  H   UNL     1       0.155   5.024  24.353  0.00  0.00    +0.292 HD
ENDBRANCH  28  33
ENDBRANCH  24  25
BRANCH  23  35
ATOM     35  O   UNL     1      10.619   1.747  24.083  0.00  0.00    -0.506 OA
ATOM     36  H   UNL     1      10.023   1.097  23.650  0.00  0.00    +0.292 HD
ENDBRANCH  23  35
BRANCH  20  37
ATOM     37  O   UNL     1      10.884   6.423  23.558  0.00  0.00    -0.507 OA
ATOM     38  H   UNL     1      10.695   7.101  24.229  0.00  0.00    +0.292 HD
ENDBRANCH  20  37
ENDBRANCH  13  14
ENDBRANCH   3  13
BRANCH   1  39
ATOM     39  C   UNL     1       5.141  -2.797  27.348  0.00  0.00    +0.197 C 
BRANCH  39  40
ATOM     40  O   UNL     1       4.866  -4.201  27.407  0.00  0.00    -0.346 OA
BRANCH  40  44
ATOM     41  C   UNL     1       1.642  -4.765  24.596  0.00  0.00    +0.041 C 
ATOM     42  C   UNL     1       2.287  -5.912  25.376  0.00  0.00    +0.150 C 
ATOM     43  O   UNL     1       2.993  -5.409  26.532  0.00  0.00    -0.343 OA
ATOM     44  C   UNL     1       4.236  -4.761  26.249  0.00  0.00    +0.283 C 
ATOM     45  C   UNL     1       5.184  -5.777  25.562  0.00  0.00    +0.213 C 
ATOM     46  C   UNL     1       4.519  -6.104  24.214  0.00  0.00    +0.241 C 
ATOM     47  C   UNL     1       3.161  -6.792  24.454  0.00  0.00    +0.186 C 
BRANCH  47  48
ATOM     48  O   UNL     1       3.324  -8.095  25.031  0.00  0.00    -0.385 OA
ATOM     49  H   UNL     1       2.425  -8.433  25.233  0.00  0.00    +0.210 HD
ENDBRANCH  47  48
BRANCH  45  50
ATOM     50  O   UNL     1       5.327  -6.978  26.354  0.00  0.00    -0.383 OA
ATOM     51  H   UNL     1       5.199  -7.726  25.739  0.00  0.00    +0.210 HD
ENDBRANCH  45  50
BRANCH  46  52
ATOM     52  O   UNL     1       5.399  -6.848  23.358  0.00  0.00    -0.453 OA
BRANCH  52  53
ATOM     53  C   UNL     1       5.840  -6.101  22.309  0.00  0.00    +0.332 C 
ATOM     54  O   UNL     1       5.325  -5.984  21.207  0.00  0.00    -0.246 OA
BRANCH  53  55
ATOM     55  C   UNL     1       6.942  -5.243  22.769  0.00  0.00    +0.092 C 
ATOM     56  C   UNL     1       6.911  -3.946  22.424  0.00  0.00    +0.015 C 
BRANCH  56  57
ATOM     57  C   UNL     1       8.018  -3.081  22.810  0.00  0.00    -0.021 A 
ATOM     58  C   UNL     1       8.846  -3.409  23.886  0.00  0.00    +0.012 A 
ATOM     59  C   UNL     1       9.960  -2.620  24.152  0.00  0.00    +0.050 A 
ATOM     60  C   UNL     1      10.224  -1.516  23.344  0.00  0.00    +0.158 A 
ATOM     61  C   UNL     1       9.389  -1.170  22.275  0.00  0.00    +0.162 A 
ATOM     62  C   UNL     1       8.271  -1.953  22.022  0.00  0.00    +0.057 A 
BRANCH  61  63
ATOM     63  O   UNL     1       9.773  -0.074  21.549  0.00  0.00    -0.491 OA
ATOM     64  C   UNL     1       8.750   0.883  21.267  0.00  0.00    +0.277 C 
ENDBRANCH  61  63
BRANCH  60  65
ATOM     65  O   UNL     1      11.345  -0.777  23.605  0.00  0.00    -0.503 OA
ATOM     66  H   UNL     1      11.577  -0.990  24.531  0.00  0.00    +0.292 HD
ENDBRANCH  60  65
ENDBRANCH  56  57
ENDBRANCH  53  55
ENDBRANCH  52  53
ENDBRANCH  46  52
ENDBRANCH  40  44
ENDBRANCH  39  40
ENDBRANCH   1  39
TORSDOF 21
ENDMDL
MODEL 9
REMARK VINA RESULT:      -6.0      2.342      7.621
REMARK  Name = 
REMARK  24 active torsions:
REMARK  status: ('A' for Active; 'I' for Inactive)
REMARK    1  A    between atoms: C_1  and  C_2
REMARK    2  A    between atoms: C_3  and  O_62
REMARK    3  A    between atoms: C_5  and  O_48
REMARK    4  A    between atoms: C_7  and  O_47
REMARK    5  A    between atoms: C_8  and  O_11
REMARK    6  A    between atoms: O_11  and  C_12
REMARK    7  A    between atoms: C_12  and  C_13
REMARK    8  A    between atoms: C_14  and  O_46
REMARK    9  A    between atoms: C_16  and  O_45
REMARK   10  A    between atoms: C_17  and  O_44
REMARK   11  A    between atoms: C_18  and  O_21
REMARK   12  A    between atoms: O_21  and  C_22
REMARK   13  A    between atoms: C_23  and  C_35
REMARK   14  A    between atoms: C_27  and  O_34
REMARK   15  A    between atoms: C_29  and  O_33
REMARK   16  A    between atoms: C_37  and  O_42
REMARK   17  A    between atoms: C_38  and  O_41
REMARK   18  A    between atoms: O_42  and  C_43
REMARK   19  A    between atoms: O_48  and  C_49
REMARK   20  A    between atoms: C_49  and  C_51
REMARK   21  A    between atoms: C_52  and  C_53
REMARK   22  A    between atoms: C_55  and  O_60
REMARK   23  A    between atoms: C_56  and  O_59
REMARK   24  A    between atoms: O_60  and  C_61
REMARK                            x       y       z     vdW  Elec       q    Type
REMARK                         _______ _______ _______ _____ _____    ______ ____
ROOT
ATOM      1  C   UNL     1       8.820  -1.568  23.847  0.00  0.00    +0.179 C 
ATOM      2  O   UNL     1       8.742  -0.556  24.882  0.00  0.00    -0.331 OA
ATOM      3  C   UNL     1       8.047   0.665  24.559  0.00  0.00    +0.340 C 
ATOM      4  C   UNL     1       8.636   1.289  23.274  0.00  0.00    +0.214 C 
ATOM      5  C   UNL     1       8.510   0.268  22.135  0.00  0.00    +0.180 C 
ATOM      6  C   UNL     1       9.263  -1.023  22.479  0.00  0.00    +0.177 C 
ENDROOT
BRANCH   4   7
ATOM      7  O   UNL     1      10.040   1.610  23.457  0.00  0.00    -0.383 OA
ATOM      8  H   UNL     1      10.330   1.139  24.262  0.00  0.00    +0.210 HD
ENDBRANCH   4   7
BRANCH   6   9
ATOM      9  O   UNL     1      10.685  -0.772  22.523  0.00  0.00    -0.386 OA
ATOM     10  H   UNL     1      10.924  -0.331  21.679  0.00  0.00    +0.210 HD
ENDBRANCH   6   9
BRANCH   5  11
ATOM     11  O   UNL     1       9.015   0.818  20.911  0.00  0.00    -0.386 OA
ATOM     12  H   UNL     1       9.407   1.680  21.154  0.00  0.00    +0.210 HD
ENDBRANCH   5  11
BRANCH   3  13
ATOM     13  O   UNL     1       8.154   1.596  25.664  0.00  0.00    -0.453 OA
BRANCH  13  14
ATOM     14  C   UNL     1       7.017   2.015  26.373  0.00  0.00    +0.214 A 
ATOM     15  C   UNL     1       6.583   1.404  27.679  0.00  0.00    +0.238 A 
ATOM     16  O   UNL     1       7.104   0.384  28.108  0.00  0.00    -0.283 OA
ATOM     17  C   UNL     1       5.539   2.121  28.456  0.00  0.00    +0.109 A 
ATOM     18  C   UNL     1       4.832   3.136  27.827  0.00  0.00    +0.147 A 
ATOM     19  C   UNL     1       3.799   3.819  28.485  0.00  0.00    +0.092 A 
ATOM     20  C   UNL     1       3.501   3.495  29.802  0.00  0.00    +0.124 A 
ATOM     21  C   UNL     1       4.232   2.522  30.467  0.00  0.00    +0.091 A 
ATOM     22  O   UNL     1       5.114   3.521  26.548  0.00  0.00    -0.451 OA
ATOM     23  C   UNL     1       5.245   1.839  29.791  0.00  0.00    +0.135 A 
ATOM     24  C   UNL     1       6.266   3.056  25.948  0.00  0.00    +0.181 A 
BRANCH  24  25
ATOM     25  C   UNL     1       6.680   3.961  24.868  0.00  0.00    +0.025 A 
ATOM     26  C   UNL     1       5.941   3.895  23.672  0.00  0.00    +0.015 A 
ATOM     27  C   UNL     1       6.391   4.535  22.524  0.00  0.00    +0.050 A 
ATOM     28  C   UNL     1       7.493   5.369  22.607  0.00  0.00    +0.158 A 
ATOM     29  C   UNL     1       8.163   5.540  23.825  0.00  0.00    +0.162 A 
ATOM     30  C   UNL     1       7.830   4.754  24.930  0.00  0.00    +0.061 A 
BRANCH  29  31
ATOM     31  O   UNL     1       9.075   6.544  24.026  0.00  0.00    -0.491 OA
ATOM     32  C   UNL     1      10.410   6.047  23.837  0.00  0.00    +0.277 C 
ENDBRANCH  29  31
BRANCH  28  33
ATOM     33  O   UNL     1       7.874   6.080  21.505  0.00  0.00    -0.503 OA
ATOM     34  H   UNL     1       8.338   6.876  21.817  0.00  0.00    +0.292 HD
ENDBRANCH  28  33
ENDBRANCH  24  25
BRANCH  23  35
ATOM     35  O   UNL     1       5.944   0.897  30.475  0.00  0.00    -0.506 OA
ATOM     36  H   UNL     1       5.685   0.968  31.420  0.00  0.00    +0.292 HD
ENDBRANCH  23  35
BRANCH  20  37
ATOM     37  O   UNL     1       2.492   4.105  30.485  0.00  0.00    -0.507 OA
ATOM     38  H   UNL     1       2.840   4.470  31.316  0.00  0.00    +0.292 HD
ENDBRANCH  20  37
ENDBRANCH  13  14
ENDBRANCH   3  13
BRANCH   1  39
ATOM     39  C   UNL     1       7.631  -2.574  23.779  0.00  0.00    +0.197 C 
BRANCH  39  40
ATOM     40  O   UNL     1       6.289  -2.075  23.808  0.00  0.00    -0.346 OA
BRANCH  40  44
ATOM     41  C   UNL     1       2.541  -2.991  25.737  0.00  0.00    +0.041 C 
ATOM     42  C   UNL     1       3.622  -2.115  26.374  0.00  0.00    +0.150 C 
ATOM     43  O   UNL     1       4.532  -1.617  25.368  0.00  0.00    -0.343 OA
ATOM     44  C   UNL     1       5.460  -2.580  24.861  0.00  0.00    +0.283 C 
ATOM     45  C   UNL     1       6.336  -3.096  26.032  0.00  0.00    +0.213 C 
ATOM     46  C   UNL     1       5.366  -3.839  26.965  0.00  0.00    +0.241 C 
ATOM     47  C   UNL     1       4.327  -2.854  27.534  0.00  0.00    +0.186 C 
BRANCH  47  48
ATOM     48  O   UNL     1       4.931  -1.905  28.423  0.00  0.00    -0.385 OA
ATOM     49  H   UNL     1       4.354  -1.849  29.216  0.00  0.00    +0.210 HD
ENDBRANCH  47  48
BRANCH  45  50
ATOM     50  O   UNL     1       6.967  -2.001  26.734  0.00  0.00    -0.383 OA
ATOM     51  H   UNL     1       6.948  -1.239  26.124  0.00  0.00    +0.210 HD
ENDBRANCH  45  50
BRANCH  46  52
ATOM     52  O   UNL     1       6.070  -4.581  27.974  0.00  0.00    -0.453 OA
BRANCH  52  53
ATOM     53  C   UNL     1       5.838  -5.918  27.877  0.00  0.00    +0.332 C 
ATOM     54  O   UNL     1       6.362  -6.816  28.520  0.00  0.00    -0.246 OA
BRANCH  53  55
ATOM     55  C   UNL     1       4.663  -6.134  27.018  0.00  0.00    +0.092 C 
ATOM     56  C   UNL     1       4.861  -6.703  25.819  0.00  0.00    +0.015 C 
BRANCH  56  57
ATOM     57  C   UNL     1       3.729  -6.875  24.919  0.00  0.00    -0.021 A 
ATOM     58  C   UNL     1       3.535  -6.017  23.833  0.00  0.00    +0.012 A 
ATOM     59  C   UNL     1       2.510  -6.281  22.932  0.00  0.00    +0.050 A 
ATOM     60  C   UNL     1       1.694  -7.392  23.131  0.00  0.00    +0.158 A 
ATOM     61  C   UNL     1       1.869  -8.247  24.227  0.00  0.00    +0.162 A 
ATOM     62  C   UNL     1       2.885  -7.971  25.131  0.00  0.00    +0.057 A 
BRANCH  61  63
ATOM     63  O   UNL     1       1.012  -9.313  24.294  0.00  0.00    -0.491 OA
ATOM     64  C   UNL     1       1.210 -10.209  25.390  0.00  0.00    +0.277 C 
ENDBRANCH  61  63
BRANCH  60  65
ATOM     65  O   UNL     1       0.715  -7.650  22.211  0.00  0.00    -0.503 OA
ATOM     66  H   UNL     1       0.886  -8.567  21.913  0.00  0.00    +0.292 HD
ENDBRANCH  60  65
ENDBRANCH  56  57
ENDBRANCH  53  55
ENDBRANCH  52  53
ENDBRANCH  46  52
ENDBRANCH  40  44
ENDBRANCH  39  40
ENDBRANCH   1  39
TORSDOF 21
ENDMDL
