MODEL 1
REMARK VINA RESULT:      -6.8      0.000      0.000
REMARK  Name = 
REMARK  10 active torsions:
REMARK  status: ('A' for Active; 'I' for Inactive)
REMARK    1  A    between atoms: C_1  and  O_2
REMARK    2  A    between atoms: O_2  and  C_3
REMARK    3  A    between atoms: C_4  and  O_25
REMARK    4  A    between atoms: C_6  and  C_9
REMARK    5  A    between atoms: C_10  and  O_23
REMARK    6  A    between atoms: C_14  and  O_22
REMARK    7  A    between atoms: C_16  and  O_20
REMARK    8  A    between atoms: O_20  and  C_21
REMARK    9  A    between atoms: O_23  and  C_24
REMARK   10  A    between atoms: O_25  and  C_26
REMARK                            x       y       z     vdW  Elec       q    Type
REMARK                         _______ _______ _______ _____ _____    ______ ____
ROOT
ATOM      1  C   UNL     1       7.650  -0.718  23.092  0.00  0.00    +0.181 A 
ATOM      2  O   UNL     1       6.510  -1.477  22.793  0.00  0.00    -0.451 OA
ATOM      3  C   UNL     1       6.546  -2.843  22.949  0.00  0.00    +0.147 A 
ATOM      4  C   UNL     1       7.688  -3.506  23.369  0.00  0.00    +0.109 A 
ATOM      5  C   UNL     1       7.700  -4.901  23.495  0.00  0.00    +0.135 A 
ATOM      6  C   UNL     1       6.560  -5.642  23.220  0.00  0.00    +0.092 A 
ATOM      7  C   UNL     1       5.395  -4.992  22.811  0.00  0.00    +0.127 A 
ATOM      8  C   UNL     1       8.876  -2.723  23.680  0.00  0.00    +0.238 A 
ATOM      9  O   UNL     1       9.901  -3.312  24.032  0.00  0.00    -0.283 OA
ATOM     10  C   UNL     1       5.395  -3.593  22.673  0.00  0.00    +0.092 A 
ATOM     11  C   UNL     1       8.818  -1.243  23.547  0.00  0.00    +0.211 A 
ENDROOT
BRANCH   1  15
ATOM     12  C   UNL     1       7.212   3.509  22.404  0.00  0.00    +0.162 A 
ATOM     13  C   UNL     1       8.231   2.769  21.788  0.00  0.00    +0.050 A 
ATOM     14  C   UNL     1       8.340   1.389  21.975  0.00  0.00    +0.015 A 
ATOM     15  C   UNL     1       7.437   0.719  22.804  0.00  0.00    +0.025 A 
ATOM     16  C   UNL     1       6.362   1.442  23.356  0.00  0.00    +0.061 A 
ATOM     17  C   UNL     1       6.237   2.835  23.159  0.00  0.00    +0.162 A 
BRANCH  12  19
ATOM     18  C   UNL     1       8.039   5.676  23.055  0.00  0.00    +0.277 C 
ATOM     19  O   UNL     1       7.322   4.851  22.146  0.00  0.00    -0.491 OA
ENDBRANCH  12  19
BRANCH  17  20
ATOM     20  O   UNL     1       5.215   3.580  23.683  0.00  0.00    -0.491 OA
ATOM     21  C   UNL     1       3.898   3.370  23.195  0.00  0.00    +0.277 C 
ENDBRANCH  17  20
ENDBRANCH   1  15
BRANCH   5  22
ATOM     22  O   UNL     1       8.804  -5.613  23.888  0.00  0.00    -0.506 OA
ATOM     23  H   UNL     1       9.349  -5.794  23.087  0.00  0.00    +0.292 HD
ENDBRANCH   5  22
BRANCH   7  24
ATOM     24  O   UNL     1       4.213  -5.619  22.521  0.00  0.00    -0.495 OA
ATOM     25  C   UNL     1       3.109  -5.317  23.374  0.00  0.00    +0.277 C 
ENDBRANCH   7  24
BRANCH  11  26
ATOM     26  O   UNL     1       9.999  -0.669  23.912  0.00  0.00    -0.488 OA
ATOM     27  C   UNL     1      10.237   0.152  25.031  0.00  0.00    +0.277 C 
ENDBRANCH  11  26
TORSDOF 6
ENDMDL
MODEL 2
REMARK VINA RESULT:      -6.6      2.892      3.413
REMARK  Name = 
REMARK  10 active torsions:
REMARK  status: ('A' for Active; 'I' for Inactive)
REMARK    1  A    between atoms: C_1  and  O_2
REMARK    2  A    between atoms: O_2  and  C_3
REMARK    3  A    between atoms: C_4  and  O_25
REMARK    4  A    between atoms: C_6  and  C_9
REMARK    5  A    between atoms: C_10  and  O_23
REMARK    6  A    between atoms: C_14  and  O_22
REMARK    7  A    between atoms: C_16  and  O_20
REMARK    8  A    between atoms: O_20  and  C_21
REMARK    9  A    between atoms: O_23  and  C_24
REMARK   10  A    between atoms: O_25  and  C_26
REMARK                            x       y       z     vdW  Elec       q    Type
REMARK                         _______ _______ _______ _____ _____    ______ ____
ROOT
ATOM      1  C   UNL     1       8.169  -1.170  24.675  0.00  0.00    +0.181 A 
ATOM      2  O   UNL     1       7.144  -1.496  25.574  0.00  0.00    -0.451 OA
ATOM      3  C   UNL     1       7.113  -2.749  26.139  0.00  0.00    +0.147 A 
ATOM      4  C   UNL     1       8.051  -3.720  25.829  0.00  0.00    +0.109 A 
ATOM      5  C   UNL     1       7.977  -4.996  26.404  0.00  0.00    +0.135 A 
ATOM      6  C   UNL     1       6.973  -5.301  27.311  0.00  0.00    +0.092 A 
ATOM      7  C   UNL     1       6.028  -4.333  27.648  0.00  0.00    +0.127 A 
ATOM      8  C   UNL     1       9.117  -3.388  24.895  0.00  0.00    +0.238 A 
ATOM      9  O   UNL     1       9.940  -4.258  24.598  0.00  0.00    -0.283 OA
ATOM     10  C   UNL     1       6.100  -3.059  27.057  0.00  0.00    +0.092 A 
ATOM     11  C   UNL     1       9.168  -2.019  24.318  0.00  0.00    +0.211 A 
ENDROOT
BRANCH   1  15
ATOM     12  C   UNL     1       7.747   2.717  22.873  0.00  0.00    +0.162 A 
ATOM     13  C   UNL     1       6.793   1.709  22.670  0.00  0.00    +0.050 A 
ATOM     14  C   UNL     1       6.909   0.465  23.296  0.00  0.00    +0.015 A 
ATOM     15  C   UNL     1       7.998   0.196  24.129  0.00  0.00    +0.025 A 
ATOM     16  C   UNL     1       8.911   1.232  24.403  0.00  0.00    +0.061 A 
ATOM     17  C   UNL     1       8.793   2.496  23.786  0.00  0.00    +0.162 A 
BRANCH  12  19
ATOM     18  C   UNL     1       6.599   4.820  22.626  0.00  0.00    +0.277 C 
ATOM     19  O   UNL     1       7.486   3.832  22.118  0.00  0.00    -0.491 OA
ENDBRANCH  12  19
BRANCH  17  20
ATOM     20  O   UNL     1       9.660   3.530  24.015  0.00  0.00    -0.491 OA
ATOM     21  C   UNL     1      10.955   3.476  23.434  0.00  0.00    +0.277 C 
ENDBRANCH  17  20
ENDBRANCH   1  15
BRANCH   5  22
ATOM     22  O   UNL     1       8.864  -6.002  26.122  0.00  0.00    -0.506 OA
ATOM     23  H   UNL     1       8.655  -6.765  26.709  0.00  0.00    +0.292 HD
ENDBRANCH   5  22
BRANCH   7  24
ATOM     24  O   UNL     1       5.001  -4.520  28.535  0.00  0.00    -0.495 OA
ATOM     25  C   UNL     1       5.281  -5.347  29.665  0.00  0.00    +0.277 C 
ENDBRANCH   7  24
BRANCH  11  26
ATOM     26  O   UNL     1      10.246  -1.870  23.497  0.00  0.00    -0.488 OA
ATOM     27  C   UNL     1      10.239  -1.478  22.144  0.00  0.00    +0.277 C 
ENDBRANCH  11  26
TORSDOF 6
ENDMDL
MODEL 3
REMARK VINA RESULT:      -6.6      2.281      8.075
REMARK  Name = 
REMARK  10 active torsions:
REMARK  status: ('A' for Active; 'I' for Inactive)
REMARK    1  A    between atoms: C_1  and  O_2
REMARK    2  A    between atoms: O_2  and  C_3
REMARK    3  A    between atoms: C_4  and  O_25
REMARK    4  A    between atoms: C_6  and  C_9
REMARK    5  A    between atoms: C_10  and  O_23
REMARK    6  A    between atoms: C_14  and  O_22
REMARK    7  A    between atoms: C_16  and  O_20
REMARK    8  A    between atoms: O_20  and  C_21
REMARK    9  A    between atoms: O_23  and  C_24
REMARK   10  A    between atoms: O_25  and  C_26
REMARK                            x       y       z     vdW  Elec       q    Type
REMARK                         _______ _______ _______ _____ _____    ______ ____
ROOT
ATOM      1  C   UNL     1       7.856  -0.120  23.879  0.00  0.00    +0.181 A 
ATOM      2  O   UNL     1       9.094   0.465  23.574  0.00  0.00    -0.451 OA
ATOM      3  C   UNL     1       9.261   1.819  23.742  0.00  0.00    +0.147 A 
ATOM      4  C   UNL     1       8.234   2.640  24.179  0.00  0.00    +0.109 A 
ATOM      5  C   UNL     1       8.430   4.020  24.316  0.00  0.00    +0.135 A 
ATOM      6  C   UNL     1       9.665   4.587  24.035  0.00  0.00    +0.092 A 
ATOM      7  C   UNL     1      10.716   3.776  23.608  0.00  0.00    +0.127 A 
ATOM      8  C   UNL     1       6.947   2.038  24.497  0.00  0.00    +0.238 A 
ATOM      9  O   UNL     1       6.023   2.769  24.864  0.00  0.00    -0.283 OA
ATOM     10  C   UNL     1      10.508   2.394  23.460  0.00  0.00    +0.092 A 
ATOM     11  C   UNL     1       6.784   0.568  24.351  0.00  0.00    +0.211 A 
ENDROOT
BRANCH   1  15
ATOM     12  C   UNL     1       7.639  -4.353  23.129  0.00  0.00    +0.162 A 
ATOM     13  C   UNL     1       6.842  -3.443  22.421  0.00  0.00    +0.050 A 
ATOM     14  C   UNL     1       6.950  -2.066  22.633  0.00  0.00    +0.015 A 
ATOM     15  C   UNL     1       7.852  -1.570  23.577  0.00  0.00    +0.025 A 
ATOM     16  C   UNL     1       8.715  -2.473  24.228  0.00  0.00    +0.061 A 
ATOM     17  C   UNL     1       8.621  -3.865  24.008  0.00  0.00    +0.162 A 
BRANCH  12  19
ATOM     18  C   UNL     1       6.749  -5.950  21.560  0.00  0.00    +0.277 C 
ATOM     19  O   UNL     1       7.331  -5.654  22.822  0.00  0.00    -0.491 OA
ENDBRANCH  12  19
BRANCH  17  20
ATOM     20  O   UNL     1       9.431  -4.780  24.623  0.00  0.00    -0.491 OA
ATOM     21  C   UNL     1       9.389  -4.888  26.038  0.00  0.00    +0.277 C 
ENDBRANCH  17  20
ENDBRANCH   1  15
BRANCH   5  22
ATOM     22  O   UNL     1       7.447   4.884  24.727  0.00  0.00    -0.506 OA
ATOM     23  H   UNL     1       6.576   4.479  24.504  0.00  0.00    +0.292 HD
ENDBRANCH   5  22
BRANCH   7  24
ATOM     24  O   UNL     1      11.976   4.224  23.310  0.00  0.00    -0.495 OA
ATOM     25  C   UNL     1      12.231   5.607  23.554  0.00  0.00    +0.277 C 
ENDBRANCH   7  24
BRANCH  11  26
ATOM     26  O   UNL     1       5.534   0.171  24.724  0.00  0.00    -0.488 OA
ATOM     27  C   UNL     1       5.174  -0.517  25.899  0.00  0.00    +0.277 C 
ENDBRANCH  11  26
TORSDOF 6
ENDMDL
MODEL 4
REMARK VINA RESULT:      -6.5      2.310      7.612
REMARK  Name = 
REMARK  10 active torsions:
REMARK  status: ('A' for Active; 'I' for Inactive)
REMARK    1  A    between atoms: C_1  and  O_2
REMARK    2  A    between atoms: O_2  and  C_3
REMARK    3  A    between atoms: C_4  and  O_25
REMARK    4  A    between atoms: C_6  and  C_9
REMARK    5  A    between atoms: C_10  and  O_23
REMARK    6  A    between atoms: C_14  and  O_22
REMARK    7  A    between atoms: C_16  and  O_20
REMARK    8  A    between atoms: O_20  and  C_21
REMARK    9  A    between atoms: O_23  and  C_24
REMARK   10  A    between atoms: O_25  and  C_26
REMARK                            x       y       z     vdW  Elec       q    Type
REMARK                         _______ _______ _______ _____ _____    ______ ____
ROOT
ATOM      1  C   UNL     1       7.176  -3.858  24.091  0.00  0.00    +0.181 A 
ATOM      2  O   UNL     1       6.469  -2.690  23.772  0.00  0.00    -0.451 OA
ATOM      3  C   UNL     1       7.160  -1.554  23.423  0.00  0.00    +0.147 A 
ATOM      4  C   UNL     1       8.545  -1.512  23.401  0.00  0.00    +0.109 A 
ATOM      5  C   UNL     1       9.219  -0.331  23.064  0.00  0.00    +0.135 A 
ATOM      6  C   UNL     1       8.511   0.812  22.727  0.00  0.00    +0.092 A 
ATOM      7  C   UNL     1       7.116   0.787  22.728  0.00  0.00    +0.127 A 
ATOM      8  C   UNL     1       9.285  -2.721  23.732  0.00  0.00    +0.238 A 
ATOM      9  O   UNL     1      10.518  -2.681  23.736  0.00  0.00    -0.283 OA
ATOM     10  C   UNL     1       6.446  -0.398  23.081  0.00  0.00    +0.092 A 
ATOM     11  C   UNL     1       8.531  -3.957  24.070  0.00  0.00    +0.211 A 
ENDROOT
BRANCH   1  15
ATOM     12  C   UNL     1       4.344  -6.876  25.274  0.00  0.00    +0.162 A 
ATOM     13  C   UNL     1       4.432  -6.435  23.946  0.00  0.00    +0.050 A 
ATOM     14  C   UNL     1       5.385  -5.491  23.557  0.00  0.00    +0.015 A 
ATOM     15  C   UNL     1       6.264  -4.951  24.499  0.00  0.00    +0.025 A 
ATOM     16  C   UNL     1       6.237  -5.453  25.815  0.00  0.00    +0.061 A 
ATOM     17  C   UNL     1       5.286  -6.418  26.212  0.00  0.00    +0.162 A 
BRANCH  12  19
ATOM     18  C   UNL     1       2.348  -7.920  24.420  0.00  0.00    +0.277 C 
ATOM     19  O   UNL     1       3.303  -7.750  25.459  0.00  0.00    -0.491 OA
ENDBRANCH  12  19
BRANCH  17  20
ATOM     20  O   UNL     1       5.216  -6.928  27.480  0.00  0.00    -0.491 OA
ATOM     21  C   UNL     1       6.016  -6.342  28.496  0.00  0.00    +0.277 C 
ENDBRANCH  17  20
ENDBRANCH   1  15
BRANCH   5  22
ATOM     22  O   UNL     1      10.586  -0.225  23.043  0.00  0.00    -0.506 OA
ATOM     23  H   UNL     1      10.953  -0.908  23.652  0.00  0.00    +0.292 HD
ENDBRANCH   5  22
BRANCH   7  24
ATOM     24  O   UNL     1       6.316   1.851  22.406  0.00  0.00    -0.495 OA
ATOM     25  C   UNL     1       6.979   3.091  22.163  0.00  0.00    +0.277 C 
ENDBRANCH   7  24
BRANCH  11  26
ATOM     26  O   UNL     1       9.377  -4.998  24.316  0.00  0.00    -0.488 OA
ATOM     27  C   UNL     1       9.872  -5.417  25.566  0.00  0.00    +0.277 C 
ENDBRANCH  11  26
TORSDOF 6
ENDMDL
MODEL 5
REMARK VINA RESULT:      -6.5      2.480      3.480
REMARK  Name = 
REMARK  10 active torsions:
REMARK  status: ('A' for Active; 'I' for Inactive)
REMARK    1  A    between atoms: C_1  and  O_2
REMARK    2  A    between atoms: O_2  and  C_3
REMARK    3  A    between atoms: C_4  and  O_25
REMARK    4  A    between atoms: C_6  and  C_9
REMARK    5  A    between atoms: C_10  and  O_23
REMARK    6  A    between atoms: C_14  and  O_22
REMARK    7  A    between atoms: C_16  and  O_20
REMARK    8  A    between atoms: O_20  and  C_21
REMARK    9  A    between atoms: O_23  and  C_24
REMARK   10  A    between atoms: O_25  and  C_26
REMARK                            x       y       z     vdW  Elec       q    Type
REMARK                         _______ _______ _______ _____ _____    ______ ____
ROOT
ATOM      1  C   UNL     1       7.035  -3.156  24.478  0.00  0.00    +0.181 A 
ATOM      2  O   UNL     1       6.023  -3.890  23.843  0.00  0.00    -0.451 OA
ATOM      3  C   UNL     1       5.454  -4.960  24.494  0.00  0.00    +0.147 A 
ATOM      4  C   UNL     1       5.867  -5.360  25.754  0.00  0.00    +0.109 A 
ATOM      5  C   UNL     1       5.284  -6.470  26.379  0.00  0.00    +0.135 A 
ATOM      6  C   UNL     1       4.267  -7.176  25.754  0.00  0.00    +0.092 A 
ATOM      7  C   UNL     1       3.826  -6.780  24.491  0.00  0.00    +0.127 A 
ATOM      8  C   UNL     1       6.918  -4.601  26.418  0.00  0.00    +0.238 A 
ATOM      9  O   UNL     1       7.304  -4.969  27.531  0.00  0.00    -0.283 OA
ATOM     10  C   UNL     1       4.426  -5.674  23.864  0.00  0.00    +0.092 A 
ATOM     11  C   UNL     1       7.501  -3.422  25.726  0.00  0.00    +0.211 A 
ENDROOT
BRANCH   1  15
ATOM     12  C   UNL     1       8.719   0.014  22.101  0.00  0.00    +0.162 A 
ATOM     13  C   UNL     1       9.383  -1.210  22.265  0.00  0.00    +0.050 A 
ATOM     14  C   UNL     1       8.811  -2.254  22.997  0.00  0.00    +0.015 A 
ATOM     15  C   UNL     1       7.561  -2.086  23.599  0.00  0.00    +0.025 A 
ATOM     16  C   UNL     1       6.853  -0.891  23.366  0.00  0.00    +0.061 A 
ATOM     17  C   UNL     1       7.420   0.162  22.616  0.00  0.00    +0.162 A 
BRANCH  12  19
ATOM     18  C   UNL     1      10.211   1.905  22.130  0.00  0.00    +0.277 C 
ATOM     19  O   UNL     1       9.478   0.923  21.409  0.00  0.00    -0.491 OA
ENDBRANCH  12  19
BRANCH  17  20
ATOM     20  O   UNL     1       6.773   1.343  22.371  0.00  0.00    -0.491 OA
ATOM     21  C   UNL     1       6.634   2.278  23.430  0.00  0.00    +0.277 C 
ENDBRANCH  17  20
ENDBRANCH   1  15
BRANCH   5  22
ATOM     22  O   UNL     1       5.663  -6.922  27.617  0.00  0.00    -0.506 OA
ATOM     23  H   UNL     1       5.804  -7.896  27.553  0.00  0.00    +0.292 HD
ENDBRANCH   5  22
BRANCH   7  24
ATOM     24  O   UNL     1       2.827  -7.396  23.785  0.00  0.00    -0.495 OA
ATOM     25  C   UNL     1       1.878  -6.540  23.151  0.00  0.00    +0.277 C 
ENDBRANCH   7  24
BRANCH  11  26
ATOM     26  O   UNL     1       8.441  -2.810  26.502  0.00  0.00    -0.488 OA
ATOM     27  C   UNL     1       8.538  -1.437  26.798  0.00  0.00    +0.277 C 
ENDBRANCH  11  26
TORSDOF 6
ENDMDL
MODEL 6
REMARK VINA RESULT:      -6.4      1.772      7.401
REMARK  Name = 
REMARK  10 active torsions:
REMARK  status: ('A' for Active; 'I' for Inactive)
REMARK    1  A    between atoms: C_1  and  O_2
REMARK    2  A    between atoms: O_2  and  C_3
REMARK    3  A    between atoms: C_4  and  O_25
REMARK    4  A    between atoms: C_6  and  C_9
REMARK    5  A    between atoms: C_10  and  O_23
REMARK    6  A    between atoms: C_14  and  O_22
REMARK    7  A    between atoms: C_16  and  O_20
REMARK    8  A    between atoms: O_20  and  C_21
REMARK    9  A    between atoms: O_23  and  C_24
REMARK   10  A    between atoms: O_25  and  C_26
REMARK                            x       y       z     vdW  Elec       q    Type
REMARK                         _______ _______ _______ _____ _____    ______ ____
ROOT
ATOM      1  C   UNL     1       7.234  -0.504  23.538  0.00  0.00    +0.181 A 
ATOM      2  O   UNL     1       6.573   0.647  23.085  0.00  0.00    -0.451 OA
ATOM      3  C   UNL     1       7.226   1.856  23.110  0.00  0.00    +0.147 A 
ATOM      4  C   UNL     1       8.516   1.987  23.596  0.00  0.00    +0.109 A 
ATOM      5  C   UNL     1       9.145   3.239  23.631  0.00  0.00    +0.135 A 
ATOM      6  C   UNL     1       8.491   4.367  23.159  0.00  0.00    +0.092 A 
ATOM      7  C   UNL     1       7.197   4.255  22.651  0.00  0.00    +0.127 A 
ATOM      8  C   UNL     1       9.208   0.796  24.068  0.00  0.00    +0.238 A 
ATOM      9  O   UNL     1      10.349   0.912  24.523  0.00  0.00    -0.283 OA
ATOM     10  C   UNL     1       6.568   2.998  22.632  0.00  0.00    +0.092 A 
ATOM     11  C   UNL     1       8.511  -0.516  24.002  0.00  0.00    +0.211 A 
ENDROOT
BRANCH   1  15
ATOM     12  C   UNL     1       4.817  -4.065  23.557  0.00  0.00    +0.162 A 
ATOM     13  C   UNL     1       4.764  -3.139  24.608  0.00  0.00    +0.050 A 
ATOM     14  C   UNL     1       5.514  -1.961  24.576  0.00  0.00    +0.015 A 
ATOM     15  C   UNL     1       6.351  -1.692  23.491  0.00  0.00    +0.025 A 
ATOM     16  C   UNL     1       6.343  -2.576  22.394  0.00  0.00    +0.061 A 
ATOM     17  C   UNL     1       5.577  -3.762  22.415  0.00  0.00    +0.162 A 
BRANCH  12  19
ATOM     18  C   UNL     1       4.664  -6.291  24.467  0.00  0.00    +0.277 C 
ATOM     19  O   UNL     1       4.061  -5.181  23.815  0.00  0.00    -0.491 OA
ENDBRANCH  12  19
BRANCH  17  20
ATOM     20  O   UNL     1       5.544  -4.654  21.377  0.00  0.00    -0.491 OA
ATOM     21  C   UNL     1       6.548  -5.655  21.306  0.00  0.00    +0.277 C 
ENDBRANCH  17  20
ENDBRANCH   1  15
BRANCH   5  22
ATOM     22  O   UNL     1      10.413   3.432  24.116  0.00  0.00    -0.506 OA
ATOM     23  H   UNL     1      11.016   2.811  23.644  0.00  0.00    +0.292 HD
ENDBRANCH   5  22
BRANCH   7  24
ATOM     24  O   UNL     1       6.461   5.297  22.153  0.00  0.00    -0.495 OA
ATOM     25  C   UNL     1       7.171   6.509  21.898  0.00  0.00    +0.277 C 
ENDBRANCH   7  24
BRANCH  11  26
ATOM     26  O   UNL     1       9.314  -1.523  24.448  0.00  0.00    -0.488 OA
ATOM     27  C   UNL     1       9.954  -2.509  23.672  0.00  0.00    +0.277 C 
ENDBRANCH  11  26
TORSDOF 6
ENDMDL
MODEL 7
REMARK VINA RESULT:      -6.2      2.686      2.827
REMARK  Name = 
REMARK  10 active torsions:
REMARK  status: ('A' for Active; 'I' for Inactive)
REMARK    1  A    between atoms: C_1  and  O_2
REMARK    2  A    between atoms: O_2  and  C_3
REMARK    3  A    between atoms: C_4  and  O_25
REMARK    4  A    between atoms: C_6  and  C_9
REMARK    5  A    between atoms: C_10  and  O_23
REMARK    6  A    between atoms: C_14  and  O_22
REMARK    7  A    between atoms: C_16  and  O_20
REMARK    8  A    between atoms: O_20  and  C_21
REMARK    9  A    between atoms: O_23  and  C_24
REMARK   10  A    between atoms: O_25  and  C_26
REMARK                            x       y       z     vdW  Elec       q    Type
REMARK                         _______ _______ _______ _____ _____    ______ ____
ROOT
ATOM      1  C   UNL     1       8.167  -0.423  24.732  0.00  0.00    +0.181 A 
ATOM      2  O   UNL     1       7.444  -1.179  25.665  0.00  0.00    -0.451 OA
ATOM      3  C   UNL     1       7.774  -2.498  25.869  0.00  0.00    +0.147 A 
ATOM      4  C   UNL     1       8.788  -3.121  25.160  0.00  0.00    +0.109 A 
ATOM      5  C   UNL     1       9.084  -4.474  25.374  0.00  0.00    +0.135 A 
ATOM      6  C   UNL     1       8.378  -5.208  26.316  0.00  0.00    +0.092 A 
ATOM      7  C   UNL     1       7.364  -4.595  27.051  0.00  0.00    +0.127 A 
ATOM      8  C   UNL     1       9.543  -2.341  24.189  0.00  0.00    +0.238 A 
ATOM      9  O   UNL     1      10.432  -2.899  23.540  0.00  0.00    -0.283 OA
ATOM     10  C   UNL     1       7.063  -3.241  26.821  0.00  0.00    +0.092 A 
ATOM     11  C   UNL     1       9.207  -0.905  24.002  0.00  0.00    +0.211 A 
ENDROOT
BRANCH   1  15
ATOM     12  C   UNL     1       6.568   3.572  24.616  0.00  0.00    +0.162 A 
ATOM     13  C   UNL     1       7.894   3.325  25.001  0.00  0.00    +0.050 A 
ATOM     14  C   UNL     1       8.423   2.032  24.991  0.00  0.00    +0.015 A 
ATOM     15  C   UNL     1       7.626   0.950  24.609  0.00  0.00    +0.025 A 
ATOM     16  C   UNL     1       6.323   1.203  24.139  0.00  0.00    +0.061 A 
ATOM     17  C   UNL     1       5.786   2.509  24.134  0.00  0.00    +0.162 A 
BRANCH  12  19
ATOM     18  C   UNL     1       7.175   5.895  24.420  0.00  0.00    +0.277 C 
ATOM     19  O   UNL     1       6.227   4.893  24.761  0.00  0.00    -0.491 OA
ENDBRANCH  12  19
BRANCH  17  20
ATOM     20  O   UNL     1       4.523   2.800  23.695  0.00  0.00    -0.491 OA
ATOM     21  C   UNL     1       4.361   3.344  22.393  0.00  0.00    +0.277 C 
ENDBRANCH  17  20
ENDBRANCH   1  15
BRANCH   5  22
ATOM     22  O   UNL     1      10.063  -5.148  24.690  0.00  0.00    -0.506 OA
ATOM     23  H   UNL     1      10.834  -5.257  25.295  0.00  0.00    +0.292 HD
ENDBRANCH   5  22
BRANCH   7  24
ATOM     24  O   UNL     1       6.609  -5.218  28.009  0.00  0.00    -0.495 OA
ATOM     25  C   UNL     1       5.607  -6.120  27.540  0.00  0.00    +0.277 C 
ENDBRANCH   7  24
BRANCH  11  26
ATOM     26  O   UNL     1      10.032  -0.322  23.087  0.00  0.00    -0.488 OA
ATOM     27  C   UNL     1       9.713   0.052  21.768  0.00  0.00    +0.277 C 
ENDBRANCH  11  26
TORSDOF 6
ENDMDL
MODEL 8
REMARK VINA RESULT:      -6.2      2.826      7.592
REMARK  Name = 
REMARK  10 active torsions:
REMARK  status: ('A' for Active; 'I' for Inactive)
REMARK    1  A    between atoms: C_1  and  O_2
REMARK    2  A    between atoms: O_2  and  C_3
REMARK    3  A    between atoms: C_4  and  O_25
REMARK    4  A    between atoms: C_6  and  C_9
REMARK    5  A    between atoms: C_10  and  O_23
REMARK    6  A    between atoms: C_14  and  O_22
REMARK    7  A    between atoms: C_16  and  O_20
REMARK    8  A    between atoms: O_20  and  C_21
REMARK    9  A    between atoms: O_23  and  C_24
REMARK   10  A    between atoms: O_25  and  C_26
REMARK                            x       y       z     vdW  Elec       q    Type
REMARK                         _______ _______ _______ _____ _____    ______ ____
ROOT
ATOM      1  C   UNL     1       7.936  -1.466  24.491  0.00  0.00    +0.181 A 
ATOM      2  O   UNL     1       7.903  -0.257  25.201  0.00  0.00    -0.451 OA
ATOM      3  C   UNL     1       8.320   0.900  24.587  0.00  0.00    +0.147 A 
ATOM      4  C   UNL     1       8.802   0.913  23.289  0.00  0.00    +0.109 A 
ATOM      5  C   UNL     1       9.243   2.105  22.700  0.00  0.00    +0.135 A 
ATOM      6  C   UNL     1       9.183   3.300  23.403  0.00  0.00    +0.092 A 
ATOM      7  C   UNL     1       8.687   3.312  24.706  0.00  0.00    +0.127 A 
ATOM      8  C   UNL     1       8.840  -0.339  22.546  0.00  0.00    +0.238 A 
ATOM      9  O   UNL     1       9.291  -0.336  21.397  0.00  0.00    -0.283 OA
ATOM     10  C   UNL     1       8.259   2.109  25.294  0.00  0.00    +0.092 A 
ATOM     11  C   UNL     1       8.351  -1.580  23.202  0.00  0.00    +0.211 A 
ENDROOT
BRANCH   1  15
ATOM     12  C   UNL     1       6.772  -4.925  26.773  0.00  0.00    +0.162 A 
ATOM     13  C   UNL     1       8.111  -4.516  26.695  0.00  0.00    +0.050 A 
ATOM     14  C   UNL     1       8.478  -3.366  25.993  0.00  0.00    +0.015 A 
ATOM     15  C   UNL     1       7.509  -2.604  25.335  0.00  0.00    +0.025 A 
ATOM     16  C   UNL     1       6.154  -2.961  25.482  0.00  0.00    +0.061 A 
ATOM     17  C   UNL     1       5.775  -4.115  26.202  0.00  0.00    +0.162 A 
BRANCH  12  19
ATOM     18  C   UNL     1       6.300  -6.086  28.830  0.00  0.00    +0.277 C 
ATOM     19  O   UNL     1       6.633  -6.110  27.448  0.00  0.00    -0.491 OA
ENDBRANCH  12  19
BRANCH  17  20
ATOM     20  O   UNL     1       4.473  -4.506  26.364  0.00  0.00    -0.491 OA
ATOM     21  C   UNL     1       3.441  -3.669  25.861  0.00  0.00    +0.277 C 
ENDBRANCH  17  20
ENDBRANCH   1  15
BRANCH   5  22
ATOM     22  O   UNL     1       9.746   2.176  21.427  0.00  0.00    -0.506 OA
ATOM     23  H   UNL     1      10.722   2.298  21.493  0.00  0.00    +0.292 HD
ENDBRANCH   5  22
BRANCH   7  24
ATOM     24  O   UNL     1       8.575   4.430  25.488  0.00  0.00    -0.495 OA
ATOM     25  C   UNL     1       9.007   5.659  24.904  0.00  0.00    +0.277 C 
ENDBRANCH   7  24
BRANCH  11  26
ATOM     26  O   UNL     1       8.423  -2.646  22.355  0.00  0.00    -0.488 OA
ATOM     27  C   UNL     1       7.385  -3.532  22.010  0.00  0.00    +0.277 C 
ENDBRANCH  11  26
TORSDOF 6
ENDMDL
MODEL 9
REMARK VINA RESULT:      -6.1      2.558      8.266
REMARK  Name = 
REMARK  10 active torsions:
REMARK  status: ('A' for Active; 'I' for Inactive)
REMARK    1  A    between atoms: C_1  and  O_2
REMARK    2  A    between atoms: O_2  and  C_3
REMARK    3  A    between atoms: C_4  and  O_25
REMARK    4  A    between atoms: C_6  and  C_9
REMARK    5  A    between atoms: C_10  and  O_23
REMARK    6  A    between atoms: C_14  and  O_22
REMARK    7  A    between atoms: C_16  and  O_20
REMARK    8  A    between atoms: O_20  and  C_21
REMARK    9  A    between atoms: O_23  and  C_24
REMARK   10  A    between atoms: O_25  and  C_26
REMARK                            x       y       z     vdW  Elec       q    Type
REMARK                         _______ _______ _______ _____ _____    ______ ____
ROOT
ATOM      1  C   UNL     1       8.458   1.272  24.167  0.00  0.00    +0.181 A 
ATOM      2  O   UNL     1       9.776   1.652  23.875  0.00  0.00    -0.451 OA
ATOM      3  C   UNL     1      10.093   2.987  23.794  0.00  0.00    +0.147 A 
ATOM      4  C   UNL     1       9.144   3.982  23.967  0.00  0.00    +0.109 A 
ATOM      5  C   UNL     1       9.495   5.333  23.854  0.00  0.00    +0.135 A 
ATOM      6  C   UNL     1      10.806   5.700  23.588  0.00  0.00    +0.092 A 
ATOM      7  C   UNL     1      11.780   4.714  23.426  0.00  0.00    +0.127 A 
ATOM      8  C   UNL     1       7.774   3.594  24.271  0.00  0.00    +0.238 A 
ATOM      9  O   UNL     1       6.921   4.476  24.402  0.00  0.00    -0.283 OA
ATOM     10  C   UNL     1      11.417   3.360  23.527  0.00  0.00    +0.092 A 
ATOM     11  C   UNL     1       7.445   2.149  24.395  0.00  0.00    +0.211 A 
ENDROOT
BRANCH   1  15
ATOM     12  C   UNL     1       8.147  -3.014  23.926  0.00  0.00    +0.162 A 
ATOM     13  C   UNL     1       9.277  -2.392  24.476  0.00  0.00    +0.050 A 
ATOM     14  C   UNL     1       9.353  -1.002  24.597  0.00  0.00    +0.015 A 
ATOM     15  C   UNL     1       8.300  -0.200  24.150  0.00  0.00    +0.025 A 
ATOM     16  C   UNL     1       7.129  -0.823  23.677  0.00  0.00    +0.061 A 
ATOM     17  C   UNL     1       7.039  -2.227  23.565  0.00  0.00    +0.162 A 
BRANCH  12  19
ATOM     18  C   UNL     1       8.991  -5.064  24.869  0.00  0.00    +0.277 C 
ATOM     19  O   UNL     1       8.300  -4.374  23.836  0.00  0.00    -0.491 OA
ENDBRANCH  12  19
BRANCH  17  20
ATOM     20  O   UNL     1       5.926  -2.875  23.104  0.00  0.00    -0.491 OA
ATOM     21  C   UNL     1       5.898  -3.306  21.751  0.00  0.00    +0.277 C 
ENDBRANCH  17  20
ENDBRANCH   1  15
BRANCH   5  22
ATOM     22  O   UNL     1       8.597   6.359  23.997  0.00  0.00    -0.506 OA
ATOM     23  H   UNL     1       8.377   6.697  23.097  0.00  0.00    +0.292 HD
ENDBRANCH   5  22
BRANCH   7  24
ATOM     24  O   UNL     1      13.103   4.959  23.168  0.00  0.00    -0.495 OA
ATOM     25  C   UNL     1      13.391   5.697  21.981  0.00  0.00    +0.277 C 
ENDBRANCH   7  24
BRANCH  11  26
ATOM     26  O   UNL     1       6.133   1.969  24.717  0.00  0.00    -0.488 OA
ATOM     27  C   UNL     1       5.605   1.620  25.975  0.00  0.00    +0.277 C 
ENDBRANCH  11  26
TORSDOF 6
ENDMDL
