MODEL 1
REMARK VINA RESULT:      -7.9      0.000      0.000
REMARK  Name = 
REMARK  23 active torsions:
REMARK  status: ('A' for Active; 'I' for Inactive)
REMARK    1  A    between atoms: C_1  and  C_2
REMARK    2  A    between atoms: C_4  and  O_69
REMARK    3  A    between atoms: C_6  and  O_52
REMARK    4  A    between atoms: C_8  and  O_51
REMARK    5  A    between atoms: C_10  and  O_13
REMARK    6  A    between atoms: O_13  and  C_14
REMARK    7  A    between atoms: C_14  and  C_15
REMARK    8  A    between atoms: C_17  and  O_50
REMARK    9  A    between atoms: C_19  and  O_49
REMARK   10  A    between atoms: C_21  and  O_48
REMARK   11  A    between atoms: C_23  and  O_26
REMARK   12  A    between atoms: O_26  and  C_27
REMARK   13  A    between atoms: C_28  and  C_40
REMARK   14  A    between atoms: C_32  and  O_39
REMARK   15  A    between atoms: C_34  and  O_38
REMARK   16  A    between atoms: C_42  and  O_47
REMARK   17  A    between atoms: C_43  and  O_46
REMARK   18  A    between atoms: O_52  and  C_53
REMARK   19  A    between atoms: C_55  and  O_68
REMARK   20  A    between atoms: C_57  and  O_67
REMARK   21  A    between atoms: C_59  and  O_66
REMARK   22  A    between atoms: C_61  and  C_64
REMARK   23  A    between atoms: C_64  and  O_65
REMARK                            x       y       z     vdW  Elec       q    Type
REMARK                         _______ _______ _______ _____ _____    ______ ____
ROOT
ATOM      1  C   UNL     1       5.988   0.086  26.596  0.00  0.00    +0.179 C 
ATOM      2  O   UNL     1       6.077   0.309  25.169  0.00  0.00    -0.331 OA
ATOM      3  C   UNL     1       6.020   1.713  24.875  0.00  0.00    +0.340 C 
ATOM      4  C   UNL     1       4.558   2.152  25.092  0.00  0.00    +0.214 C 
ATOM      5  C   UNL     1       4.235   1.845  26.594  0.00  0.00    +0.180 C 
ATOM      6  C   UNL     1       4.548   0.381  27.001  0.00  0.00    +0.177 C 
ENDROOT
BRANCH   4   7
ATOM      7  O   UNL     1       4.420   3.559  24.830  0.00  0.00    -0.383 OA
ATOM      8  H   UNL     1       3.873   3.937  25.543  0.00  0.00    +0.210 HD
ENDBRANCH   4   7
BRANCH   6   9
ATOM      9  O   UNL     1       3.643  -0.520  26.360  0.00  0.00    -0.386 OA
ATOM     10  H   UNL     1       4.182  -1.147  25.839  0.00  0.00    +0.210 HD
ENDBRANCH   6   9
BRANCH   5  11
ATOM     11  O   UNL     1       2.889   2.219  26.905  0.00  0.00    -0.386 OA
ATOM     12  H   UNL     1       2.413   1.410  27.172  0.00  0.00    +0.210 HD
ENDBRANCH   5  11
BRANCH   3  13
ATOM     13  O   UNL     1       6.608   1.982  23.576  0.00  0.00    -0.453 OA
BRANCH  13  14
ATOM     14  C   UNL     1       7.969   2.370  23.631  0.00  0.00    +0.214 A 
ATOM     15  C   UNL     1       8.356   3.772  24.019  0.00  0.00    +0.238 A 
ATOM     16  O   UNL     1       7.620   4.523  24.642  0.00  0.00    -0.283 OA
ATOM     17  C   UNL     1       9.677   4.275  23.735  0.00  0.00    +0.109 A 
ATOM     18  C   UNL     1      10.647   3.331  23.479  0.00  0.00    +0.147 A 
ATOM     19  C   UNL     1      11.972   3.739  23.329  0.00  0.00    +0.092 A 
ATOM     20  C   UNL     1      12.288   5.100  23.451  0.00  0.00    +0.124 A 
ATOM     21  C   UNL     1      11.311   6.055  23.697  0.00  0.00    +0.091 A 
ATOM     22  O   UNL     1      10.359   1.997  23.411  0.00  0.00    -0.451 OA
ATOM     23  C   UNL     1       9.995   5.639  23.830  0.00  0.00    +0.135 A 
ATOM     24  C   UNL     1       9.028   1.526  23.434  0.00  0.00    +0.181 A 
BRANCH  24  25
ATOM     25  C   UNL     1       9.013   0.020  23.320  0.00  0.00    +0.025 A 
ATOM     26  C   UNL     1      10.038  -0.719  23.974  0.00  0.00    +0.015 A 
ATOM     27  C   UNL     1      10.006  -2.115  24.110  0.00  0.00    +0.050 A 
ATOM     28  C   UNL     1       8.951  -2.809  23.557  0.00  0.00    +0.158 A 
ATOM     29  C   UNL     1       7.981  -2.134  22.816  0.00  0.00    +0.159 A 
ATOM     30  C   UNL     1       8.000  -0.735  22.702  0.00  0.00    +0.060 A 
BRANCH  29  31
ATOM     31  O   UNL     1       7.014  -2.899  22.229  0.00  0.00    -0.503 OA
ATOM     32  H   UNL     1       6.210  -2.351  22.170  0.00  0.00    +0.292 HD
ENDBRANCH  29  31
BRANCH  28  33
ATOM     33  O   UNL     1       8.866  -4.156  23.754  0.00  0.00    -0.503 OA
ATOM     34  H   UNL     1       8.372  -4.253  24.593  0.00  0.00    +0.292 HD
ENDBRANCH  28  33
ENDBRANCH  24  25
BRANCH  23  35
ATOM     35  O   UNL     1       9.033   6.590  24.041  0.00  0.00    -0.506 OA
ATOM     36  H   UNL     1       9.005   7.205  23.291  0.00  0.00    +0.292 HD
ENDBRANCH  23  35
BRANCH  20  37
ATOM     37  O   UNL     1      13.568   5.564  23.331  0.00  0.00    -0.507 OA
ATOM     38  H   UNL     1      13.554   6.535  23.318  0.00  0.00    +0.292 HD
ENDBRANCH  20  37
ENDBRANCH  13  14
ENDBRANCH   3  13
BRANCH   1  39
ATOM     39  C   UNL     1       6.492  -1.326  26.908  0.00  0.00    +0.197 C 
BRANCH  39  40
ATOM     40  O   UNL     1       5.891  -2.178  25.934  0.00  0.00    -0.346 OA
BRANCH  40  44
ATOM     41  C   UNL     1       2.815  -4.244  28.139  0.00  0.00    +0.041 C 
ATOM     42  C   UNL     1       4.298  -4.194  28.498  0.00  0.00    +0.149 C 
ATOM     43  O   UNL     1       4.943  -3.089  27.851  0.00  0.00    -0.343 OA
ATOM     44  C   UNL     1       5.145  -3.264  26.449  0.00  0.00    +0.282 C 
ATOM     45  C   UNL     1       6.009  -4.511  26.168  0.00  0.00    +0.202 C 
ATOM     46  C   UNL     1       5.331  -5.759  26.759  0.00  0.00    +0.186 C 
ATOM     47  C   UNL     1       5.099  -5.497  28.263  0.00  0.00    +0.174 C 
BRANCH  47  48
ATOM     48  O   UNL     1       6.364  -5.387  28.937  0.00  0.00    -0.387 OA
ATOM     49  H   UNL     1       6.186  -5.386  29.897  0.00  0.00    +0.210 HD
ENDBRANCH  47  48
BRANCH  45  50
ATOM     50  O   UNL     1       6.299  -4.653  24.773  0.00  0.00    -0.384 OA
ATOM     51  H   UNL     1       7.269  -4.797  24.729  0.00  0.00    +0.210 HD
ENDBRANCH  45  50
BRANCH  46  52
ATOM     52  O   UNL     1       4.040  -6.081  26.212  0.00  0.00    -0.340 OA
BRANCH  52  53
ATOM     53  C   UNL     1       3.915  -7.303  25.495  0.00  0.00    +0.282 C 
ATOM     54  O   UNL     1       4.294  -7.071  24.129  0.00  0.00    -0.341 OA
ATOM     55  C   UNL     1       3.354  -6.400  23.277  0.00  0.00    +0.178 C 
ATOM     56  C   UNL     1       1.928  -6.970  23.390  0.00  0.00    +0.177 C 
ATOM     57  C   UNL     1       1.477  -7.193  24.843  0.00  0.00    +0.179 C 
ATOM     58  C   UNL     1       2.538  -7.990  25.610  0.00  0.00    +0.201 C 
BRANCH  58  59
ATOM     59  O   UNL     1       2.599  -9.331  25.087  0.00  0.00    -0.384 OA
ATOM     60  H   UNL     1       2.550  -9.251  24.112  0.00  0.00    +0.210 HD
ENDBRANCH  58  59
BRANCH  57  61
ATOM     61  O   UNL     1       1.128  -5.984  25.509  0.00  0.00    -0.386 OA
ATOM     62  H   UNL     1       1.211  -6.120  26.478  0.00  0.00    +0.210 HD
ENDBRANCH  57  61
BRANCH  56  63
ATOM     63  O   UNL     1       1.943  -8.243  22.703  0.00  0.00    -0.386 OA
ATOM     64  H   UNL     1       1.350  -8.175  21.931  0.00  0.00    +0.210 HD
ENDBRANCH  56  63
BRANCH  55  65
ATOM     65  C   UNL     1       3.454  -4.870  23.360  0.00  0.00    +0.190 C 
BRANCH  65  66
ATOM     66  O   UNL     1       4.532  -4.325  22.610  0.00  0.00    -0.392 OA
ATOM     67  H   UNL     1       5.326  -4.809  22.911  0.00  0.00    +0.210 HD
ENDBRANCH  65  66
ENDBRANCH  55  65
ENDBRANCH  52  53
ENDBRANCH  46  52
ENDBRANCH  40  44
ENDBRANCH  39  40
ENDBRANCH   1  39
TORSDOF 22
ENDMDL
MODEL 2
REMARK VINA RESULT:      -7.4      1.982      5.274
REMARK  Name = 
REMARK  23 active torsions:
REMARK  status: ('A' for Active; 'I' for Inactive)
REMARK    1  A    between atoms: C_1  and  C_2
REMARK    2  A    between atoms: C_4  and  O_69
REMARK    3  A    between atoms: C_6  and  O_52
REMARK    4  A    between atoms: C_8  and  O_51
REMARK    5  A    between atoms: C_10  and  O_13
REMARK    6  A    between atoms: O_13  and  C_14
REMARK    7  A    between atoms: C_14  and  C_15
REMARK    8  A    between atoms: C_17  and  O_50
REMARK    9  A    between atoms: C_19  and  O_49
REMARK   10  A    between atoms: C_21  and  O_48
REMARK   11  A    between atoms: C_23  and  O_26
REMARK   12  A    between atoms: O_26  and  C_27
REMARK   13  A    between atoms: C_28  and  C_40
REMARK   14  A    between atoms: C_32  and  O_39
REMARK   15  A    between atoms: C_34  and  O_38
REMARK   16  A    between atoms: C_42  and  O_47
REMARK   17  A    between atoms: C_43  and  O_46
REMARK   18  A    between atoms: O_52  and  C_53
REMARK   19  A    between atoms: C_55  and  O_68
REMARK   20  A    between atoms: C_57  and  O_67
REMARK   21  A    between atoms: C_59  and  O_66
REMARK   22  A    between atoms: C_61  and  C_64
REMARK   23  A    between atoms: C_64  and  O_65
REMARK                            x       y       z     vdW  Elec       q    Type
REMARK                         _______ _______ _______ _____ _____    ______ ____
ROOT
ATOM      1  C   UNL     1       7.024  -0.768  23.305  0.00  0.00    +0.179 C 
ATOM      2  O   UNL     1       7.614   0.189  24.216  0.00  0.00    -0.331 OA
ATOM      3  C   UNL     1       8.215   1.271  23.490  0.00  0.00    +0.340 C 
ATOM      4  C   UNL     1       9.508   0.717  22.858  0.00  0.00    +0.214 C 
ATOM      5  C   UNL     1       9.061  -0.456  21.919  0.00  0.00    +0.180 C 
ATOM      6  C   UNL     1       8.175  -1.509  22.635  0.00  0.00    +0.177 C 
ENDROOT
BRANCH   4   7
ATOM      7  O   UNL     1      10.166   1.743  22.096  0.00  0.00    -0.383 OA
ATOM      8  H   UNL     1       9.519   2.457  21.947  0.00  0.00    +0.210 HD
ENDBRANCH   4   7
BRANCH   6   9
ATOM      9  O   UNL     1       8.943  -2.237  23.597  0.00  0.00    -0.386 OA
ATOM     10  H   UNL     1       9.432  -1.580  24.130  0.00  0.00    +0.210 HD
ENDBRANCH   6   9
BRANCH   5  11
ATOM     11  O   UNL     1      10.196  -1.045  21.278  0.00  0.00    -0.386 OA
ATOM     12  H   UNL     1      10.174  -0.781  20.339  0.00  0.00    +0.210 HD
ENDBRANCH   5  11
BRANCH   3  13
ATOM     13  O   UNL     1       8.339   2.443  24.337  0.00  0.00    -0.453 OA
BRANCH  13  14
ATOM     14  C   UNL     1       7.466   3.500  23.984  0.00  0.00    +0.214 A 
ATOM     15  C   UNL     1       5.978   3.283  23.920  0.00  0.00    +0.238 A 
ATOM     16  O   UNL     1       5.408   2.366  24.493  0.00  0.00    -0.283 OA
ATOM     17  C   UNL     1       5.127   4.220  23.229  0.00  0.00    +0.109 A 
ATOM     18  C   UNL     1       5.659   5.469  22.995  0.00  0.00    +0.147 A 
ATOM     19  C   UNL     1       4.847   6.465  22.452  0.00  0.00    +0.092 A 
ATOM     20  C   UNL     1       3.506   6.174  22.163  0.00  0.00    +0.124 A 
ATOM     21  C   UNL     1       2.971   4.912  22.386  0.00  0.00    +0.091 A 
ATOM     22  O   UNL     1       6.949   5.779  23.322  0.00  0.00    -0.451 OA
ATOM     23  C   UNL     1       3.791   3.927  22.913  0.00  0.00    +0.135 A 
ATOM     24  C   UNL     1       7.858   4.792  23.762  0.00  0.00    +0.181 A 
BRANCH  24  25
ATOM     25  C   UNL     1       9.209   5.416  24.024  0.00  0.00    +0.025 A 
ATOM     26  C   UNL     1       9.301   6.442  25.006  0.00  0.00    +0.015 A 
ATOM     27  C   UNL     1      10.525   6.941  25.477  0.00  0.00    +0.050 A 
ATOM     28  C   UNL     1      11.692   6.440  24.942  0.00  0.00    +0.158 A 
ATOM     29  C   UNL     1      11.644   5.511  23.903  0.00  0.00    +0.159 A 
ATOM     30  C   UNL     1      10.421   4.994  23.450  0.00  0.00    +0.060 A 
BRANCH  29  31
ATOM     31  O   UNL     1      12.840   5.125  23.367  0.00  0.00    -0.503 OA
ATOM     32  H   UNL     1      13.441   4.939  24.111  0.00  0.00    +0.292 HD
ENDBRANCH  29  31
BRANCH  28  33
ATOM     33  O   UNL     1      12.888   6.857  25.449  0.00  0.00    -0.503 OA
ATOM     34  H   UNL     1      12.773   7.818  25.595  0.00  0.00    +0.292 HD
ENDBRANCH  28  33
ENDBRANCH  24  25
BRANCH  23  35
ATOM     35  O   UNL     1       3.264   2.677  23.101  0.00  0.00    -0.506 OA
ATOM     36  H   UNL     1       3.379   2.405  24.026  0.00  0.00    +0.292 HD
ENDBRANCH  23  35
BRANCH  20  37
ATOM     37  O   UNL     1       2.654   7.108  21.646  0.00  0.00    -0.507 OA
ATOM     38  H   UNL     1       2.347   6.809  20.774  0.00  0.00    +0.292 HD
ENDBRANCH  20  37
ENDBRANCH  13  14
ENDBRANCH   3  13
BRANCH   1  39
ATOM     39  C   UNL     1       6.031  -1.640  24.078  0.00  0.00    +0.197 C 
BRANCH  39  40
ATOM     40  O   UNL     1       6.823  -2.492  24.904  0.00  0.00    -0.346 OA
BRANCH  40  44
ATOM     41  C   UNL     1       4.212  -4.117  27.926  0.00  0.00    +0.041 C 
ATOM     42  C   UNL     1       5.730  -4.268  27.876  0.00  0.00    +0.149 C 
ATOM     43  O   UNL     1       6.315  -3.262  27.038  0.00  0.00    -0.343 OA
ATOM     44  C   UNL     1       6.108  -3.466  25.641  0.00  0.00    +0.282 C 
ATOM     45  C   UNL     1       6.695  -4.820  25.189  0.00  0.00    +0.202 C 
ATOM     46  C   UNL     1       6.044  -5.962  25.986  0.00  0.00    +0.186 C 
ATOM     47  C   UNL     1       6.261  -5.668  27.486  0.00  0.00    +0.174 C 
BRANCH  47  48
ATOM     48  O   UNL     1       7.664  -5.729  27.795  0.00  0.00    -0.387 OA
ATOM     49  H   UNL     1       7.781  -5.382  28.700  0.00  0.00    +0.210 HD
ENDBRANCH  47  48
BRANCH  45  50
ATOM     50  O   UNL     1       6.578  -5.002  23.773  0.00  0.00    -0.384 OA
ATOM     51  H   UNL     1       7.468  -4.792  23.416  0.00  0.00    +0.210 HD
ENDBRANCH  45  50
BRANCH  46  52
ATOM     52  O   UNL     1       4.624  -6.107  25.815  0.00  0.00    -0.340 OA
BRANCH  52  53
ATOM     53  C   UNL     1       4.157  -7.266  25.136  0.00  0.00    +0.282 C 
ATOM     54  O   UNL     1       4.053  -6.963  23.736  0.00  0.00    -0.341 OA
ATOM     55  C   UNL     1       2.933  -6.178  23.301  0.00  0.00    +0.178 C 
ATOM     56  C   UNL     1       1.594  -6.667  23.885  0.00  0.00    +0.177 C 
ATOM     57  C   UNL     1       1.663  -6.963  25.393  0.00  0.00    +0.179 C 
ATOM     58  C   UNL     1       2.856  -7.874  25.699  0.00  0.00    +0.201 C 
BRANCH  58  59
ATOM     59  O   UNL     1       2.621  -9.177  25.130  0.00  0.00    -0.384 OA
ATOM     60  H   UNL     1       2.076  -9.669  25.777  0.00  0.00    +0.210 HD
ENDBRANCH  58  59
BRANCH  57  61
ATOM     61  O   UNL     1       1.667  -5.785  26.192  0.00  0.00    -0.386 OA
ATOM     62  H   UNL     1       1.119  -5.101  25.752  0.00  0.00    +0.210 HD
ENDBRANCH  57  61
BRANCH  56  63
ATOM     63  O   UNL     1       1.265  -7.888  23.182  0.00  0.00    -0.386 OA
ATOM     64  H   UNL     1       0.702  -7.653  22.420  0.00  0.00    +0.210 HD
ENDBRANCH  56  63
BRANCH  55  65
ATOM     65  C   UNL     1       3.179  -4.666  23.411  0.00  0.00    +0.190 C 
BRANCH  65  66
ATOM     66  O   UNL     1       4.268  -4.205  22.621  0.00  0.00    -0.392 OA
ATOM     67  H   UNL     1       4.444  -3.295  22.931  0.00  0.00    +0.210 HD
ENDBRANCH  65  66
ENDBRANCH  55  65
ENDBRANCH  52  53
ENDBRANCH  46  52
ENDBRANCH  40  44
ENDBRANCH  39  40
ENDBRANCH   1  39
TORSDOF 22
ENDMDL
MODEL 3
REMARK VINA RESULT:      -7.2      2.086      9.498
REMARK  Name = 
REMARK  23 active torsions:
REMARK  status: ('A' for Active; 'I' for Inactive)
REMARK    1  A    between atoms: C_1  and  C_2
REMARK    2  A    between atoms: C_4  and  O_69
REMARK    3  A    between atoms: C_6  and  O_52
REMARK    4  A    between atoms: C_8  and  O_51
REMARK    5  A    between atoms: C_10  and  O_13
REMARK    6  A    between atoms: O_13  and  C_14
REMARK    7  A    between atoms: C_14  and  C_15
REMARK    8  A    between atoms: C_17  and  O_50
REMARK    9  A    between atoms: C_19  and  O_49
REMARK   10  A    between atoms: C_21  and  O_48
REMARK   11  A    between atoms: C_23  and  O_26
REMARK   12  A    between atoms: O_26  and  C_27
REMARK   13  A    between atoms: C_28  and  C_40
REMARK   14  A    between atoms: C_32  and  O_39
REMARK   15  A    between atoms: C_34  and  O_38
REMARK   16  A    between atoms: C_42  and  O_47
REMARK   17  A    between atoms: C_43  and  O_46
REMARK   18  A    between atoms: O_52  and  C_53
REMARK   19  A    between atoms: C_55  and  O_68
REMARK   20  A    between atoms: C_57  and  O_67
REMARK   21  A    between atoms: C_59  and  O_66
REMARK   22  A    between atoms: C_61  and  C_64
REMARK   23  A    between atoms: C_64  and  O_65
REMARK                            x       y       z     vdW  Elec       q    Type
REMARK                         _______ _______ _______ _____ _____    ______ ____
ROOT
ATOM      1  C   UNL     1       7.320  -3.379  24.288  0.00  0.00    +0.179 C 
ATOM      2  O   UNL     1       6.245  -4.121  24.910  0.00  0.00    -0.331 OA
ATOM      3  C   UNL     1       6.585  -4.460  26.264  0.00  0.00    +0.340 C 
ATOM      4  C   UNL     1       7.637  -5.585  26.188  0.00  0.00    +0.214 C 
ATOM      5  C   UNL     1       8.853  -4.987  25.400  0.00  0.00    +0.180 C 
ATOM      6  C   UNL     1       8.452  -4.368  24.034  0.00  0.00    +0.177 C 
ENDROOT
BRANCH   4   7
ATOM      7  O   UNL     1       8.043  -5.972  27.512  0.00  0.00    -0.383 OA
ATOM      8  H   UNL     1       7.475  -5.494  28.144  0.00  0.00    +0.210 HD
ENDBRANCH   4   7
BRANCH   6   9
ATOM      9  O   UNL     1       8.042  -5.391  23.124  0.00  0.00    -0.386 OA
ATOM     10  H   UNL     1       7.623  -6.097  23.655  0.00  0.00    +0.210 HD
ENDBRANCH   6   9
BRANCH   5  11
ATOM     11  O   UNL     1       9.895  -5.958  25.272  0.00  0.00    -0.386 OA
ATOM     12  H   UNL     1       9.492  -6.779  24.932  0.00  0.00    +0.210 HD
ENDBRANCH   5  11
BRANCH   3  13
ATOM     13  O   UNL     1       5.386  -4.723  27.036  0.00  0.00    -0.453 OA
BRANCH  13  14
ATOM     14  C   UNL     1       4.385  -3.731  26.897  0.00  0.00    +0.214 A 
ATOM     15  C   UNL     1       4.631  -2.318  27.355  0.00  0.00    +0.238 A 
ATOM     16  O   UNL     1       5.748  -1.849  27.514  0.00  0.00    -0.283 OA
ATOM     17  C   UNL     1       3.531  -1.407  27.553  0.00  0.00    +0.109 A 
ATOM     18  C   UNL     1       2.343  -1.744  26.942  0.00  0.00    +0.147 A 
ATOM     19  C   UNL     1       1.278  -0.844  26.980  0.00  0.00    +0.092 A 
ATOM     20  C   UNL     1       1.443   0.386  27.632  0.00  0.00    +0.124 A 
ATOM     21  C   UNL     1       2.635   0.724  28.259  0.00  0.00    +0.091 A 
ATOM     22  O   UNL     1       2.187  -2.917  26.259  0.00  0.00    -0.451 OA
ATOM     23  C   UNL     1       3.682  -0.185  28.227  0.00  0.00    +0.135 A 
ATOM     24  C   UNL     1       3.178  -3.922  26.281  0.00  0.00    +0.181 A 
BRANCH  24  25
ATOM     25  C   UNL     1       2.727  -5.109  25.462  0.00  0.00    +0.025 A 
ATOM     26  C   UNL     1       2.172  -4.871  24.173  0.00  0.00    +0.015 A 
ATOM     27  C   UNL     1       1.915  -5.896  23.251  0.00  0.00    +0.050 A 
ATOM     28  C   UNL     1       2.180  -7.198  23.619  0.00  0.00    +0.158 A 
ATOM     29  C   UNL     1       2.624  -7.484  24.910  0.00  0.00    +0.159 A 
ATOM     30  C   UNL     1       2.904  -6.456  25.823  0.00  0.00    +0.060 A 
BRANCH  29  31
ATOM     31  O   UNL     1       2.783  -8.803  25.227  0.00  0.00    -0.503 OA
ATOM     32  H   UNL     1       3.635  -8.886  25.693  0.00  0.00    +0.292 HD
ENDBRANCH  29  31
BRANCH  28  33
ATOM     33  O   UNL     1       2.013  -8.194  22.703  0.00  0.00    -0.503 OA
ATOM     34  H   UNL     1       2.247  -9.014  23.183  0.00  0.00    +0.292 HD
ENDBRANCH  28  33
ENDBRANCH  24  25
BRANCH  23  35
ATOM     35  O   UNL     1       4.844   0.142  28.873  0.00  0.00    -0.506 OA
ATOM     36  H   UNL     1       5.561   0.255  28.229  0.00  0.00    +0.292 HD
ENDBRANCH  23  35
BRANCH  20  37
ATOM     37  O   UNL     1       0.446   1.319  27.692  0.00  0.00    -0.507 OA
ATOM     38  H   UNL     1       0.829   2.179  27.931  0.00  0.00    +0.292 HD
ENDBRANCH  20  37
ENDBRANCH  13  14
ENDBRANCH   3  13
BRANCH   1  39
ATOM     39  C   UNL     1       6.774  -2.662  23.051  0.00  0.00    +0.197 C 
BRANCH  39  40
ATOM     40  O   UNL     1       6.327  -1.386  23.507  0.00  0.00    -0.346 OA
BRANCH  40  44
ATOM     41  C   UNL     1       8.950   1.348  21.448  0.00  0.00    +0.041 C 
ATOM     42  C   UNL     1       9.382   0.218  22.379  0.00  0.00    +0.149 C 
ATOM     43  O   UNL     1       8.336  -0.752  22.524  0.00  0.00    -0.343 OA
ATOM     44  C   UNL     1       7.240  -0.319  23.329  0.00  0.00    +0.282 C 
ATOM     45  C   UNL     1       7.711   0.045  24.753  0.00  0.00    +0.202 C 
ATOM     46  C   UNL     1       8.777   1.151  24.682  0.00  0.00    +0.186 C 
ATOM     47  C   UNL     1       9.914   0.647  23.767  0.00  0.00    +0.174 C 
BRANCH  47  48
ATOM     48  O   UNL     1      10.564  -0.479  24.378  0.00  0.00    -0.387 OA
ATOM     49  H   UNL     1       9.963  -1.245  24.299  0.00  0.00    +0.210 HD
ENDBRANCH  47  48
BRANCH  45  50
ATOM     50  O   UNL     1       6.612   0.394  25.603  0.00  0.00    -0.384 OA
ATOM     51  H   UNL     1       5.824   0.372  25.019  0.00  0.00    +0.210 HD
ENDBRANCH  45  50
BRANCH  46  52
ATOM     52  O   UNL     1       8.339   2.398  24.115  0.00  0.00    -0.340 OA
BRANCH  52  53
ATOM     53  C   UNL     1       8.139   3.491  25.003  0.00  0.00    +0.282 C 
ATOM     54  O   UNL     1       6.757   3.509  25.398  0.00  0.00    -0.341 OA
ATOM     55  C   UNL     1       5.797   4.013  24.458  0.00  0.00    +0.178 C 
ATOM     56  C   UNL     1       6.229   5.343  23.813  0.00  0.00    +0.177 C 
ATOM     57  C   UNL     1       7.693   5.342  23.342  0.00  0.00    +0.179 C 
ATOM     58  C   UNL     1       8.611   4.860  24.471  0.00  0.00    +0.201 C 
BRANCH  58  59
ATOM     59  O   UNL     1       8.618   5.836  25.530  0.00  0.00    -0.384 OA
ATOM     60  H   UNL     1       8.750   5.340  26.365  0.00  0.00    +0.210 HD
ENDBRANCH  58  59
BRANCH  57  61
ATOM     61  O   UNL     1       7.891   4.607  22.139  0.00  0.00    -0.386 OA
ATOM     62  H   UNL     1       7.857   5.227  21.379  0.00  0.00    +0.210 HD
ENDBRANCH  57  61
BRANCH  56  63
ATOM     63  O   UNL     1       6.063   6.361  24.828  0.00  0.00    -0.386 OA
ATOM     64  H   UNL     1       6.918   6.470  25.285  0.00  0.00    +0.210 HD
ENDBRANCH  56  63
BRANCH  55  65
ATOM     65  C   UNL     1       5.299   2.943  23.475  0.00  0.00    +0.190 C 
BRANCH  65  66
ATOM     66  O   UNL     1       4.585   1.882  24.098  0.00  0.00    -0.392 OA
ATOM     67  H   UNL     1       3.643   2.139  24.043  0.00  0.00    +0.210 HD
ENDBRANCH  65  66
ENDBRANCH  55  65
ENDBRANCH  52  53
ENDBRANCH  46  52
ENDBRANCH  40  44
ENDBRANCH  39  40
ENDBRANCH   1  39
TORSDOF 22
ENDMDL
MODEL 4
REMARK VINA RESULT:      -7.1      2.516      5.995
REMARK  Name = 
REMARK  23 active torsions:
REMARK  status: ('A' for Active; 'I' for Inactive)
REMARK    1  A    between atoms: C_1  and  C_2
REMARK    2  A    between atoms: C_4  and  O_69
REMARK    3  A    between atoms: C_6  and  O_52
REMARK    4  A    between atoms: C_8  and  O_51
REMARK    5  A    between atoms: C_10  and  O_13
REMARK    6  A    between atoms: O_13  and  C_14
REMARK    7  A    between atoms: C_14  and  C_15
REMARK    8  A    between atoms: C_17  and  O_50
REMARK    9  A    between atoms: C_19  and  O_49
REMARK   10  A    between atoms: C_21  and  O_48
REMARK   11  A    between atoms: C_23  and  O_26
REMARK   12  A    between atoms: O_26  and  C_27
REMARK   13  A    between atoms: C_28  and  C_40
REMARK   14  A    between atoms: C_32  and  O_39
REMARK   15  A    between atoms: C_34  and  O_38
REMARK   16  A    between atoms: C_42  and  O_47
REMARK   17  A    between atoms: C_43  and  O_46
REMARK   18  A    between atoms: O_52  and  C_53
REMARK   19  A    between atoms: C_55  and  O_68
REMARK   20  A    between atoms: C_57  and  O_67
REMARK   21  A    between atoms: C_59  and  O_66
REMARK   22  A    between atoms: C_61  and  C_64
REMARK   23  A    between atoms: C_64  and  O_65
REMARK                            x       y       z     vdW  Elec       q    Type
REMARK                         _______ _______ _______ _____ _____    ______ ____
ROOT
ATOM      1  C   UNL     1       6.865   1.079  27.417  0.00  0.00    +0.179 C 
ATOM      2  O   UNL     1       6.385   2.040  26.448  0.00  0.00    -0.331 OA
ATOM      3  C   UNL     1       5.584   3.044  27.089  0.00  0.00    +0.340 C 
ATOM      4  C   UNL     1       4.240   2.377  27.446  0.00  0.00    +0.214 C 
ATOM      5  C   UNL     1       4.590   1.189  28.407  0.00  0.00    +0.180 C 
ATOM      6  C   UNL     1       5.667   0.232  27.831  0.00  0.00    +0.177 C 
ENDROOT
BRANCH   4   7
ATOM      7  O   UNL     1       3.381   3.319  28.110  0.00  0.00    -0.383 OA
ATOM      8  H   UNL     1       2.675   2.812  28.551  0.00  0.00    +0.210 HD
ENDBRANCH   4   7
BRANCH   6   9
ATOM      9  O   UNL     1       5.144  -0.493  26.716  0.00  0.00    -0.386 OA
ATOM     10  H   UNL     1       5.700  -0.272  25.943  0.00  0.00    +0.210 HD
ENDBRANCH   6   9
BRANCH   5  11
ATOM     11  O   UNL     1       3.403   0.497  28.803  0.00  0.00    -0.386 OA
ATOM     12  H   UNL     1       3.649  -0.428  28.989  0.00  0.00    +0.210 HD
ENDBRANCH   5  11
BRANCH   3  13
ATOM     13  O   UNL     1       5.534   4.246  26.279  0.00  0.00    -0.453 OA
BRANCH  13  14
ATOM     14  C   UNL     1       4.874   4.074  25.038  0.00  0.00    +0.214 A 
ATOM     15  C   UNL     1       3.395   4.326  24.911  0.00  0.00    +0.238 A 
ATOM     16  O   UNL     1       2.762   5.015  25.696  0.00  0.00    -0.283 OA
ATOM     17  C   UNL     1       2.658   3.819  23.780  0.00  0.00    +0.109 A 
ATOM     18  C   UNL     1       3.401   3.467  22.675  0.00  0.00    +0.147 A 
ATOM     19  C   UNL     1       2.746   3.096  21.502  0.00  0.00    +0.092 A 
ATOM     20  C   UNL     1       1.343   3.099  21.470  0.00  0.00    +0.124 A 
ATOM     21  C   UNL     1       0.591   3.442  22.586  0.00  0.00    +0.091 A 
ATOM     22  O   UNL     1       4.767   3.512  22.678  0.00  0.00    -0.451 OA
ATOM     23  C   UNL     1       1.254   3.795  23.751  0.00  0.00    +0.135 A 
ATOM     24  C   UNL     1       5.496   3.761  23.861  0.00  0.00    +0.181 A 
BRANCH  24  25
ATOM     25  C   UNL     1       6.978   3.727  23.569  0.00  0.00    +0.025 A 
ATOM     26  C   UNL     1       7.854   4.447  24.430  0.00  0.00    +0.015 A 
ATOM     27  C   UNL     1       9.250   4.319  24.381  0.00  0.00    +0.050 A 
ATOM     28  C   UNL     1       9.804   3.483  23.435  0.00  0.00    +0.158 A 
ATOM     29  C   UNL     1       8.987   2.842  22.503  0.00  0.00    +0.159 A 
ATOM     30  C   UNL     1       7.590   2.951  22.569  0.00  0.00    +0.060 A 
BRANCH  29  31
ATOM     31  O   UNL     1       9.615   2.098  21.545  0.00  0.00    -0.503 OA
ATOM     32  H   UNL     1       9.087   1.290  21.417  0.00  0.00    +0.292 HD
ENDBRANCH  29  31
BRANCH  28  33
ATOM     33  O   UNL     1      11.153   3.286  23.431  0.00  0.00    -0.503 OA
ATOM     34  H   UNL     1      11.531   4.154  23.678  0.00  0.00    +0.292 HD
ENDBRANCH  28  33
ENDBRANCH  24  25
BRANCH  23  35
ATOM     35  O   UNL     1       0.506   4.102  24.855  0.00  0.00    -0.506 OA
ATOM     36  H   UNL     1      -0.285   3.539  24.886  0.00  0.00    +0.292 HD
ENDBRANCH  23  35
BRANCH  20  37
ATOM     37  O   UNL     1       0.640   2.762  20.348  0.00  0.00    -0.507 OA
ATOM     38  H   UNL     1       1.114   3.088  19.566  0.00  0.00    +0.292 HD
ENDBRANCH  20  37
ENDBRANCH  13  14
ENDBRANCH   3  13
BRANCH   1  39
ATOM     39  C   UNL     1       8.044   0.312  26.811  0.00  0.00    +0.197 C 
BRANCH  39  40
ATOM     40  O   UNL     1       7.917   0.459  25.397  0.00  0.00    -0.346 OA
BRANCH  40  44
ATOM     41  C   UNL     1       9.531  -3.392  24.319  0.00  0.00    +0.041 C 
ATOM     42  C   UNL     1       9.827  -2.067  23.622  0.00  0.00    +0.149 C 
ATOM     43  O   UNL     1       9.513  -0.959  24.476  0.00  0.00    -0.343 OA
ATOM     44  C   UNL     1       8.116  -0.721  24.640  0.00  0.00    +0.282 C 
ATOM     45  C   UNL     1       7.440  -0.441  23.281  0.00  0.00    +0.202 C 
ATOM     46  C   UNL     1       7.660  -1.634  22.335  0.00  0.00    +0.186 C 
ATOM     47  C   UNL     1       9.182  -1.873  22.229  0.00  0.00    +0.174 C 
BRANCH  47  48
ATOM     48  O   UNL     1       9.805  -0.748  21.586  0.00  0.00    -0.387 OA
ATOM     49  H   UNL     1       9.894  -0.040  22.253  0.00  0.00    +0.210 HD
ENDBRANCH  47  48
BRANCH  45  50
ATOM     50  O   UNL     1       6.056  -0.110  23.434  0.00  0.00    -0.384 OA
ATOM     51  H   UNL     1       5.759   0.160  22.538  0.00  0.00    +0.210 HD
ENDBRANCH  45  50
BRANCH  46  52
ATOM     52  O   UNL     1       7.095  -2.883  22.771  0.00  0.00    -0.340 OA
BRANCH  52  53
ATOM     53  C   UNL     1       6.294  -3.603  21.843  0.00  0.00    +0.282 C 
ATOM     54  O   UNL     1       4.918  -3.477  22.236  0.00  0.00    -0.341 OA
ATOM     55  C   UNL     1       4.461  -4.269  23.343  0.00  0.00    +0.178 C 
ATOM     56  C   UNL     1       4.901  -5.741  23.250  0.00  0.00    +0.177 C 
ATOM     57  C   UNL     1       6.382  -5.910  22.869  0.00  0.00    +0.179 C 
ATOM     58  C   UNL     1       6.706  -5.074  21.626  0.00  0.00    +0.201 C 
BRANCH  58  59
ATOM     59  O   UNL     1       6.020  -5.626  20.486  0.00  0.00    -0.384 OA
ATOM     60  H   UNL     1       5.754  -6.535  20.735  0.00  0.00    +0.210 HD
ENDBRANCH  58  59
BRANCH  57  61
ATOM     61  O   UNL     1       7.269  -5.634  23.948  0.00  0.00    -0.386 OA
ATOM     62  H   UNL     1       6.808  -5.065  24.601  0.00  0.00    +0.210 HD
ENDBRANCH  57  61
BRANCH  56  63
ATOM     63  O   UNL     1       4.081  -6.347  22.223  0.00  0.00    -0.386 OA
ATOM     64  H   UNL     1       3.467  -5.666  21.889  0.00  0.00    +0.210 HD
ENDBRANCH  56  63
BRANCH  55  65
ATOM     65  C   UNL     1       4.708  -3.598  24.703  0.00  0.00    +0.190 C 
BRANCH  65  66
ATOM     66  O   UNL     1       4.696  -2.177  24.651  0.00  0.00    -0.392 OA
ATOM     67  H   UNL     1       4.386  -1.890  25.533  0.00  0.00    +0.210 HD
ENDBRANCH  65  66
ENDBRANCH  55  65
ENDBRANCH  52  53
ENDBRANCH  46  52
ENDBRANCH  40  44
ENDBRANCH  39  40
ENDBRANCH   1  39
TORSDOF 22
ENDMDL
MODEL 5
REMARK VINA RESULT:      -7.0      2.275      6.517
REMARK  Name = 
REMARK  23 active torsions:
REMARK  status: ('A' for Active; 'I' for Inactive)
REMARK    1  A    between atoms: C_1  and  C_2
REMARK    2  A    between atoms: C_4  and  O_69
REMARK    3  A    between atoms: C_6  and  O_52
REMARK    4  A    between atoms: C_8  and  O_51
REMARK    5  A    between atoms: C_10  and  O_13
REMARK    6  A    between atoms: O_13  and  C_14
REMARK    7  A    between atoms: C_14  and  C_15
REMARK    8  A    between atoms: C_17  and  O_50
REMARK    9  A    between atoms: C_19  and  O_49
REMARK   10  A    between atoms: C_21  and  O_48
REMARK   11  A    between atoms: C_23  and  O_26
REMARK   12  A    between atoms: O_26  and  C_27
REMARK   13  A    between atoms: C_28  and  C_40
REMARK   14  A    between atoms: C_32  and  O_39
REMARK   15  A    between atoms: C_34  and  O_38
REMARK   16  A    between atoms: C_42  and  O_47
REMARK   17  A    between atoms: C_43  and  O_46
REMARK   18  A    between atoms: O_52  and  C_53
REMARK   19  A    between atoms: C_55  and  O_68
REMARK   20  A    between atoms: C_57  and  O_67
REMARK   21  A    between atoms: C_59  and  O_66
REMARK   22  A    between atoms: C_61  and  C_64
REMARK   23  A    between atoms: C_64  and  O_65
REMARK                            x       y       z     vdW  Elec       q    Type
REMARK                         _______ _______ _______ _____ _____    ______ ____
ROOT
ATOM      1  C   UNL     1       8.510   2.607  22.748  0.00  0.00    +0.179 C 
ATOM      2  O   UNL     1       7.851   3.089  23.943  0.00  0.00    -0.331 OA
ATOM      3  C   UNL     1       7.970   4.516  24.042  0.00  0.00    +0.340 C 
ATOM      4  C   UNL     1       9.430   4.813  24.440  0.00  0.00    +0.214 C 
ATOM      5  C   UNL     1      10.319   4.219  23.294  0.00  0.00    +0.180 C 
ATOM      6  C   UNL     1      10.011   2.729  22.990  0.00  0.00    +0.177 C 
ENDROOT
BRANCH   4   7
ATOM      7  O   UNL     1       9.636   6.232  24.545  0.00  0.00    -0.383 OA
ATOM      8  H   UNL     1      10.346   6.472  23.923  0.00  0.00    +0.210 HD
ENDBRANCH   4   7
BRANCH   6   9
ATOM      9  O   UNL     1      10.421   1.902  24.081  0.00  0.00    -0.386 OA
ATOM     10  H   UNL     1       9.648   1.363  24.340  0.00  0.00    +0.210 HD
ENDBRANCH   6   9
BRANCH   5  11
ATOM     11  O   UNL     1      11.705   4.442  23.567  0.00  0.00    -0.386 OA
ATOM     12  H   UNL     1      12.188   3.629  23.326  0.00  0.00    +0.210 HD
ENDBRANCH   5  11
BRANCH   3  13
ATOM     13  O   UNL     1       6.927   5.053  24.895  0.00  0.00    -0.453 OA
BRANCH  13  14
ATOM     14  C   UNL     1       6.201   4.066  25.603  0.00  0.00    +0.214 A 
ATOM     15  C   UNL     1       6.637   3.622  26.974  0.00  0.00    +0.238 A 
ATOM     16  O   UNL     1       7.361   4.291  27.696  0.00  0.00    -0.283 OA
ATOM     17  C   UNL     1       6.140   2.394  27.542  0.00  0.00    +0.109 A 
ATOM     18  C   UNL     1       4.993   1.880  26.977  0.00  0.00    +0.147 A 
ATOM     19  C   UNL     1       4.383   0.770  27.561  0.00  0.00    +0.092 A 
ATOM     20  C   UNL     1       4.946   0.207  28.715  0.00  0.00    +0.124 A 
ATOM     21  C   UNL     1       6.108   0.715  29.281  0.00  0.00    +0.091 A 
ATOM     22  O   UNL     1       4.406   2.452  25.884  0.00  0.00    -0.451 OA
ATOM     23  C   UNL     1       6.713   1.810  28.683  0.00  0.00    +0.135 A 
ATOM     24  C   UNL     1       5.031   3.501  25.173  0.00  0.00    +0.181 A 
BRANCH  24  25
ATOM     25  C   UNL     1       4.168   3.916  24.004  0.00  0.00    +0.025 A 
ATOM     26  C   UNL     1       4.075   5.301  23.691  0.00  0.00    +0.015 A 
ATOM     27  C   UNL     1       3.478   5.780  22.515  0.00  0.00    +0.050 A 
ATOM     28  C   UNL     1       2.928   4.872  21.636  0.00  0.00    +0.158 A 
ATOM     29  C   UNL     1       2.904   3.514  21.956  0.00  0.00    +0.159 A 
ATOM     30  C   UNL     1       3.522   3.034  23.120  0.00  0.00    +0.060 A 
BRANCH  29  31
ATOM     31  O   UNL     1       2.267   2.687  21.075  0.00  0.00    -0.503 OA
ATOM     32  H   UNL     1       2.174   1.821  21.511  0.00  0.00    +0.292 HD
ENDBRANCH  29  31
BRANCH  28  33
ATOM     33  O   UNL     1       2.420   5.318  20.451  0.00  0.00    -0.503 OA
ATOM     34  H   UNL     1       2.195   4.504  19.956  0.00  0.00    +0.292 HD
ENDBRANCH  28  33
ENDBRANCH  24  25
BRANCH  23  35
ATOM     35  O   UNL     1       7.875   2.286  29.228  0.00  0.00    -0.506 OA
ATOM     36  H   UNL     1       7.674   2.904  29.949  0.00  0.00    +0.292 HD
ENDBRANCH  23  35
BRANCH  20  37
ATOM     37  O   UNL     1       4.390  -0.870  29.346  0.00  0.00    -0.507 OA
ATOM     38  H   UNL     1       4.844  -1.678  29.054  0.00  0.00    +0.292 HD
ENDBRANCH  20  37
ENDBRANCH  13  14
ENDBRANCH   3  13
BRANCH   1  39
ATOM     39  C   UNL     1       7.999   1.197  22.437  0.00  0.00    +0.197 C 
BRANCH  39  40
ATOM     40  O   UNL     1       7.119   0.857  23.507  0.00  0.00    -0.346 OA
BRANCH  40  44
ATOM     41  C   UNL     1       8.631  -1.452  26.821  0.00  0.00    +0.041 C 
ATOM     42  C   UNL     1       9.315  -1.267  25.469  0.00  0.00    +0.149 C 
ATOM     43  O   UNL     1       8.798  -0.116  24.788  0.00  0.00    -0.343 OA
ATOM     44  C   UNL     1       7.484  -0.286  24.258  0.00  0.00    +0.282 C 
ATOM     45  C   UNL     1       7.443  -1.455  23.251  0.00  0.00    +0.202 C 
ATOM     46  C   UNL     1       7.902  -2.751  23.939  0.00  0.00    +0.186 C 
ATOM     47  C   UNL     1       9.306  -2.497  24.529  0.00  0.00    +0.174 C 
BRANCH  47  48
ATOM     48  O   UNL     1      10.245  -2.269  23.465  0.00  0.00    -0.387 OA
ATOM     49  H   UNL     1      11.134  -2.485  23.806  0.00  0.00    +0.210 HD
ENDBRANCH  47  48
BRANCH  45  50
ATOM     50  O   UNL     1       6.155  -1.584  22.639  0.00  0.00    -0.384 OA
ATOM     51  H   UNL     1       5.658  -2.198  23.223  0.00  0.00    +0.210 HD
ENDBRANCH  45  50
BRANCH  46  52
ATOM     52  O   UNL     1       7.086  -3.191  25.039  0.00  0.00    -0.340 OA
BRANCH  52  53
ATOM     53  C   UNL     1       7.314  -4.501  25.545  0.00  0.00    +0.282 C 
ATOM     54  O   UNL     1       6.412  -5.406  24.888  0.00  0.00    -0.341 OA
ATOM     55  C   UNL     1       5.041  -5.411  25.311  0.00  0.00    +0.178 C 
ATOM     56  C   UNL     1       4.884  -5.453  26.843  0.00  0.00    +0.177 C 
ATOM     57  C   UNL     1       5.810  -4.465  27.574  0.00  0.00    +0.179 C 
ATOM     58  C   UNL     1       7.252  -4.628  27.082  0.00  0.00    +0.201 C 
BRANCH  58  59
ATOM     59  O   UNL     1       7.759  -5.909  27.501  0.00  0.00    -0.384 OA
ATOM     60  H   UNL     1       6.984  -6.433  27.792  0.00  0.00    +0.210 HD
ENDBRANCH  58  59
BRANCH  57  61
ATOM     61  O   UNL     1       5.362  -3.117  27.490  0.00  0.00    -0.386 OA
ATOM     62  H   UNL     1       4.841  -3.006  26.666  0.00  0.00    +0.210 HD
ENDBRANCH  57  61
BRANCH  56  63
ATOM     63  O   UNL     1       5.221  -6.800  27.249  0.00  0.00    -0.386 OA
ATOM     64  H   UNL     1       6.050  -6.760  27.762  0.00  0.00    +0.210 HD
ENDBRANCH  56  63
BRANCH  55  65
ATOM     65  C   UNL     1       4.188  -4.352  24.597  0.00  0.00    +0.190 C 
BRANCH  65  66
ATOM     66  O   UNL     1       4.655  -4.023  23.295  0.00  0.00    -0.392 OA
ATOM     67  H   UNL     1       3.865  -4.058  22.720  0.00  0.00    +0.210 HD
ENDBRANCH  65  66
ENDBRANCH  55  65
ENDBRANCH  52  53
ENDBRANCH  46  52
ENDBRANCH  40  44
ENDBRANCH  39  40
ENDBRANCH   1  39
TORSDOF 22
ENDMDL
MODEL 6
REMARK VINA RESULT:      -6.9      1.958      8.668
REMARK  Name = 
REMARK  23 active torsions:
REMARK  status: ('A' for Active; 'I' for Inactive)
REMARK    1  A    between atoms: C_1  and  C_2
REMARK    2  A    between atoms: C_4  and  O_69
REMARK    3  A    between atoms: C_6  and  O_52
REMARK    4  A    between atoms: C_8  and  O_51
REMARK    5  A    between atoms: C_10  and  O_13
REMARK    6  A    between atoms: O_13  and  C_14
REMARK    7  A    between atoms: C_14  and  C_15
REMARK    8  A    between atoms: C_17  and  O_50
REMARK    9  A    between atoms: C_19  and  O_49
REMARK   10  A    between atoms: C_21  and  O_48
REMARK   11  A    between atoms: C_23  and  O_26
REMARK   12  A    between atoms: O_26  and  C_27
REMARK   13  A    between atoms: C_28  and  C_40
REMARK   14  A    between atoms: C_32  and  O_39
REMARK   15  A    between atoms: C_34  and  O_38
REMARK   16  A    between atoms: C_42  and  O_47
REMARK   17  A    between atoms: C_43  and  O_46
REMARK   18  A    between atoms: O_52  and  C_53
REMARK   19  A    between atoms: C_55  and  O_68
REMARK   20  A    between atoms: C_57  and  O_67
REMARK   21  A    between atoms: C_59  and  O_66
REMARK   22  A    between atoms: C_61  and  C_64
REMARK   23  A    between atoms: C_64  and  O_65
REMARK                            x       y       z     vdW  Elec       q    Type
REMARK                         _______ _______ _______ _____ _____    ______ ____
ROOT
ATOM      1  C   UNL     1       4.012  -0.638  27.568  0.00  0.00    +0.179 C 
ATOM      2  O   UNL     1       5.182  -1.429  27.883  0.00  0.00    -0.331 OA
ATOM      3  C   UNL     1       4.955  -2.811  27.567  0.00  0.00    +0.340 C 
ATOM      4  C   UNL     1       4.000  -3.361  28.647  0.00  0.00    +0.214 C 
ATOM      5  C   UNL     1       2.692  -2.503  28.543  0.00  0.00    +0.180 C 
ATOM      6  C   UNL     1       2.955  -0.976  28.614  0.00  0.00    +0.177 C 
ENDROOT
BRANCH   4   7
ATOM      7  O   UNL     1       3.710  -4.746  28.392  0.00  0.00    -0.383 OA
ATOM      8  H   UNL     1       2.740  -4.843  28.372  0.00  0.00    +0.210 HD
ENDBRANCH   4   7
BRANCH   6   9
ATOM      9  O   UNL     1       3.395  -0.605  29.923  0.00  0.00    -0.386 OA
ATOM     10  H   UNL     1       2.638  -0.179  30.370  0.00  0.00    +0.210 HD
ENDBRANCH   6   9
BRANCH   5  11
ATOM     11  O   UNL     1       1.731  -2.935  29.510  0.00  0.00    -0.386 OA
ATOM     12  H   UNL     1       0.935  -2.381  29.403  0.00  0.00    +0.210 HD
ENDBRANCH   5  11
BRANCH   3  13
ATOM     13  O   UNL     1       6.217  -3.503  27.383  0.00  0.00    -0.453 OA
BRANCH  13  14
ATOM     14  C   UNL     1       6.829  -3.255  26.131  0.00  0.00    +0.214 A 
ATOM     15  C   UNL     1       7.970  -2.281  26.009  0.00  0.00    +0.238 A 
ATOM     16  O   UNL     1       8.666  -1.942  26.954  0.00  0.00    -0.283 OA
ATOM     17  C   UNL     1       8.354  -1.756  24.722  0.00  0.00    +0.109 A 
ATOM     18  C   UNL     1       7.921  -2.461  23.621  0.00  0.00    +0.147 A 
ATOM     19  C   UNL     1       8.366  -2.087  22.353  0.00  0.00    +0.092 A 
ATOM     20  C   UNL     1       9.251  -1.007  22.229  0.00  0.00    +0.124 A 
ATOM     21  C   UNL     1       9.680  -0.286  23.336  0.00  0.00    +0.091 A 
ATOM     22  O   UNL     1       7.102  -3.549  23.735  0.00  0.00    -0.451 OA
ATOM     23  C   UNL     1       9.220  -0.658  24.589  0.00  0.00    +0.135 A 
ATOM     24  C   UNL     1       6.519  -3.909  24.969  0.00  0.00    +0.181 A 
BRANCH  24  25
ATOM     25  C   UNL     1       5.646  -5.130  24.790  0.00  0.00    +0.025 A 
ATOM     26  C   UNL     1       5.590  -6.082  25.846  0.00  0.00    +0.015 A 
ATOM     27  C   UNL     1       4.663  -7.135  25.877  0.00  0.00    +0.050 A 
ATOM     28  C   UNL     1       3.787  -7.275  24.822  0.00  0.00    +0.158 A 
ATOM     29  C   UNL     1       3.879  -6.427  23.718  0.00  0.00    +0.159 A 
ATOM     30  C   UNL     1       4.790  -5.360  23.699  0.00  0.00    +0.060 A 
BRANCH  29  31
ATOM     31  O   UNL     1       3.033  -6.681  22.676  0.00  0.00    -0.503 OA
ATOM     32  H   UNL     1       2.346  -5.991  22.690  0.00  0.00    +0.292 HD
ENDBRANCH  29  31
BRANCH  28  33
ATOM     33  O   UNL     1       2.828  -8.243  24.879  0.00  0.00    -0.503 OA
ATOM     34  H   UNL     1       2.137  -7.873  25.466  0.00  0.00    +0.292 HD
ENDBRANCH  28  33
ENDBRANCH  24  25
BRANCH  23  35
ATOM     35  O   UNL     1       9.623   0.076  25.672  0.00  0.00    -0.506 OA
ATOM     36  H   UNL     1       9.667  -0.491  26.459  0.00  0.00    +0.292 HD
ENDBRANCH  23  35
BRANCH  20  37
ATOM     37  O   UNL     1       9.738  -0.599  21.019  0.00  0.00    -0.507 OA
ATOM     38  H   UNL     1      10.080   0.306  21.102  0.00  0.00    +0.292 HD
ENDBRANCH  20  37
ENDBRANCH  13  14
ENDBRANCH   3  13
BRANCH   1  39
ATOM     39  C   UNL     1       4.419   0.835  27.485  0.00  0.00    +0.197 C 
BRANCH  39  40
ATOM     40  O   UNL     1       5.076   0.987  26.227  0.00  0.00    -0.346 OA
BRANCH  40  44
ATOM     41  C   UNL     1       3.824   5.078  25.690  0.00  0.00    +0.041 C 
ATOM     42  C   UNL     1       3.169   3.849  25.066  0.00  0.00    +0.149 C 
ATOM     43  O   UNL     1       3.524   2.660  25.784  0.00  0.00    -0.343 OA
ATOM     44  C   UNL     1       4.867   2.224  25.573  0.00  0.00    +0.282 C 
ATOM     45  C   UNL     1       5.124   1.936  24.079  0.00  0.00    +0.202 C 
ATOM     46  C   UNL     1       4.848   3.201  23.250  0.00  0.00    +0.186 C 
ATOM     47  C   UNL     1       3.402   3.651  23.549  0.00  0.00    +0.174 C 
BRANCH  47  48
ATOM     48  O   UNL     1       2.477   2.661  23.067  0.00  0.00    -0.387 OA
ATOM     49  H   UNL     1       2.771   1.794  23.406  0.00  0.00    +0.210 HD
ENDBRANCH  47  48
BRANCH  45  50
ATOM     50  O   UNL     1       6.438   1.410  23.859  0.00  0.00    -0.384 OA
ATOM     51  H   UNL     1       6.367   0.891  23.029  0.00  0.00    +0.210 HD
ENDBRANCH  45  50
BRANCH  46  52
ATOM     52  O   UNL     1       5.683   4.333  23.550  0.00  0.00    -0.340 OA
BRANCH  52  53
ATOM     53  C   UNL     1       6.710   4.659  22.622  0.00  0.00    +0.282 C 
ATOM     54  O   UNL     1       7.909   3.970  23.010  0.00  0.00    -0.341 OA
ATOM     55  C   UNL     1       8.655   4.495  24.118  0.00  0.00    +0.178 C 
ATOM     56  C   UNL     1       8.868   6.018  24.032  0.00  0.00    +0.177 C 
ATOM     57  C   UNL     1       7.591   6.788  23.656  0.00  0.00    +0.179 C 
ATOM     58  C   UNL     1       6.946   6.169  22.411  0.00  0.00    +0.201 C 
BRANCH  58  59
ATOM     59  O   UNL     1       7.798   6.391  21.272  0.00  0.00    -0.384 OA
ATOM     60  H   UNL     1       8.418   5.633  21.235  0.00  0.00    +0.210 HD
ENDBRANCH  58  59
BRANCH  57  61
ATOM     61  O   UNL     1       6.671   6.902  24.737  0.00  0.00    -0.386 OA
ATOM     62  H   UNL     1       7.160   6.804  25.582  0.00  0.00    +0.210 HD
ENDBRANCH  57  61
BRANCH  56  63
ATOM     63  O   UNL     1       9.864   6.232  23.005  0.00  0.00    -0.386 OA
ATOM     64  H   UNL     1      10.479   6.920  23.322  0.00  0.00    +0.210 HD
ENDBRANCH  56  63
BRANCH  55  65
ATOM     65  C   UNL     1       8.154   3.982  25.477  0.00  0.00    +0.190 C 
BRANCH  65  66
ATOM     66  O   UNL     1       8.324   2.582  25.658  0.00  0.00    -0.392 OA
ATOM     67  H   UNL     1       8.099   2.414  26.594  0.00  0.00    +0.210 HD
ENDBRANCH  65  66
ENDBRANCH  55  65
ENDBRANCH  52  53
ENDBRANCH  46  52
ENDBRANCH  40  44
ENDBRANCH  39  40
ENDBRANCH   1  39
TORSDOF 22
ENDMDL
MODEL 7
REMARK VINA RESULT:      -6.9      2.231      5.679
REMARK  Name = 
REMARK  23 active torsions:
REMARK  status: ('A' for Active; 'I' for Inactive)
REMARK    1  A    between atoms: C_1  and  C_2
REMARK    2  A    between atoms: C_4  and  O_69
REMARK    3  A    between atoms: C_6  and  O_52
REMARK    4  A    between atoms: C_8  and  O_51
REMARK    5  A    between atoms: C_10  and  O_13
REMARK    6  A    between atoms: O_13  and  C_14
REMARK    7  A    between atoms: C_14  and  C_15
REMARK    8  A    between atoms: C_17  and  O_50
REMARK    9  A    between atoms: C_19  and  O_49
REMARK   10  A    between atoms: C_21  and  O_48
REMARK   11  A    between atoms: C_23  and  O_26
REMARK   12  A    between atoms: O_26  and  C_27
REMARK   13  A    between atoms: C_28  and  C_40
REMARK   14  A    between atoms: C_32  and  O_39
REMARK   15  A    between atoms: C_34  and  O_38
REMARK   16  A    between atoms: C_42  and  O_47
REMARK   17  A    between atoms: C_43  and  O_46
REMARK   18  A    between atoms: O_52  and  C_53
REMARK   19  A    between atoms: C_55  and  O_68
REMARK   20  A    between atoms: C_57  and  O_67
REMARK   21  A    between atoms: C_59  and  O_66
REMARK   22  A    between atoms: C_61  and  C_64
REMARK   23  A    between atoms: C_64  and  O_65
REMARK                            x       y       z     vdW  Elec       q    Type
REMARK                         _______ _______ _______ _____ _____    ______ ____
ROOT
ATOM      1  C   UNL     1       9.194   0.471  24.025  0.00  0.00    +0.179 C 
ATOM      2  O   UNL     1       8.574   1.268  25.061  0.00  0.00    -0.331 OA
ATOM      3  C   UNL     1       8.152   2.536  24.536  0.00  0.00    +0.340 C 
ATOM      4  C   UNL     1       9.429   3.375  24.324  0.00  0.00    +0.214 C 
ATOM      5  C   UNL     1      10.309   2.571  23.307  0.00  0.00    +0.180 C 
ATOM      6  C   UNL     1      10.553   1.100  23.736  0.00  0.00    +0.177 C 
ENDROOT
BRANCH   4   7
ATOM      7  O   UNL     1       9.091   4.663  23.783  0.00  0.00    -0.383 OA
ATOM      8  H   UNL     1       9.680   5.319  24.198  0.00  0.00    +0.210 HD
ENDBRANCH   4   7
BRANCH   6   9
ATOM      9  O   UNL     1      11.395   1.050  24.890  0.00  0.00    -0.386 OA
ATOM     10  H   UNL     1      12.275   0.749  24.591  0.00  0.00    +0.210 HD
ENDBRANCH   6   9
BRANCH   5  11
ATOM     11  O   UNL     1      11.529   3.268  23.039  0.00  0.00    -0.386 OA
ATOM     12  H   UNL     1      11.445   4.165  23.414  0.00  0.00    +0.210 HD
ENDBRANCH   5  11
BRANCH   3  13
ATOM     13  O   UNL     1       7.112   3.108  25.369  0.00  0.00    -0.453 OA
BRANCH  13  14
ATOM     14  C   UNL     1       5.846   3.178  24.740  0.00  0.00    +0.214 A 
ATOM     15  C   UNL     1       5.602   4.132  23.601  0.00  0.00    +0.238 A 
ATOM     16  O   UNL     1       6.498   4.609  22.922  0.00  0.00    -0.283 OA
ATOM     17  C   UNL     1       4.259   4.469  23.200  0.00  0.00    +0.109 A 
ATOM     18  C   UNL     1       3.264   3.610  23.613  0.00  0.00    +0.147 A 
ATOM     19  C   UNL     1       1.962   3.800  23.150  0.00  0.00    +0.092 A 
ATOM     20  C   UNL     1       1.697   4.858  22.269  0.00  0.00    +0.124 A 
ATOM     21  C   UNL     1       2.694   5.734  21.861  0.00  0.00    +0.091 A 
ATOM     22  O   UNL     1       3.521   2.544  24.429  0.00  0.00    -0.451 OA
ATOM     23  C   UNL     1       3.981   5.542  22.338  0.00  0.00    +0.135 A 
ATOM     24  C   UNL     1       4.787   2.360  25.028  0.00  0.00    +0.181 A 
BRANCH  24  25
ATOM     25  C   UNL     1       4.773   1.121  25.892  0.00  0.00    +0.025 A 
ATOM     26  C   UNL     1       3.876   1.075  26.996  0.00  0.00    +0.015 A 
ATOM     27  C   UNL     1       3.630  -0.093  27.733  0.00  0.00    +0.050 A 
ATOM     28  C   UNL     1       4.311  -1.242  27.396  0.00  0.00    +0.158 A 
ATOM     29  C   UNL     1       5.277  -1.214  26.390  0.00  0.00    +0.159 A 
ATOM     30  C   UNL     1       5.505  -0.052  25.637  0.00  0.00    +0.060 A 
BRANCH  29  31
ATOM     31  O   UNL     1       5.970  -2.371  26.171  0.00  0.00    -0.503 OA
ATOM     32  H   UNL     1       6.840  -2.121  25.810  0.00  0.00    +0.292 HD
ENDBRANCH  29  31
BRANCH  28  33
ATOM     33  O   UNL     1       4.021  -2.403  28.050  0.00  0.00    -0.503 OA
ATOM     34  H   UNL     1       3.128  -2.260  28.424  0.00  0.00    +0.292 HD
ENDBRANCH  28  33
ENDBRANCH  24  25
BRANCH  23  35
ATOM     35  O   UNL     1       4.953   6.428  21.956  0.00  0.00    -0.506 OA
ATOM     36  H   UNL     1       4.855   6.641  21.014  0.00  0.00    +0.292 HD
ENDBRANCH  23  35
BRANCH  20  37
ATOM     37  O   UNL     1       0.448   5.091  21.766  0.00  0.00    -0.507 OA
ATOM     38  H   UNL     1       0.259   4.439  21.070  0.00  0.00    +0.292 HD
ENDBRANCH  20  37
ENDBRANCH  13  14
ENDBRANCH   3  13
BRANCH   1  39
ATOM     39  C   UNL     1       9.221  -0.992  24.475  0.00  0.00    +0.197 C 
BRANCH  39  40
ATOM     40  O   UNL     1       8.682  -1.743  23.388  0.00  0.00    -0.346 OA
BRANCH  40  44
ATOM     41  C   UNL     1       7.857  -5.465  25.403  0.00  0.00    +0.041 C 
ATOM     42  C   UNL     1       8.225  -5.303  23.930  0.00  0.00    +0.149 C 
ATOM     43  O   UNL     1       8.862  -4.040  23.699  0.00  0.00    -0.343 OA
ATOM     44  C   UNL     1       7.980  -2.919  23.747  0.00  0.00    +0.282 C 
ATOM     45  C   UNL     1       6.860  -3.053  22.693  0.00  0.00    +0.202 C 
ATOM     46  C   UNL     1       6.071  -4.350  22.934  0.00  0.00    +0.186 C 
ATOM     47  C   UNL     1       7.077  -5.521  22.915  0.00  0.00    +0.174 C 
BRANCH  47  48
ATOM     48  O   UNL     1       7.645  -5.651  21.601  0.00  0.00    -0.387 OA
ATOM     49  H   UNL     1       7.913  -4.759  21.307  0.00  0.00    +0.210 HD
ENDBRANCH  47  48
BRANCH  45  50
ATOM     50  O   UNL     1       6.018  -1.895  22.663  0.00  0.00    -0.384 OA
ATOM     51  H   UNL     1       6.541  -1.191  23.104  0.00  0.00    +0.210 HD
ENDBRANCH  45  50
BRANCH  46  52
ATOM     52  O   UNL     1       5.391  -4.436  24.199  0.00  0.00    -0.340 OA
BRANCH  52  53
ATOM     53  C   UNL     1       3.976  -4.294  24.197  0.00  0.00    +0.282 C 
ATOM     54  O   UNL     1       3.525  -4.213  25.559  0.00  0.00    -0.341 OA
ATOM     55  C   UNL     1       3.467  -5.428  26.320  0.00  0.00    +0.178 C 
ATOM     56  C   UNL     1       2.791  -6.583  25.558  0.00  0.00    +0.177 C 
ATOM     57  C   UNL     1       3.282  -6.721  24.107  0.00  0.00    +0.179 C 
ATOM     58  C   UNL     1       3.213  -5.367  23.393  0.00  0.00    +0.201 C 
BRANCH  58  59
ATOM     59  O   UNL     1       1.834  -4.985  23.227  0.00  0.00    -0.384 OA
ATOM     60  H   UNL     1       1.817  -4.005  23.209  0.00  0.00    +0.210 HD
ENDBRANCH  58  59
BRANCH  57  61
ATOM     61  O   UNL     1       4.573  -7.314  24.010  0.00  0.00    -0.386 OA
ATOM     62  H   UNL     1       4.475  -8.242  23.708  0.00  0.00    +0.210 HD
ENDBRANCH  57  61
BRANCH  56  63
ATOM     63  O   UNL     1       1.374  -6.289  25.547  0.00  0.00    -0.386 OA
ATOM     64  H   UNL     1       0.897  -7.117  25.348  0.00  0.00    +0.210 HD
ENDBRANCH  56  63
BRANCH  55  65
ATOM     65  C   UNL     1       4.803  -5.783  26.989  0.00  0.00    +0.190 C 
BRANCH  65  66
ATOM     66  O   UNL     1       5.080  -7.177  27.013  0.00  0.00    -0.392 OA
ATOM     67  H   UNL     1       4.215  -7.610  27.155  0.00  0.00    +0.210 HD
ENDBRANCH  65  66
ENDBRANCH  55  65
ENDBRANCH  52  53
ENDBRANCH  46  52
ENDBRANCH  40  44
ENDBRANCH  39  40
ENDBRANCH   1  39
TORSDOF 22
ENDMDL
MODEL 8
REMARK VINA RESULT:      -6.8      2.502      7.944
REMARK  Name = 
REMARK  23 active torsions:
REMARK  status: ('A' for Active; 'I' for Inactive)
REMARK    1  A    between atoms: C_1  and  C_2
REMARK    2  A    between atoms: C_4  and  O_69
REMARK    3  A    between atoms: C_6  and  O_52
REMARK    4  A    between atoms: C_8  and  O_51
REMARK    5  A    between atoms: C_10  and  O_13
REMARK    6  A    between atoms: O_13  and  C_14
REMARK    7  A    between atoms: C_14  and  C_15
REMARK    8  A    between atoms: C_17  and  O_50
REMARK    9  A    between atoms: C_19  and  O_49
REMARK   10  A    between atoms: C_21  and  O_48
REMARK   11  A    between atoms: C_23  and  O_26
REMARK   12  A    between atoms: O_26  and  C_27
REMARK   13  A    between atoms: C_28  and  C_40
REMARK   14  A    between atoms: C_32  and  O_39
REMARK   15  A    between atoms: C_34  and  O_38
REMARK   16  A    between atoms: C_42  and  O_47
REMARK   17  A    between atoms: C_43  and  O_46
REMARK   18  A    between atoms: O_52  and  C_53
REMARK   19  A    between atoms: C_55  and  O_68
REMARK   20  A    between atoms: C_57  and  O_67
REMARK   21  A    between atoms: C_59  and  O_66
REMARK   22  A    between atoms: C_61  and  C_64
REMARK   23  A    between atoms: C_64  and  O_65
REMARK                            x       y       z     vdW  Elec       q    Type
REMARK                         _______ _______ _______ _____ _____    ______ ____
ROOT
ATOM      1  C   UNL     1       5.420  -5.427  28.618  0.00  0.00    +0.179 C 
ATOM      2  O   UNL     1       4.356  -4.632  28.045  0.00  0.00    -0.331 OA
ATOM      3  C   UNL     1       3.270  -4.499  28.976  0.00  0.00    +0.340 C 
ATOM      4  C   UNL     1       2.552  -5.863  29.017  0.00  0.00    +0.214 C 
ATOM      5  C   UNL     1       3.624  -6.901  29.496  0.00  0.00    +0.180 C 
ATOM      6  C   UNL     1       4.927  -6.869  28.654  0.00  0.00    +0.177 C 
ENDROOT
BRANCH   4   7
ATOM      7  O   UNL     1       1.454  -5.816  29.943  0.00  0.00    -0.383 OA
ATOM      8  H   UNL     1       1.816  -5.975  30.835  0.00  0.00    +0.210 HD
ENDBRANCH   4   7
BRANCH   6   9
ATOM      9  O   UNL     1       4.679  -7.356  27.333  0.00  0.00    -0.386 OA
ATOM     10  H   UNL     1       5.328  -8.067  27.162  0.00  0.00    +0.210 HD
ENDBRANCH   6   9
BRANCH   5  11
ATOM     11  O   UNL     1       3.056  -8.211  29.569  0.00  0.00    -0.386 OA
ATOM     12  H   UNL     1       2.213  -8.140  30.056  0.00  0.00    +0.210 HD
ENDBRANCH   5  11
BRANCH   3  13
ATOM     13  O   UNL     1       2.467  -3.335  28.653  0.00  0.00    -0.453 OA
BRANCH  13  14
ATOM     14  C   UNL     1       3.167  -2.338  27.931  0.00  0.00    +0.214 A 
ATOM     15  C   UNL     1       3.958  -1.278  28.649  0.00  0.00    +0.238 A 
ATOM     16  O   UNL     1       4.354  -1.400  29.798  0.00  0.00    -0.283 OA
ATOM     17  C   UNL     1       4.365  -0.075  27.967  0.00  0.00    +0.109 A 
ATOM     18  C   UNL     1       4.352  -0.120  26.590  0.00  0.00    +0.147 A 
ATOM     19  C   UNL     1       4.859   0.959  25.867  0.00  0.00    +0.092 A 
ATOM     20  C   UNL     1       5.378   2.064  26.558  0.00  0.00    +0.124 A 
ATOM     21  C   UNL     1       5.381   2.118  27.946  0.00  0.00    +0.091 A 
ATOM     22  O   UNL     1       3.899  -1.213  25.906  0.00  0.00    -0.451 OA
ATOM     23  C   UNL     1       4.861   1.045  28.653  0.00  0.00    +0.135 A 
ATOM     24  C   UNL     1       3.264  -2.287  26.567  0.00  0.00    +0.181 A 
BRANCH  24  25
ATOM     25  C   UNL     1       2.849  -3.337  25.563  0.00  0.00    +0.025 A 
ATOM     26  C   UNL     1       1.469  -3.670  25.463  0.00  0.00    +0.015 A 
ATOM     27  C   UNL     1       0.947  -4.468  24.435  0.00  0.00    +0.050 A 
ATOM     28  C   UNL     1       1.814  -4.982  23.494  0.00  0.00    +0.158 A 
ATOM     29  C   UNL     1       3.186  -4.768  23.615  0.00  0.00    +0.159 A 
ATOM     30  C   UNL     1       3.704  -3.949  24.630  0.00  0.00    +0.060 A 
BRANCH  29  31
ATOM     31  O   UNL     1       3.988  -5.379  22.693  0.00  0.00    -0.503 OA
ATOM     32  H   UNL     1       4.315  -6.203  23.097  0.00  0.00    +0.292 HD
ENDBRANCH  29  31
BRANCH  28  33
ATOM     33  O   UNL     1       1.309  -5.690  22.443  0.00  0.00    -0.503 OA
ATOM     34  H   UNL     1       1.025  -6.542  22.832  0.00  0.00    +0.292 HD
ENDBRANCH  28  33
ENDBRANCH  24  25
BRANCH  23  35
ATOM     35  O   UNL     1       4.839   1.120  30.020  0.00  0.00    -0.506 OA
ATOM     36  H   UNL     1       4.022   1.553  30.315  0.00  0.00    +0.292 HD
ENDBRANCH  23  35
BRANCH  20  37
ATOM     37  O   UNL     1       5.904   3.146  25.911  0.00  0.00    -0.507 OA
ATOM     38  H   UNL     1       6.720   3.420  26.362  0.00  0.00    +0.292 HD
ENDBRANCH  20  37
ENDBRANCH  13  14
ENDBRANCH   3  13
BRANCH   1  39
ATOM     39  C   UNL     1       6.704  -5.182  27.821  0.00  0.00    +0.197 C 
BRANCH  39  40
ATOM     40  O   UNL     1       6.595  -3.856  27.305  0.00  0.00    -0.346 OA
BRANCH  40  44
ATOM     41  C   UNL     1       7.136  -4.202  23.041  0.00  0.00    +0.041 C 
ATOM     42  C   UNL     1       8.034  -4.815  24.113  0.00  0.00    +0.149 C 
ATOM     43  O   UNL     1       7.346  -4.900  25.368  0.00  0.00    -0.343 OA
ATOM     44  C   UNL     1       7.173  -3.647  26.030  0.00  0.00    +0.282 C 
ATOM     45  C   UNL     1       8.535  -2.980  26.313  0.00  0.00    +0.202 C 
ATOM     46  C   UNL     1       9.298  -2.773  24.994  0.00  0.00    +0.186 C 
ATOM     47  C   UNL     1       9.418  -4.149  24.302  0.00  0.00    +0.174 C 
BRANCH  47  48
ATOM     48  O   UNL     1      10.242  -5.020  25.095  0.00  0.00    -0.387 OA
ATOM     49  H   UNL     1       9.648  -5.577  25.633  0.00  0.00    +0.210 HD
ENDBRANCH  47  48
BRANCH  45  50
ATOM     50  O   UNL     1       8.387  -1.766  27.058  0.00  0.00    -0.384 OA
ATOM     51  H   UNL     1       9.115  -1.783  27.717  0.00  0.00    +0.210 HD
ENDBRANCH  45  50
BRANCH  46  52
ATOM     52  O   UNL     1       8.661  -1.907  24.038  0.00  0.00    -0.340 OA
BRANCH  52  53
ATOM     53  C   UNL     1       9.436  -1.464  22.931  0.00  0.00    +0.282 C 
ATOM     54  O   UNL     1      10.485  -0.614  23.422  0.00  0.00    -0.341 OA
ATOM     55  C   UNL     1      10.141   0.726  23.800  0.00  0.00    +0.178 C 
ATOM     56  C   UNL     1       9.264   1.440  22.754  0.00  0.00    +0.177 C 
ATOM     57  C   UNL     1       8.107   0.569  22.238  0.00  0.00    +0.179 C 
ATOM     58  C   UNL     1       8.632  -0.801  21.794  0.00  0.00    +0.201 C 
BRANCH  58  59
ATOM     59  O   UNL     1       9.456  -0.640  20.623  0.00  0.00    -0.384 OA
ATOM     60  H   UNL     1       9.306   0.273  20.301  0.00  0.00    +0.210 HD
ENDBRANCH  58  59
BRANCH  57  61
ATOM     61  O   UNL     1       7.036   0.457  23.169  0.00  0.00    -0.386 OA
ATOM     62  H   UNL     1       6.849  -0.493  23.326  0.00  0.00    +0.210 HD
ENDBRANCH  57  61
BRANCH  56  63
ATOM     63  O   UNL     1      10.137   1.765  21.647  0.00  0.00    -0.386 OA
ATOM     64  H   UNL     1      10.970   1.273  21.766  0.00  0.00    +0.210 HD
ENDBRANCH  56  63
BRANCH  55  65
ATOM     65  C   UNL     1       9.644   0.833  25.250  0.00  0.00    +0.190 C 
BRANCH  65  66
ATOM     66  O   UNL     1       8.613   1.795  25.432  0.00  0.00    -0.392 OA
ATOM     67  H   UNL     1       8.928   2.601  24.977  0.00  0.00    +0.210 HD
ENDBRANCH  65  66
ENDBRANCH  55  65
ENDBRANCH  52  53
ENDBRANCH  46  52
ENDBRANCH  40  44
ENDBRANCH  39  40
ENDBRANCH   1  39
TORSDOF 22
ENDMDL
MODEL 9
REMARK VINA RESULT:      -6.7      2.301      5.242
REMARK  Name = 
REMARK  23 active torsions:
REMARK  status: ('A' for Active; 'I' for Inactive)
REMARK    1  A    between atoms: C_1  and  C_2
REMARK    2  A    between atoms: C_4  and  O_69
REMARK    3  A    between atoms: C_6  and  O_52
REMARK    4  A    between atoms: C_8  and  O_51
REMARK    5  A    between atoms: C_10  and  O_13
REMARK    6  A    between atoms: O_13  and  C_14
REMARK    7  A    between atoms: C_14  and  C_15
REMARK    8  A    between atoms: C_17  and  O_50
REMARK    9  A    between atoms: C_19  and  O_49
REMARK   10  A    between atoms: C_21  and  O_48
REMARK   11  A    between atoms: C_23  and  O_26
REMARK   12  A    between atoms: O_26  and  C_27
REMARK   13  A    between atoms: C_28  and  C_40
REMARK   14  A    between atoms: C_32  and  O_39
REMARK   15  A    between atoms: C_34  and  O_38
REMARK   16  A    between atoms: C_42  and  O_47
REMARK   17  A    between atoms: C_43  and  O_46
REMARK   18  A    between atoms: O_52  and  C_53
REMARK   19  A    between atoms: C_55  and  O_68
REMARK   20  A    between atoms: C_57  and  O_67
REMARK   21  A    between atoms: C_59  and  O_66
REMARK   22  A    between atoms: C_61  and  C_64
REMARK   23  A    between atoms: C_64  and  O_65
REMARK                            x       y       z     vdW  Elec       q    Type
REMARK                         _______ _______ _______ _____ _____    ______ ____
ROOT
ATOM      1  C   UNL     1       5.768   0.979  28.150  0.00  0.00    +0.179 C 
ATOM      2  O   UNL     1       6.489   0.639  26.942  0.00  0.00    -0.331 OA
ATOM      3  C   UNL     1       7.545   1.582  26.705  0.00  0.00    +0.340 C 
ATOM      4  C   UNL     1       6.876   2.885  26.223  0.00  0.00    +0.214 C 
ATOM      5  C   UNL     1       5.925   3.336  27.384  0.00  0.00    +0.180 C 
ATOM      6  C   UNL     1       4.944   2.224  27.838  0.00  0.00    +0.177 C 
ENDROOT
BRANCH   4   7
ATOM      7  O   UNL     1       7.874   3.891  25.977  0.00  0.00    -0.383 OA
ATOM      8  H   UNL     1       8.307   4.088  26.827  0.00  0.00    +0.210 HD
ENDBRANCH   4   7
BRANCH   6   9
ATOM      9  O   UNL     1       3.982   1.957  26.815  0.00  0.00    -0.386 OA
ATOM     10  H   UNL     1       4.436   1.437  26.123  0.00  0.00    +0.210 HD
ENDBRANCH   6   9
BRANCH   5  11
ATOM     11  O   UNL     1       5.248   4.548  27.035  0.00  0.00    -0.386 OA
ATOM     12  H   UNL     1       5.850   5.069  26.471  0.00  0.00    +0.210 HD
ENDBRANCH   5  11
BRANCH   3  13
ATOM     13  O   UNL     1       8.560   0.999  25.848  0.00  0.00    -0.453 OA
BRANCH  13  14
ATOM     14  C   UNL     1       8.077  -0.032  25.007  0.00  0.00    +0.214 A 
ATOM     15  C   UNL     1       8.193  -1.477  25.415  0.00  0.00    +0.238 A 
ATOM     16  O   UNL     1       8.344  -1.837  26.572  0.00  0.00    -0.283 OA
ATOM     17  C   UNL     1       8.044  -2.530  24.441  0.00  0.00    +0.109 A 
ATOM     18  C   UNL     1       7.417  -2.188  23.263  0.00  0.00    +0.147 A 
ATOM     19  C   UNL     1       7.121  -3.184  22.334  0.00  0.00    +0.092 A 
ATOM     20  C   UNL     1       7.460  -4.514  22.623  0.00  0.00    +0.124 A 
ATOM     21  C   UNL     1       8.103  -4.860  23.804  0.00  0.00    +0.091 A 
ATOM     22  O   UNL     1       7.034  -0.904  22.994  0.00  0.00    -0.451 OA
ATOM     23  C   UNL     1       8.405  -3.859  24.714  0.00  0.00    +0.135 A 
ATOM     24  C   UNL     1       7.407   0.170  23.832  0.00  0.00    +0.181 A 
BRANCH  24  25
ATOM     25  C   UNL     1       6.867   1.468  23.277  0.00  0.00    +0.025 A 
ATOM     26  C   UNL     1       5.478   1.742  23.427  0.00  0.00    +0.015 A 
ATOM     27  C   UNL     1       4.911   2.992  23.141  0.00  0.00    +0.050 A 
ATOM     28  C   UNL     1       5.728   3.994  22.662  0.00  0.00    +0.158 A 
ATOM     29  C   UNL     1       7.073   3.736  22.400  0.00  0.00    +0.159 A 
ATOM     30  C   UNL     1       7.645   2.492  22.710  0.00  0.00    +0.060 A 
BRANCH  29  31
ATOM     31  O   UNL     1       7.798   4.753  21.847  0.00  0.00    -0.503 OA
ATOM     32  H   UNL     1       7.667   5.537  22.409  0.00  0.00    +0.292 HD
ENDBRANCH  29  31
BRANCH  28  33
ATOM     33  O   UNL     1       5.205   5.237  22.459  0.00  0.00    -0.503 OA
ATOM     34  H   UNL     1       5.212   5.657  23.343  0.00  0.00    +0.292 HD
ENDBRANCH  28  33
ENDBRANCH  24  25
BRANCH  23  35
ATOM     35  O   UNL     1       9.067  -4.204  25.862  0.00  0.00    -0.506 OA
ATOM     36  H   UNL     1       9.301  -3.406  26.362  0.00  0.00    +0.292 HD
ENDBRANCH  23  35
BRANCH  20  37
ATOM     37  O   UNL     1       7.184  -5.539  21.764  0.00  0.00    -0.507 OA
ATOM     38  H   UNL     1       7.878  -5.583  21.087  0.00  0.00    +0.292 HD
ENDBRANCH  20  37
ENDBRANCH  13  14
ENDBRANCH   3  13
BRANCH   1  39
ATOM     39  C   UNL     1       4.974  -0.246  28.613  0.00  0.00    +0.197 C 
BRANCH  39  40
ATOM     40  O   UNL     1       4.186  -0.645  27.493  0.00  0.00    -0.346 OA
BRANCH  40  44
ATOM     41  C   UNL     1       2.953  -4.680  28.380  0.00  0.00    +0.041 C 
ATOM     42  C   UNL     1       4.383  -4.147  28.425  0.00  0.00    +0.149 C 
ATOM     43  O   UNL     1       4.392  -2.717  28.525  0.00  0.00    -0.343 OA
ATOM     44  C   UNL     1       4.028  -2.041  27.322  0.00  0.00    +0.282 C 
ATOM     45  C   UNL     1       4.985  -2.413  26.170  0.00  0.00    +0.202 C 
ATOM     46  C   UNL     1       4.961  -3.933  25.943  0.00  0.00    +0.186 C 
ATOM     47  C   UNL     1       5.317  -4.613  27.283  0.00  0.00    +0.174 C 
BRANCH  47  48
ATOM     48  O   UNL     1       6.673  -4.296  27.641  0.00  0.00    -0.387 OA
ATOM     49  H   UNL     1       7.021  -5.043  28.165  0.00  0.00    +0.210 HD
ENDBRANCH  47  48
BRANCH  45  50
ATOM     50  O   UNL     1       4.693  -1.675  24.978  0.00  0.00    -0.384 OA
ATOM     51  H   UNL     1       3.812  -1.274  25.138  0.00  0.00    +0.210 HD
ENDBRANCH  45  50
BRANCH  46  52
ATOM     52  O   UNL     1       3.690  -4.481  25.550  0.00  0.00    -0.340 OA
BRANCH  52  53
ATOM     53  C   UNL     1       3.527  -4.857  24.188  0.00  0.00    +0.282 C 
ATOM     54  O   UNL     1       2.121  -4.968  23.912  0.00  0.00    -0.341 OA
ATOM     55  C   UNL     1       1.435  -6.136  24.384  0.00  0.00    +0.178 C 
ATOM     56  C   UNL     1       2.188  -7.443  24.071  0.00  0.00    +0.177 C 
ATOM     57  C   UNL     1       3.690  -7.369  24.393  0.00  0.00    +0.179 C 
ATOM     58  C   UNL     1       4.307  -6.117  23.760  0.00  0.00    +0.201 C 
BRANCH  58  59
ATOM     59  O   UNL     1       4.296  -6.252  22.326  0.00  0.00    -0.384 OA
ATOM     60  H   UNL     1       4.193  -7.208  22.137  0.00  0.00    +0.210 HD
ENDBRANCH  58  59
BRANCH  57  61
ATOM     61  O   UNL     1       3.965  -7.456  25.787  0.00  0.00    -0.386 OA
ATOM     62  H   UNL     1       3.916  -6.558  26.178  0.00  0.00    +0.210 HD
ENDBRANCH  57  61
BRANCH  56  63
ATOM     63  O   UNL     1       2.025  -7.677  22.652  0.00  0.00    -0.386 OA
ATOM     64  H   UNL     1       2.273  -6.859  22.182  0.00  0.00    +0.210 HD
ENDBRANCH  56  63
BRANCH  55  65
ATOM     65  C   UNL     1       0.940  -6.000  25.831  0.00  0.00    +0.190 C 
BRANCH  65  66
ATOM     66  O   UNL     1       1.060  -7.195  26.592  0.00  0.00    -0.392 OA
ATOM     67  H   UNL     1       0.143  -7.499  26.741  0.00  0.00    +0.210 HD
ENDBRANCH  65  66
ENDBRANCH  55  65
ENDBRANCH  52  53
ENDBRANCH  46  52
ENDBRANCH  40  44
ENDBRANCH  39  40
ENDBRANCH   1  39
TORSDOF 22
ENDMDL
