MODEL 1
REMARK VINA RESULT:      -6.8      0.000      0.000
REMARK  Name = 
REMARK  23 active torsions:
REMARK  status: ('A' for Active; 'I' for Inactive)
REMARK    1  A    between atoms: C_1  and  C_2
REMARK    2  A    between atoms: C_3  and  O_62
REMARK    3  A    between atoms: C_5  and  O_61
REMARK    4  A    between atoms: C_7  and  O_60
REMARK    5  A    between atoms: C_8  and  O_11
REMARK    6  A    between atoms: O_11  and  C_12
REMARK    7  A    between atoms: C_12  and  C_13
REMARK    8  A    between atoms: C_14  and  O_59
REMARK    9  A    between atoms: C_16  and  O_58
REMARK   10  A    between atoms: C_17  and  O_43
REMARK   11  A    between atoms: C_18  and  O_21
REMARK   12  A    between atoms: O_21  and  C_22
REMARK   13  A    between atoms: C_23  and  C_35
REMARK   14  A    between atoms: C_27  and  O_34
REMARK   15  A    between atoms: C_29  and  O_33
REMARK   16  A    between atoms: C_37  and  O_42
REMARK   17  A    between atoms: C_38  and  O_41
REMARK   18  A    between atoms: O_43  and  C_44
REMARK   19  A    between atoms: C_46  and  O_57
REMARK   20  A    between atoms: C_48  and  O_56
REMARK   21  A    between atoms: C_49  and  O_55
REMARK   22  A    between atoms: C_51  and  C_53
REMARK   23  A    between atoms: C_53  and  O_54
REMARK                            x       y       z     vdW  Elec       q    Type
REMARK                         _______ _______ _______ _____ _____    ______ ____
ROOT
ATOM      1  C   UNL     1       4.697   1.196  28.048  0.00  0.00    +0.179 C 
ATOM      2  O   UNL     1       4.876   0.490  26.802  0.00  0.00    -0.331 OA
ATOM      3  C   UNL     1       6.162   0.509  26.162  0.00  0.00    +0.340 C 
ATOM      4  C   UNL     1       6.867   1.937  26.169  0.00  0.00    +0.221 C 
ATOM      5  C   UNL     1       6.822   2.446  27.619  0.00  0.00    +0.180 C 
ATOM      6  C   UNL     1       5.360   2.579  28.042  0.00  0.00    +0.177 C 
ENDROOT
BRANCH   5   7
ATOM      7  O   UNL     1       7.514   3.689  27.765  0.00  0.00    -0.386 OA
ATOM      8  H   UNL     1       8.171   3.725  27.038  0.00  0.00    +0.210 HD
ENDBRANCH   5   7
BRANCH   6   9
ATOM      9  O   UNL     1       5.267   3.275  29.282  0.00  0.00    -0.386 OA
ATOM     10  H   UNL     1       6.173   3.501  29.563  0.00  0.00    +0.210 HD
ENDBRANCH   6   9
BRANCH   4  11
ATOM     11  O   UNL     1       6.283   2.889  25.214  0.00  0.00    -0.337 OA
BRANCH  11  12
ATOM     12  C   UNL     1       6.922   2.968  23.914  0.00  0.00    +0.282 C 
ATOM     13  O   UNL     1       8.227   3.583  23.998  0.00  0.00    -0.341 OA
ATOM     14  C   UNL     1       8.217   4.975  24.332  0.00  0.00    +0.178 C 
ATOM     15  C   UNL     1       7.372   5.802  23.345  0.00  0.00    +0.177 C 
ATOM     16  C   UNL     1       5.985   5.175  23.177  0.00  0.00    +0.179 C 
ATOM     17  C   UNL     1       6.096   3.687  22.821  0.00  0.00    +0.201 C 
BRANCH  17  18
ATOM     18  O   UNL     1       6.684   3.559  21.508  0.00  0.00    -0.384 OA
ATOM     19  H   UNL     1       6.329   2.730  21.120  0.00  0.00    +0.210 HD
ENDBRANCH  17  18
BRANCH  16  20
ATOM     20  O   UNL     1       5.284   5.883  22.138  0.00  0.00    -0.386 OA
ATOM     21  H   UNL     1       4.332   5.813  22.350  0.00  0.00    +0.210 HD
ENDBRANCH  16  20
BRANCH  15  22
ATOM     22  O   UNL     1       8.011   5.858  22.054  0.00  0.00    -0.386 OA
ATOM     23  H   UNL     1       7.805   6.751  21.708  0.00  0.00    +0.210 HD
ENDBRANCH  15  22
BRANCH  14  24
ATOM     24  C   UNL     1       9.676   5.459  24.366  0.00  0.00    +0.190 C 
BRANCH  24  25
ATOM     25  O   UNL     1      10.458   4.797  23.373  0.00  0.00    -0.392 OA
ATOM     26  H   UNL     1      11.132   5.438  23.074  0.00  0.00    +0.210 HD
ENDBRANCH  24  25
ENDBRANCH  14  24
ENDBRANCH  11  12
ENDBRANCH   4  11
BRANCH   3  27
ATOM     27  O   UNL     1       6.086   0.080  24.788  0.00  0.00    -0.453 OA
BRANCH  27  28
ATOM     28  C   UNL     1       6.294  -1.232  24.359  0.00  0.00    +0.214 A 
ATOM     29  C   UNL     1       5.290  -2.342  24.506  0.00  0.00    +0.238 A 
ATOM     30  O   UNL     1       4.327  -2.228  25.246  0.00  0.00    -0.283 OA
ATOM     31  C   UNL     1       5.533  -3.579  23.712  0.00  0.00    +0.109 A 
ATOM     32  C   UNL     1       6.801  -3.763  23.161  0.00  0.00    +0.147 A 
ATOM     33  C   UNL     1       7.117  -4.915  22.420  0.00  0.00    +0.092 A 
ATOM     34  C   UNL     1       6.142  -5.884  22.221  0.00  0.00    +0.124 A 
ATOM     35  C   UNL     1       4.867  -5.719  22.749  0.00  0.00    +0.091 A 
ATOM     36  O   UNL     1       7.797  -2.827  23.275  0.00  0.00    -0.451 OA
ATOM     37  C   UNL     1       4.564  -4.573  23.498  0.00  0.00    +0.135 A 
ATOM     38  C   UNL     1       7.450  -1.562  23.729  0.00  0.00    +0.181 A 
BRANCH  38  39
ATOM     39  C   UNL     1       8.352  -0.519  23.248  0.00  0.00    +0.025 A 
ATOM     40  C   UNL     1       8.151  -0.116  21.916  0.00  0.00    +0.015 A 
ATOM     41  C   UNL     1       8.966   0.840  21.328  0.00  0.00    +0.050 A 
ATOM     42  C   UNL     1       9.923   1.470  22.107  0.00  0.00    +0.158 A 
ATOM     43  C   UNL     1      10.113   1.112  23.443  0.00  0.00    +0.159 A 
ATOM     44  C   UNL     1       9.368   0.072  24.010  0.00  0.00    +0.060 A 
BRANCH  42  45
ATOM     45  O   UNL     1      10.669   2.464  21.545  0.00  0.00    -0.503 OA
ATOM     46  H   UNL     1      11.373   2.029  21.019  0.00  0.00    +0.292 HD
ENDBRANCH  42  45
BRANCH  43  47
ATOM     47  O   UNL     1      10.986   1.853  24.190  0.00  0.00    -0.503 OA
ATOM     48  H   UNL     1      11.769   1.322  24.396  0.00  0.00    +0.292 HD
ENDBRANCH  43  47
ENDBRANCH  38  39
BRANCH  37  49
ATOM     49  O   UNL     1       3.289  -4.435  23.975  0.00  0.00    -0.506 OA
ATOM     50  H   UNL     1       3.263  -3.756  24.656  0.00  0.00    +0.292 HD
ENDBRANCH  37  49
BRANCH  34  51
ATOM     51  O   UNL     1       6.385  -7.016  21.500  0.00  0.00    -0.507 OA
ATOM     52  H   UNL     1       6.035  -6.913  20.599  0.00  0.00    +0.292 HD
ENDBRANCH  34  51
ENDBRANCH  27  28
ENDBRANCH   3  27
BRANCH   1  53
ATOM     53  C   UNL     1       4.756   0.347  29.383  0.00  0.00    +0.197 C 
BRANCH  53  54
ATOM     54  O   UNL     1       3.542  -0.108  30.025  0.00  0.00    -0.346 OA
BRANCH  54  58
ATOM     55  C   UNL     1       4.765  -4.417  29.634  0.00  0.00    +0.041 C 
ATOM     56  C   UNL     1       4.221  -3.477  28.559  0.00  0.00    +0.149 C 
ATOM     57  O   UNL     1       4.342  -2.092  28.953  0.00  0.00    -0.343 OA
ATOM     58  C   UNL     1       3.371  -1.569  29.876  0.00  0.00    +0.282 C 
ATOM     59  C   UNL     1       1.935  -1.879  29.359  0.00  0.00    +0.201 C 
ATOM     60  C   UNL     1       1.773  -3.402  29.151  0.00  0.00    +0.179 C 
ATOM     61  C   UNL     1       2.805  -3.908  28.136  0.00  0.00    +0.174 C 
BRANCH  59  62
ATOM     62  O   UNL     1       1.727  -1.204  28.096  0.00  0.00    -0.384 OA
ATOM     63  H   UNL     1       0.870  -0.742  28.198  0.00  0.00    +0.210 HD
ENDBRANCH  59  62
BRANCH  60  64
ATOM     64  O   UNL     1       0.445  -3.748  28.733  0.00  0.00    -0.386 OA
ATOM     65  H   UNL     1       0.080  -2.984  28.245  0.00  0.00    +0.210 HD
ENDBRANCH  60  64
BRANCH  61  66
ATOM     66  O   UNL     1       2.492  -3.420  26.824  0.00  0.00    -0.387 OA
ATOM     67  H   UNL     1       2.167  -4.192  26.306  0.00  0.00    +0.210 HD
ENDBRANCH  61  66
ENDBRANCH  54  58
ENDBRANCH  53  54
ENDBRANCH   1  53
TORSDOF 22
ENDMDL
MODEL 2
REMARK VINA RESULT:      -6.7      2.153      8.953
REMARK  Name = 
REMARK  23 active torsions:
REMARK  status: ('A' for Active; 'I' for Inactive)
REMARK    1  A    between atoms: C_1  and  C_2
REMARK    2  A    between atoms: C_3  and  O_62
REMARK    3  A    between atoms: C_5  and  O_61
REMARK    4  A    between atoms: C_7  and  O_60
REMARK    5  A    between atoms: C_8  and  O_11
REMARK    6  A    between atoms: O_11  and  C_12
REMARK    7  A    between atoms: C_12  and  C_13
REMARK    8  A    between atoms: C_14  and  O_59
REMARK    9  A    between atoms: C_16  and  O_58
REMARK   10  A    between atoms: C_17  and  O_43
REMARK   11  A    between atoms: C_18  and  O_21
REMARK   12  A    between atoms: O_21  and  C_22
REMARK   13  A    between atoms: C_23  and  C_35
REMARK   14  A    between atoms: C_27  and  O_34
REMARK   15  A    between atoms: C_29  and  O_33
REMARK   16  A    between atoms: C_37  and  O_42
REMARK   17  A    between atoms: C_38  and  O_41
REMARK   18  A    between atoms: O_43  and  C_44
REMARK   19  A    between atoms: C_46  and  O_57
REMARK   20  A    between atoms: C_48  and  O_56
REMARK   21  A    between atoms: C_49  and  O_55
REMARK   22  A    between atoms: C_51  and  C_53
REMARK   23  A    between atoms: C_53  and  O_54
REMARK                            x       y       z     vdW  Elec       q    Type
REMARK                         _______ _______ _______ _____ _____    ______ ____
ROOT
ATOM      1  C   UNL     1       8.259  -0.745  22.620  0.00  0.00    +0.179 C 
ATOM      2  O   UNL     1       7.097  -0.930  23.455  0.00  0.00    -0.331 OA
ATOM      3  C   UNL     1       7.251  -1.534  24.749  0.00  0.00    +0.340 C 
ATOM      4  C   UNL     1       8.227  -2.793  24.763  0.00  0.00    +0.221 C 
ATOM      5  C   UNL     1       9.522  -2.357  24.058  0.00  0.00    +0.180 C 
ATOM      6  C   UNL     1       9.185  -1.968  22.621  0.00  0.00    +0.177 C 
ENDROOT
BRANCH   5   7
ATOM      7  O   UNL     1      10.516  -3.385  24.093  0.00  0.00    -0.386 OA
ATOM      8  H   UNL     1      10.160  -4.091  24.673  0.00  0.00    +0.210 HD
ENDBRANCH   5   7
BRANCH   6   9
ATOM      9  O   UNL     1      10.380  -1.794  21.863  0.00  0.00    -0.386 OA
ATOM     10  H   UNL     1      10.839  -1.007  22.211  0.00  0.00    +0.210 HD
ENDBRANCH   6   9
BRANCH   4  11
ATOM     11  O   UNL     1       7.639  -4.003  24.173  0.00  0.00    -0.337 OA
BRANCH  11  12
ATOM     12  C   UNL     1       6.372  -3.833  23.487  0.00  0.00    +0.282 C 
ATOM     13  O   UNL     1       5.313  -4.576  24.132  0.00  0.00    -0.341 OA
ATOM     14  C   UNL     1       5.433  -5.999  24.040  0.00  0.00    +0.178 C 
ATOM     15  C   UNL     1       5.520  -6.480  22.580  0.00  0.00    +0.177 C 
ATOM     16  C   UNL     1       6.599  -5.698  21.826  0.00  0.00    +0.179 C 
ATOM     17  C   UNL     1       6.390  -4.186  21.981  0.00  0.00    +0.201 C 
BRANCH  17  18
ATOM     18  O   UNL     1       5.169  -3.808  21.309  0.00  0.00    -0.384 OA
ATOM     19  H   UNL     1       5.039  -2.850  21.478  0.00  0.00    +0.210 HD
ENDBRANCH  17  18
BRANCH  16  20
ATOM     20  O   UNL     1       6.545  -6.066  20.435  0.00  0.00    -0.386 OA
ATOM     21  H   UNL     1       5.907  -5.456  20.013  0.00  0.00    +0.210 HD
ENDBRANCH  16  20
BRANCH  15  22
ATOM     22  O   UNL     1       4.259  -6.289  21.907  0.00  0.00    -0.386 OA
ATOM     23  H   UNL     1       3.586  -6.323  22.618  0.00  0.00    +0.210 HD
ENDBRANCH  15  22
BRANCH  14  24
ATOM     24  C   UNL     1       4.227  -6.618  24.765  0.00  0.00    +0.190 C 
BRANCH  24  25
ATOM     25  O   UNL     1       3.888  -7.886  24.204  0.00  0.00    -0.392 OA
ATOM     26  H   UNL     1       3.126  -8.224  24.714  0.00  0.00    +0.210 HD
ENDBRANCH  24  25
ENDBRANCH  14  24
ENDBRANCH  11  12
ENDBRANCH   4  11
BRANCH   3  27
ATOM     27  O   UNL     1       5.990  -1.970  25.294  0.00  0.00    -0.453 OA
BRANCH  27  28
ATOM     28  C   UNL     1       5.276  -1.282  26.278  0.00  0.00    +0.214 A 
ATOM     29  C   UNL     1       4.692   0.091  26.098  0.00  0.00    +0.238 A 
ATOM     30  O   UNL     1       5.026   0.802  25.166  0.00  0.00    -0.283 OA
ATOM     31  C   UNL     1       3.694   0.536  27.111  0.00  0.00    +0.109 A 
ATOM     32  C   UNL     1       3.613  -0.179  28.306  0.00  0.00    +0.147 A 
ATOM     33  C   UNL     1       2.715   0.193  29.322  0.00  0.00    +0.092 A 
ATOM     34  C   UNL     1       1.882   1.286  29.127  0.00  0.00    +0.124 A 
ATOM     35  C   UNL     1       1.934   2.008  27.941  0.00  0.00    +0.091 A 
ATOM     36  O   UNL     1       4.370  -1.297  28.548  0.00  0.00    -0.451 OA
ATOM     37  C   UNL     1       2.841   1.638  26.937  0.00  0.00    +0.135 A 
ATOM     38  C   UNL     1       5.039  -1.872  27.478  0.00  0.00    +0.181 A 
BRANCH  38  39
ATOM     39  C   UNL     1       5.273  -3.302  27.655  0.00  0.00    +0.025 A 
ATOM     40  C   UNL     1       4.143  -4.057  28.017  0.00  0.00    +0.015 A 
ATOM     41  C   UNL     1       4.240  -5.421  28.252  0.00  0.00    +0.050 A 
ATOM     42  C   UNL     1       5.453  -6.052  28.027  0.00  0.00    +0.158 A 
ATOM     43  C   UNL     1       6.578  -5.326  27.630  0.00  0.00    +0.159 A 
ATOM     44  C   UNL     1       6.513  -3.935  27.497  0.00  0.00    +0.060 A 
BRANCH  42  45
ATOM     45  O   UNL     1       5.523  -7.404  28.186  0.00  0.00    -0.503 OA
ATOM     46  H   UNL     1       4.646  -7.767  27.940  0.00  0.00    +0.292 HD
ENDBRANCH  42  45
BRANCH  43  47
ATOM     47  O   UNL     1       7.710  -6.022  27.306  0.00  0.00    -0.503 OA
ATOM     48  H   UNL     1       7.717  -6.869  27.776  0.00  0.00    +0.292 HD
ENDBRANCH  43  47
ENDBRANCH  38  39
BRANCH  37  49
ATOM     49  O   UNL     1       2.840   2.357  25.773  0.00  0.00    -0.506 OA
ATOM     50  H   UNL     1       3.629   2.157  25.261  0.00  0.00    +0.292 HD
ENDBRANCH  37  49
BRANCH  34  51
ATOM     51  O   UNL     1       0.982   1.686  30.070  0.00  0.00    -0.507 OA
ATOM     52  H   UNL     1       0.566   2.521  29.794  0.00  0.00    +0.292 HD
ENDBRANCH  34  51
ENDBRANCH  27  28
ENDBRANCH   3  27
BRANCH   1  53
ATOM     53  C   UNL     1       8.922   0.692  22.598  0.00  0.00    +0.197 C 
BRANCH  53  54
ATOM     54  O   UNL     1       8.472   1.701  21.664  0.00  0.00    -0.346 OA
BRANCH  54  58
ATOM     55  C   UNL     1       8.807   5.038  24.659  0.00  0.00    +0.041 C 
ATOM     56  C   UNL     1       7.820   3.871  24.635  0.00  0.00    +0.149 C 
ATOM     57  O   UNL     1       8.283   2.801  23.780  0.00  0.00    -0.343 OA
ATOM     58  C   UNL     1       8.110   2.954  22.361  0.00  0.00    +0.282 C 
ATOM     59  C   UNL     1       6.628   3.317  22.049  0.00  0.00    +0.201 C 
ATOM     60  C   UNL     1       6.230   4.596  22.819  0.00  0.00    +0.179 C 
ATOM     61  C   UNL     1       6.399   4.376  24.327  0.00  0.00    +0.174 C 
BRANCH  59  62
ATOM     62  O   UNL     1       5.772   2.227  22.467  0.00  0.00    -0.384 OA
ATOM     63  H   UNL     1       6.292   1.417  22.284  0.00  0.00    +0.210 HD
ENDBRANCH  59  62
BRANCH  60  64
ATOM     64  O   UNL     1       4.890   5.009  22.518  0.00  0.00    -0.386 OA
ATOM     65  H   UNL     1       4.547   4.415  21.823  0.00  0.00    +0.210 HD
ENDBRANCH  60  64
BRANCH  61  66
ATOM     66  O   UNL     1       5.412   3.453  24.808  0.00  0.00    -0.387 OA
ATOM     67  H   UNL     1       4.624   3.555  24.229  0.00  0.00    +0.210 HD
ENDBRANCH  61  66
ENDBRANCH  54  58
ENDBRANCH  53  54
ENDBRANCH   1  53
TORSDOF 22
ENDMDL
MODEL 3
REMARK VINA RESULT:      -6.5      2.452      6.523
REMARK  Name = 
REMARK  23 active torsions:
REMARK  status: ('A' for Active; 'I' for Inactive)
REMARK    1  A    between atoms: C_1  and  C_2
REMARK    2  A    between atoms: C_3  and  O_62
REMARK    3  A    between atoms: C_5  and  O_61
REMARK    4  A    between atoms: C_7  and  O_60
REMARK    5  A    between atoms: C_8  and  O_11
REMARK    6  A    between atoms: O_11  and  C_12
REMARK    7  A    between atoms: C_12  and  C_13
REMARK    8  A    between atoms: C_14  and  O_59
REMARK    9  A    between atoms: C_16  and  O_58
REMARK   10  A    between atoms: C_17  and  O_43
REMARK   11  A    between atoms: C_18  and  O_21
REMARK   12  A    between atoms: O_21  and  C_22
REMARK   13  A    between atoms: C_23  and  C_35
REMARK   14  A    between atoms: C_27  and  O_34
REMARK   15  A    between atoms: C_29  and  O_33
REMARK   16  A    between atoms: C_37  and  O_42
REMARK   17  A    between atoms: C_38  and  O_41
REMARK   18  A    between atoms: O_43  and  C_44
REMARK   19  A    between atoms: C_46  and  O_57
REMARK   20  A    between atoms: C_48  and  O_56
REMARK   21  A    between atoms: C_49  and  O_55
REMARK   22  A    between atoms: C_51  and  C_53
REMARK   23  A    between atoms: C_53  and  O_54
REMARK                            x       y       z     vdW  Elec       q    Type
REMARK                         _______ _______ _______ _____ _____    ______ ____
ROOT
ATOM      1  C   UNL     1       5.239  -1.109  25.663  0.00  0.00    +0.179 C 
ATOM      2  O   UNL     1       5.947  -0.401  24.624  0.00  0.00    -0.331 OA
ATOM      3  C   UNL     1       6.336   0.964  24.845  0.00  0.00    +0.340 C 
ATOM      4  C   UNL     1       5.213   1.852  25.542  0.00  0.00    +0.221 C 
ATOM      5  C   UNL     1       4.737   1.073  26.779  0.00  0.00    +0.180 C 
ATOM      6  C   UNL     1       4.145  -0.257  26.317  0.00  0.00    +0.177 C 
ENDROOT
BRANCH   5   7
ATOM      7  O   UNL     1       3.787   1.821  27.543  0.00  0.00    -0.386 OA
ATOM      8  H   UNL     1       2.936   1.339  27.471  0.00  0.00    +0.210 HD
ENDBRANCH   5   7
BRANCH   6   9
ATOM      9  O   UNL     1       3.473  -0.900  27.397  0.00  0.00    -0.386 OA
ATOM     10  H   UNL     1       2.712  -1.383  27.027  0.00  0.00    +0.210 HD
ENDBRANCH   6   9
BRANCH   4  11
ATOM     11  O   UNL     1       4.110   2.223  24.646  0.00  0.00    -0.337 OA
BRANCH  11  12
ATOM     12  C   UNL     1       4.051   3.614  24.241  0.00  0.00    +0.282 C 
ATOM     13  O   UNL     1       2.911   4.289  24.817  0.00  0.00    -0.341 OA
ATOM     14  C   UNL     1       1.640   3.854  24.321  0.00  0.00    +0.178 C 
ATOM     15  C   UNL     1       1.538   3.987  22.791  0.00  0.00    +0.177 C 
ATOM     16  C   UNL     1       2.746   3.327  22.119  0.00  0.00    +0.179 C 
ATOM     17  C   UNL     1       4.059   3.854  22.713  0.00  0.00    +0.201 C 
BRANCH  17  18
ATOM     18  O   UNL     1       4.205   5.249  22.370  0.00  0.00    -0.384 OA
ATOM     19  H   UNL     1       3.625   5.751  22.983  0.00  0.00    +0.210 HD
ENDBRANCH  17  18
BRANCH  16  20
ATOM     20  O   UNL     1       2.694   3.604  20.707  0.00  0.00    -0.386 OA
ATOM     21  H   UNL     1       2.921   4.550  20.603  0.00  0.00    +0.210 HD
ENDBRANCH  16  20
BRANCH  15  22
ATOM     22  O   UNL     1       1.498   5.375  22.403  0.00  0.00    -0.386 OA
ATOM     23  H   UNL     1       1.845   5.391  21.487  0.00  0.00    +0.210 HD
ENDBRANCH  15  22
BRANCH  14  24
ATOM     24  C   UNL     1       0.554   4.680  25.030  0.00  0.00    +0.190 C 
BRANCH  24  25
ATOM     25  O   UNL     1       0.964   6.037  25.188  0.00  0.00    -0.392 OA
ATOM     26  H   UNL     1       0.183   6.591  24.993  0.00  0.00    +0.210 HD
ENDBRANCH  24  25
ENDBRANCH  14  24
ENDBRANCH  11  12
ENDBRANCH   4  11
BRANCH   3  27
ATOM     27  O   UNL     1       6.698   1.627  23.617  0.00  0.00    -0.453 OA
BRANCH  27  28
ATOM     28  C   UNL     1       7.896   2.315  23.417  0.00  0.00    +0.214 A 
ATOM     29  C   UNL     1       8.052   3.804  23.549  0.00  0.00    +0.238 A 
ATOM     30  O   UNL     1       7.080   4.540  23.587  0.00  0.00    -0.283 OA
ATOM     31  C   UNL     1       9.444   4.332  23.627  0.00  0.00    +0.109 A 
ATOM     32  C   UNL     1      10.485   3.485  23.248  0.00  0.00    +0.147 A 
ATOM     33  C   UNL     1      11.823   3.915  23.270  0.00  0.00    +0.092 A 
ATOM     34  C   UNL     1      12.116   5.206  23.689  0.00  0.00    +0.124 A 
ATOM     35  C   UNL     1      11.098   6.066  24.083  0.00  0.00    +0.091 A 
ATOM     36  O   UNL     1      10.275   2.183  22.870  0.00  0.00    -0.451 OA
ATOM     37  C   UNL     1       9.764   5.633  24.047  0.00  0.00    +0.135 A 
ATOM     38  C   UNL     1       9.029   1.628  23.118  0.00  0.00    +0.181 A 
BRANCH  38  39
ATOM     39  C   UNL     1       9.074   0.177  23.277  0.00  0.00    +0.025 A 
ATOM     40  C   UNL     1       9.685  -0.282  24.456  0.00  0.00    +0.015 A 
ATOM     41  C   UNL     1       9.825  -1.639  24.708  0.00  0.00    +0.050 A 
ATOM     42  C   UNL     1       9.260  -2.543  23.823  0.00  0.00    +0.158 A 
ATOM     43  C   UNL     1       8.615  -2.106  22.664  0.00  0.00    +0.159 A 
ATOM     44  C   UNL     1       8.566  -0.744  22.350  0.00  0.00    +0.060 A 
BRANCH  42  45
ATOM     45  O   UNL     1       9.333  -3.873  24.114  0.00  0.00    -0.503 OA
ATOM     46  H   UNL     1       9.853  -3.956  24.941  0.00  0.00    +0.292 HD
ENDBRANCH  42  45
BRANCH  43  47
ATOM     47  O   UNL     1       7.973  -3.038  21.895  0.00  0.00    -0.503 OA
ATOM     48  H   UNL     1       7.051  -3.114  22.180  0.00  0.00    +0.292 HD
ENDBRANCH  43  47
ENDBRANCH  38  39
BRANCH  37  49
ATOM     49  O   UNL     1       8.795   6.501  24.471  0.00  0.00    -0.506 OA
ATOM     50  H   UNL     1       9.158   7.109  25.122  0.00  0.00    +0.292 HD
ENDBRANCH  37  49
BRANCH  34  51
ATOM     51  O   UNL     1      13.395   5.676  23.744  0.00  0.00    -0.507 OA
ATOM     52  H   UNL     1      13.639   5.858  24.667  0.00  0.00    +0.292 HD
ENDBRANCH  34  51
ENDBRANCH  27  28
ENDBRANCH   3  27
BRANCH   1  53
ATOM     53  C   UNL     1       6.079  -2.082  26.587  0.00  0.00    +0.197 C 
BRANCH  53  54
ATOM     54  O   UNL     1       5.844  -3.509  26.568  0.00  0.00    -0.346 OA
BRANCH  54  58
ATOM     55  C   UNL     1       2.021  -4.853  24.620  0.00  0.00    +0.041 C 
ATOM     56  C   UNL     1       3.312  -5.642  24.837  0.00  0.00    +0.149 C 
ATOM     57  O   UNL     1       4.145  -5.031  25.848  0.00  0.00    -0.343 OA
ATOM     58  C   UNL     1       4.928  -3.887  25.470  0.00  0.00    +0.282 C 
ATOM     59  C   UNL     1       5.753  -4.215  24.191  0.00  0.00    +0.201 C 
ATOM     60  C   UNL     1       4.803  -4.664  23.058  0.00  0.00    +0.179 C 
ATOM     61  C   UNL     1       4.014  -5.904  23.493  0.00  0.00    +0.174 C 
BRANCH  59  62
ATOM     62  O   UNL     1       6.680  -5.288  24.483  0.00  0.00    -0.384 OA
ATOM     63  H   UNL     1       6.366  -5.666  25.330  0.00  0.00    +0.210 HD
ENDBRANCH  59  62
BRANCH  60  64
ATOM     64  O   UNL     1       5.508  -4.920  21.835  0.00  0.00    -0.386 OA
ATOM     65  H   UNL     1       5.848  -5.835  21.875  0.00  0.00    +0.210 HD
ENDBRANCH  60  64
BRANCH  61  66
ATOM     66  O   UNL     1       4.883  -7.041  23.582  0.00  0.00    -0.387 OA
ATOM     67  H   UNL     1       4.992  -7.239  24.540  0.00  0.00    +0.210 HD
ENDBRANCH  61  66
ENDBRANCH  54  58
ENDBRANCH  53  54
ENDBRANCH   1  53
TORSDOF 22
ENDMDL
MODEL 4
REMARK VINA RESULT:      -6.5      2.441      8.367
REMARK  Name = 
REMARK  23 active torsions:
REMARK  status: ('A' for Active; 'I' for Inactive)
REMARK    1  A    between atoms: C_1  and  C_2
REMARK    2  A    between atoms: C_3  and  O_62
REMARK    3  A    between atoms: C_5  and  O_61
REMARK    4  A    between atoms: C_7  and  O_60
REMARK    5  A    between atoms: C_8  and  O_11
REMARK    6  A    between atoms: O_11  and  C_12
REMARK    7  A    between atoms: C_12  and  C_13
REMARK    8  A    between atoms: C_14  and  O_59
REMARK    9  A    between atoms: C_16  and  O_58
REMARK   10  A    between atoms: C_17  and  O_43
REMARK   11  A    between atoms: C_18  and  O_21
REMARK   12  A    between atoms: O_21  and  C_22
REMARK   13  A    between atoms: C_23  and  C_35
REMARK   14  A    between atoms: C_27  and  O_34
REMARK   15  A    between atoms: C_29  and  O_33
REMARK   16  A    between atoms: C_37  and  O_42
REMARK   17  A    between atoms: C_38  and  O_41
REMARK   18  A    between atoms: O_43  and  C_44
REMARK   19  A    between atoms: C_46  and  O_57
REMARK   20  A    between atoms: C_48  and  O_56
REMARK   21  A    between atoms: C_49  and  O_55
REMARK   22  A    between atoms: C_51  and  C_53
REMARK   23  A    between atoms: C_53  and  O_54
REMARK                            x       y       z     vdW  Elec       q    Type
REMARK                         _______ _______ _______ _____ _____    ______ ____
ROOT
ATOM      1  C   UNL     1       2.699  -0.228  27.912  0.00  0.00    +0.179 C 
ATOM      2  O   UNL     1       3.939  -0.389  27.191  0.00  0.00    -0.331 OA
ATOM      3  C   UNL     1       3.994  -1.304  26.086  0.00  0.00    +0.340 C 
ATOM      4  C   UNL     1       3.253  -2.688  26.353  0.00  0.00    +0.221 C 
ATOM      5  C   UNL     1       1.850  -2.343  26.880  0.00  0.00    +0.180 C 
ATOM      6  C   UNL     1       2.000  -1.565  28.185  0.00  0.00    +0.177 C 
ENDROOT
BRANCH   5   7
ATOM      7  O   UNL     1       1.053  -3.516  27.069  0.00  0.00    -0.386 OA
ATOM      8  H   UNL     1       0.883  -3.580  28.032  0.00  0.00    +0.210 HD
ENDBRANCH   5   7
BRANCH   6   9
ATOM      9  O   UNL     1       0.735  -1.439  28.832  0.00  0.00    -0.386 OA
ATOM     10  H   UNL     1       0.865  -1.642  29.777  0.00  0.00    +0.210 HD
ENDBRANCH   6   9
BRANCH   4  11
ATOM     11  O   UNL     1       3.990  -3.591  27.248  0.00  0.00    -0.337 OA
BRANCH  11  12
ATOM     12  C   UNL     1       4.131  -4.963  26.801  0.00  0.00    +0.282 C 
ATOM     13  O   UNL     1       3.485  -5.887  27.705  0.00  0.00    -0.341 OA
ATOM     14  C   UNL     1       4.103  -6.002  28.991  0.00  0.00    +0.178 C 
ATOM     15  C   UNL     1       5.585  -6.406  28.889  0.00  0.00    +0.177 C 
ATOM     16  C   UNL     1       6.319  -5.488  27.907  0.00  0.00    +0.179 C 
ATOM     17  C   UNL     1       5.587  -5.428  26.560  0.00  0.00    +0.201 C 
BRANCH  17  18
ATOM     18  O   UNL     1       5.658  -6.723  25.927  0.00  0.00    -0.384 OA
ATOM     19  H   UNL     1       5.681  -7.389  26.648  0.00  0.00    +0.210 HD
ENDBRANCH  17  18
BRANCH  16  20
ATOM     20  O   UNL     1       7.656  -5.990  27.722  0.00  0.00    -0.386 OA
ATOM     21  H   UNL     1       7.986  -6.230  28.612  0.00  0.00    +0.210 HD
ENDBRANCH  16  20
BRANCH  15  22
ATOM     22  O   UNL     1       5.709  -7.766  28.427  0.00  0.00    -0.386 OA
ATOM     23  H   UNL     1       5.211  -7.794  27.584  0.00  0.00    +0.210 HD
ENDBRANCH  15  22
BRANCH  14  24
ATOM     24  C   UNL     1       3.296  -7.026  29.808  0.00  0.00    +0.190 C 
BRANCH  24  25
ATOM     25  O   UNL     1       2.693  -7.999  28.956  0.00  0.00    -0.392 OA
ATOM     26  H   UNL     1       3.288  -8.107  28.188  0.00  0.00    +0.210 HD
ENDBRANCH  24  25
ENDBRANCH  14  24
ENDBRANCH  11  12
ENDBRANCH   4  11
BRANCH   3  27
ATOM     27  O   UNL     1       5.351  -1.617  25.712  0.00  0.00    -0.453 OA
BRANCH  27  28
ATOM     28  C   UNL     1       6.116  -0.864  24.819  0.00  0.00    +0.214 A 
ATOM     29  C   UNL     1       6.666   0.503  25.115  0.00  0.00    +0.238 A 
ATOM     30  O   UNL     1       6.261   1.155  26.063  0.00  0.00    -0.283 OA
ATOM     31  C   UNL     1       7.720   1.019  24.197  0.00  0.00    +0.109 A 
ATOM     32  C   UNL     1       7.890   0.376  22.970  0.00  0.00    +0.147 A 
ATOM     33  C   UNL     1       8.845   0.817  22.038  0.00  0.00    +0.092 A 
ATOM     34  C   UNL     1       9.646   1.907  22.350  0.00  0.00    +0.124 A 
ATOM     35  C   UNL     1       9.507   2.558  23.570  0.00  0.00    +0.091 A 
ATOM     36  O   UNL     1       7.168  -0.736  22.615  0.00  0.00    -0.451 OA
ATOM     37  C   UNL     1       8.542   2.119  24.490  0.00  0.00    +0.135 A 
ATOM     38  C   UNL     1       6.440  -1.380  23.605  0.00  0.00    +0.181 A 
BRANCH  38  39
ATOM     39  C   UNL     1       6.241  -2.800  23.330  0.00  0.00    +0.025 A 
ATOM     40  C   UNL     1       7.403  -3.589  23.364  0.00  0.00    +0.015 A 
ATOM     41  C   UNL     1       7.354  -4.947  23.083  0.00  0.00    +0.050 A 
ATOM     42  C   UNL     1       6.121  -5.539  22.866  0.00  0.00    +0.158 A 
ATOM     43  C   UNL     1       4.949  -4.779  22.867  0.00  0.00    +0.159 A 
ATOM     44  C   UNL     1       5.003  -3.392  23.041  0.00  0.00    +0.060 A 
BRANCH  42  45
ATOM     45  O   UNL     1       6.070  -6.887  22.667  0.00  0.00    -0.503 OA
ATOM     46  H   UNL     1       5.432  -7.044  21.940  0.00  0.00    +0.292 HD
ENDBRANCH  42  45
BRANCH  43  47
ATOM     47  O   UNL     1       3.754  -5.439  22.770  0.00  0.00    -0.503 OA
ATOM     48  H   UNL     1       3.070  -4.942  23.241  0.00  0.00    +0.292 HD
ENDBRANCH  43  47
ENDBRANCH  38  39
BRANCH  37  49
ATOM     49  O   UNL     1       8.457   2.769  25.690  0.00  0.00    -0.506 OA
ATOM     50  H   UNL     1       7.761   2.379  26.227  0.00  0.00    +0.292 HD
ENDBRANCH  37  49
BRANCH  34  51
ATOM     51  O   UNL     1      10.600   2.372  21.492  0.00  0.00    -0.507 OA
ATOM     52  H   UNL     1      10.190   2.955  20.831  0.00  0.00    +0.292 HD
ENDBRANCH  34  51
ENDBRANCH  27  28
ENDBRANCH   3  27
BRANCH   1  53
ATOM     53  C   UNL     1       1.801   1.024  27.550  0.00  0.00    +0.197 C 
BRANCH  53  54
ATOM     54  O   UNL     1       2.217   2.362  27.907  0.00  0.00    -0.346 OA
BRANCH  54  58
ATOM     55  C   UNL     1       2.067   3.501  23.559  0.00  0.00    +0.041 C 
ATOM     56  C   UNL     1       3.271   3.059  24.390  0.00  0.00    +0.149 C 
ATOM     57  O   UNL     1       2.863   2.387  25.603  0.00  0.00    -0.343 OA
ATOM     58  C   UNL     1       2.422   3.199  26.705  0.00  0.00    +0.282 C 
ATOM     59  C   UNL     1       3.486   4.296  27.006  0.00  0.00    +0.201 C 
ATOM     60  C   UNL     1       3.742   5.137  25.735  0.00  0.00    +0.179 C 
ATOM     61  C   UNL     1       4.240   4.236  24.599  0.00  0.00    +0.174 C 
BRANCH  59  62
ATOM     62  O   UNL     1       4.722   3.663  27.411  0.00  0.00    -0.384 OA
ATOM     63  H   UNL     1       5.169   4.326  27.977  0.00  0.00    +0.210 HD
ENDBRANCH  59  62
BRANCH  60  64
ATOM     64  O   UNL     1       4.671   6.204  25.975  0.00  0.00    -0.386 OA
ATOM     65  H   UNL     1       4.261   6.813  26.620  0.00  0.00    +0.210 HD
ENDBRANCH  60  64
BRANCH  61  66
ATOM     66  O   UNL     1       5.565   3.765  24.882  0.00  0.00    -0.387 OA
ATOM     67  H   UNL     1       5.537   2.784  24.809  0.00  0.00    +0.210 HD
ENDBRANCH  61  66
ENDBRANCH  54  58
ENDBRANCH  53  54
ENDBRANCH   1  53
TORSDOF 22
ENDMDL
MODEL 5
REMARK VINA RESULT:      -6.4      2.105      8.078
REMARK  Name = 
REMARK  23 active torsions:
REMARK  status: ('A' for Active; 'I' for Inactive)
REMARK    1  A    between atoms: C_1  and  C_2
REMARK    2  A    between atoms: C_3  and  O_62
REMARK    3  A    between atoms: C_5  and  O_61
REMARK    4  A    between atoms: C_7  and  O_60
REMARK    5  A    between atoms: C_8  and  O_11
REMARK    6  A    between atoms: O_11  and  C_12
REMARK    7  A    between atoms: C_12  and  C_13
REMARK    8  A    between atoms: C_14  and  O_59
REMARK    9  A    between atoms: C_16  and  O_58
REMARK   10  A    between atoms: C_17  and  O_43
REMARK   11  A    between atoms: C_18  and  O_21
REMARK   12  A    between atoms: O_21  and  C_22
REMARK   13  A    between atoms: C_23  and  C_35
REMARK   14  A    between atoms: C_27  and  O_34
REMARK   15  A    between atoms: C_29  and  O_33
REMARK   16  A    between atoms: C_37  and  O_42
REMARK   17  A    between atoms: C_38  and  O_41
REMARK   18  A    between atoms: O_43  and  C_44
REMARK   19  A    between atoms: C_46  and  O_57
REMARK   20  A    between atoms: C_48  and  O_56
REMARK   21  A    between atoms: C_49  and  O_55
REMARK   22  A    between atoms: C_51  and  C_53
REMARK   23  A    between atoms: C_53  and  O_54
REMARK                            x       y       z     vdW  Elec       q    Type
REMARK                         _______ _______ _______ _____ _____    ______ ____
ROOT
ATOM      1  C   UNL     1       5.232  -1.116  28.234  0.00  0.00    +0.179 C 
ATOM      2  O   UNL     1       5.805  -0.949  26.920  0.00  0.00    -0.331 OA
ATOM      3  C   UNL     1       4.937  -0.915  25.776  0.00  0.00    +0.340 C 
ATOM      4  C   UNL     1       3.778  -2.005  25.809  0.00  0.00    +0.221 C 
ATOM      5  C   UNL     1       3.096  -1.884  27.182  0.00  0.00    +0.180 C 
ATOM      6  C   UNL     1       4.130  -2.182  28.265  0.00  0.00    +0.177 C 
ENDROOT
BRANCH   5   7
ATOM      7  O   UNL     1       1.969  -2.759  27.292  0.00  0.00    -0.386 OA
ATOM      8  H   UNL     1       2.333  -3.660  27.424  0.00  0.00    +0.210 HD
ENDBRANCH   5   7
BRANCH   6   9
ATOM      9  O   UNL     1       3.491  -2.322  29.532  0.00  0.00    -0.386 OA
ATOM     10  H   UNL     1       3.689  -3.217  29.866  0.00  0.00    +0.210 HD
ENDBRANCH   6   9
BRANCH   4  11
ATOM     11  O   UNL     1       4.241  -3.370  25.523  0.00  0.00    -0.337 OA
BRANCH  11  12
ATOM     12  C   UNL     1       3.352  -4.197  24.730  0.00  0.00    +0.282 C 
ATOM     13  O   UNL     1       2.655  -5.165  25.545  0.00  0.00    -0.341 OA
ATOM     14  C   UNL     1       3.484  -6.191  26.102  0.00  0.00    +0.178 C 
ATOM     15  C   UNL     1       4.258  -6.963  25.017  0.00  0.00    +0.177 C 
ATOM     16  C   UNL     1       4.986  -5.987  24.088  0.00  0.00    +0.179 C 
ATOM     17  C   UNL     1       4.022  -4.927  23.542  0.00  0.00    +0.201 C 
BRANCH  17  18
ATOM     18  O   UNL     1       3.063  -5.567  22.672  0.00  0.00    -0.384 OA
ATOM     19  H   UNL     1       3.552  -5.840  21.866  0.00  0.00    +0.210 HD
ENDBRANCH  17  18
BRANCH  16  20
ATOM     20  O   UNL     1       5.569  -6.734  23.004  0.00  0.00    -0.386 OA
ATOM     21  H   UNL     1       6.117  -6.101  22.497  0.00  0.00    +0.210 HD
ENDBRANCH  16  20
BRANCH  15  22
ATOM     22  O   UNL     1       3.360  -7.766  24.227  0.00  0.00    -0.386 OA
ATOM     23  H   UNL     1       3.838  -7.928  23.387  0.00  0.00    +0.210 HD
ENDBRANCH  15  22
BRANCH  14  24
ATOM     24  C   UNL     1       2.581  -7.128  26.922  0.00  0.00    +0.190 C 
BRANCH  24  25
ATOM     25  O   UNL     1       3.199  -7.479  28.159  0.00  0.00    -0.392 OA
ATOM     26  H   UNL     1       3.714  -8.293  27.995  0.00  0.00    +0.210 HD
ENDBRANCH  24  25
ENDBRANCH  14  24
ENDBRANCH  11  12
ENDBRANCH   4  11
BRANCH   3  27
ATOM     27  O   UNL     1       5.662  -1.105  24.544  0.00  0.00    -0.453 OA
BRANCH  27  28
ATOM     28  C   UNL     1       6.740  -0.318  24.134  0.00  0.00    +0.214 A 
ATOM     29  C   UNL     1       6.679   1.171  23.939  0.00  0.00    +0.238 A 
ATOM     30  O   UNL     1       5.610   1.756  23.877  0.00  0.00    -0.283 OA
ATOM     31  C   UNL     1       7.979   1.890  23.824  0.00  0.00    +0.109 A 
ATOM     32  C   UNL     1       9.124   1.133  23.574  0.00  0.00    +0.147 A 
ATOM     33  C   UNL     1      10.384   1.739  23.428  0.00  0.00    +0.092 A 
ATOM     34  C   UNL     1      10.494   3.118  23.546  0.00  0.00    +0.124 A 
ATOM     35  C   UNL     1       9.371   3.894  23.808  0.00  0.00    +0.091 A 
ATOM     36  O   UNL     1       9.098  -0.236  23.493  0.00  0.00    -0.451 OA
ATOM     37  C   UNL     1       8.115   3.283  23.941  0.00  0.00    +0.135 A 
ATOM     38  C   UNL     1       7.954  -0.891  23.924  0.00  0.00    +0.181 A 
BRANCH  38  39
ATOM     39  C   UNL     1       8.216  -2.252  24.383  0.00  0.00    +0.025 A 
ATOM     40  C   UNL     1       8.435  -2.390  25.764  0.00  0.00    +0.015 A 
ATOM     41  C   UNL     1       8.732  -3.626  26.321  0.00  0.00    +0.050 A 
ATOM     42  C   UNL     1       8.711  -4.746  25.506  0.00  0.00    +0.158 A 
ATOM     43  C   UNL     1       8.457  -4.635  24.138  0.00  0.00    +0.159 A 
ATOM     44  C   UNL     1       8.265  -3.380  23.552  0.00  0.00    +0.060 A 
BRANCH  42  45
ATOM     45  O   UNL     1       8.927  -5.968  26.072  0.00  0.00    -0.503 OA
ATOM     46  H   UNL     1       8.525  -6.634  25.477  0.00  0.00    +0.292 HD
ENDBRANCH  42  45
BRANCH  43  47
ATOM     47  O   UNL     1       8.329  -5.788  23.412  0.00  0.00    -0.503 OA
ATOM     48  H   UNL     1       7.889  -5.594  22.571  0.00  0.00    +0.292 HD
ENDBRANCH  43  47
ENDBRANCH  38  39
BRANCH  37  49
ATOM     49  O   UNL     1       7.040   4.080  24.226  0.00  0.00    -0.506 OA
ATOM     50  H   UNL     1       6.584   4.321  23.414  0.00  0.00    +0.292 HD
ENDBRANCH  37  49
BRANCH  34  51
ATOM     51  O   UNL     1      11.691   3.760  23.428  0.00  0.00    -0.507 OA
ATOM     52  H   UNL     1      12.182   3.402  22.669  0.00  0.00    +0.292 HD
ENDBRANCH  34  51
ENDBRANCH  27  28
ENDBRANCH   3  27
BRANCH   1  53
ATOM     53  C   UNL     1       5.037   0.184  29.116  0.00  0.00    +0.197 C 
BRANCH  53  54
ATOM     54  O   UNL     1       6.166   1.016  29.469  0.00  0.00    -0.346 OA
BRANCH  54  58
ATOM     55  C   UNL     1       3.830   4.858  29.463  0.00  0.00    +0.041 C 
ATOM     56  C   UNL     1       4.124   3.916  28.295  0.00  0.00    +0.149 C 
ATOM     57  O   UNL     1       4.527   2.607  28.756  0.00  0.00    -0.343 OA
ATOM     58  C   UNL     1       5.883   2.444  29.207  0.00  0.00    +0.282 C 
ATOM     59  C   UNL     1       6.864   2.982  28.124  0.00  0.00    +0.201 C 
ATOM     60  C   UNL     1       6.535   4.458  27.808  0.00  0.00    +0.179 C 
ATOM     61  C   UNL     1       5.094   4.580  27.302  0.00  0.00    +0.174 C 
BRANCH  59  62
ATOM     62  O   UNL     1       6.719   2.197  26.917  0.00  0.00    -0.384 OA
ATOM     63  H   UNL     1       6.788   2.846  26.187  0.00  0.00    +0.210 HD
ENDBRANCH  59  62
BRANCH  60  64
ATOM     64  O   UNL     1       7.452   5.022  26.859  0.00  0.00    -0.386 OA
ATOM     65  H   UNL     1       7.057   4.921  25.971  0.00  0.00    +0.210 HD
ENDBRANCH  60  64
BRANCH  61  66
ATOM     66  O   UNL     1       4.973   3.992  25.999  0.00  0.00    -0.387 OA
ATOM     67  H   UNL     1       4.988   4.734  25.352  0.00  0.00    +0.210 HD
ENDBRANCH  61  66
ENDBRANCH  54  58
ENDBRANCH  53  54
ENDBRANCH   1  53
TORSDOF 22
ENDMDL
MODEL 6
REMARK VINA RESULT:      -6.2      2.456      9.684
REMARK  Name = 
REMARK  23 active torsions:
REMARK  status: ('A' for Active; 'I' for Inactive)
REMARK    1  A    between atoms: C_1  and  C_2
REMARK    2  A    between atoms: C_3  and  O_62
REMARK    3  A    between atoms: C_5  and  O_61
REMARK    4  A    between atoms: C_7  and  O_60
REMARK    5  A    between atoms: C_8  and  O_11
REMARK    6  A    between atoms: O_11  and  C_12
REMARK    7  A    between atoms: C_12  and  C_13
REMARK    8  A    between atoms: C_14  and  O_59
REMARK    9  A    between atoms: C_16  and  O_58
REMARK   10  A    between atoms: C_17  and  O_43
REMARK   11  A    between atoms: C_18  and  O_21
REMARK   12  A    between atoms: O_21  and  C_22
REMARK   13  A    between atoms: C_23  and  C_35
REMARK   14  A    between atoms: C_27  and  O_34
REMARK   15  A    between atoms: C_29  and  O_33
REMARK   16  A    between atoms: C_37  and  O_42
REMARK   17  A    between atoms: C_38  and  O_41
REMARK   18  A    between atoms: O_43  and  C_44
REMARK   19  A    between atoms: C_46  and  O_57
REMARK   20  A    between atoms: C_48  and  O_56
REMARK   21  A    between atoms: C_49  and  O_55
REMARK   22  A    between atoms: C_51  and  C_53
REMARK   23  A    between atoms: C_53  and  O_54
REMARK                            x       y       z     vdW  Elec       q    Type
REMARK                         _______ _______ _______ _____ _____    ______ ____
ROOT
ATOM      1  C   UNL     1       8.376  -2.443  24.608  0.00  0.00    +0.179 C 
ATOM      2  O   UNL     1       7.037  -2.214  25.097  0.00  0.00    -0.331 OA
ATOM      3  C   UNL     1       6.669  -2.713  26.392  0.00  0.00    +0.340 C 
ATOM      4  C   UNL     1       7.190  -4.187  26.691  0.00  0.00    +0.221 C 
ATOM      5  C   UNL     1       8.691  -4.201  26.360  0.00  0.00    +0.180 C 
ATOM      6  C   UNL     1       8.865  -3.871  24.879  0.00  0.00    +0.177 C 
ENDROOT
BRANCH   5   7
ATOM      7  O   UNL     1       9.292  -5.460  26.680  0.00  0.00    -0.386 OA
ATOM      8  H   UNL     1      10.259  -5.335  26.582  0.00  0.00    +0.210 HD
ENDBRANCH   5   7
BRANCH   6   9
ATOM      9  O   UNL     1      10.211  -4.112  24.475  0.00  0.00    -0.386 OA
ATOM     10  H   UNL     1      10.217  -4.197  23.504  0.00  0.00    +0.210 HD
ENDBRANCH   6   9
BRANCH   4  11
ATOM     11  O   UNL     1       6.442  -5.234  25.981  0.00  0.00    -0.337 OA
BRANCH  11  12
ATOM     12  C   UNL     1       5.295  -4.793  25.210  0.00  0.00    +0.282 C 
ATOM     13  O   UNL     1       4.104  -5.536  25.554  0.00  0.00    -0.341 OA
ATOM     14  C   UNL     1       4.122  -6.915  25.168  0.00  0.00    +0.178 C 
ATOM     15  C   UNL     1       4.363  -7.090  23.657  0.00  0.00    +0.177 C 
ATOM     16  C   UNL     1       5.591  -6.287  23.218  0.00  0.00    +0.179 C 
ATOM     17  C   UNL     1       5.484  -4.826  23.675  0.00  0.00    +0.201 C 
BRANCH  17  18
ATOM     18  O   UNL     1       4.397  -4.191  22.969  0.00  0.00    -0.384 OA
ATOM     19  H   UNL     1       3.571  -4.447  23.433  0.00  0.00    +0.210 HD
ENDBRANCH  17  18
BRANCH  16  20
ATOM     20  O   UNL     1       5.693  -6.352  21.783  0.00  0.00    -0.386 OA
ATOM     21  H   UNL     1       4.879  -5.939  21.431  0.00  0.00    +0.210 HD
ENDBRANCH  16  20
BRANCH  15  22
ATOM     22  O   UNL     1       3.222  -6.632  22.904  0.00  0.00    -0.386 OA
ATOM     23  H   UNL     1       3.087  -5.704  23.189  0.00  0.00    +0.210 HD
ENDBRANCH  15  22
BRANCH  14  24
ATOM     24  C   UNL     1       2.785  -7.539  25.600  0.00  0.00    +0.190 C 
BRANCH  24  25
ATOM     25  O   UNL     1       2.647  -8.862  25.082  0.00  0.00    -0.392 OA
ATOM     26  H   UNL     1       3.516  -9.109  24.710  0.00  0.00    +0.210 HD
ENDBRANCH  24  25
ENDBRANCH  14  24
ENDBRANCH  11  12
ENDBRANCH   4  11
BRANCH   3  27
ATOM     27  O   UNL     1       5.239  -2.723  26.579  0.00  0.00    -0.453 OA
BRANCH  27  28
ATOM     28  C   UNL     1       4.549  -1.859  27.431  0.00  0.00    +0.214 A 
ATOM     29  C   UNL     1       4.287  -0.408  27.139  0.00  0.00    +0.238 A 
ATOM     30  O   UNL     1       4.887   0.175  26.252  0.00  0.00    -0.283 OA
ATOM     31  C   UNL     1       3.268   0.276  27.984  0.00  0.00    +0.109 A 
ATOM     32  C   UNL     1       2.876  -0.348  29.168  0.00  0.00    +0.147 A 
ATOM     33  C   UNL     1       1.939   0.244  30.032  0.00  0.00    +0.092 A 
ATOM     34  C   UNL     1       1.381   1.470  29.694  0.00  0.00    +0.124 A 
ATOM     35  C   UNL     1       1.745   2.107  28.513  0.00  0.00    +0.091 A 
ATOM     36  O   UNL     1       3.348  -1.581  29.543  0.00  0.00    -0.451 OA
ATOM     37  C   UNL     1       2.690   1.515  27.662  0.00  0.00    +0.135 A 
ATOM     38  C   UNL     1       4.030  -2.329  28.595  0.00  0.00    +0.181 A 
BRANCH  38  39
ATOM     39  C   UNL     1       3.941  -3.767  28.835  0.00  0.00    +0.025 A 
ATOM     40  C   UNL     1       2.718  -4.362  28.481  0.00  0.00    +0.015 A 
ATOM     41  C   UNL     1       2.493  -5.714  28.694  0.00  0.00    +0.050 A 
ATOM     42  C   UNL     1       3.533  -6.496  29.170  0.00  0.00    +0.158 A 
ATOM     43  C   UNL     1       4.769  -5.931  29.491  0.00  0.00    +0.159 A 
ATOM     44  C   UNL     1       4.966  -4.551  29.382  0.00  0.00    +0.060 A 
BRANCH  42  45
ATOM     45  O   UNL     1       3.330  -7.838  29.305  0.00  0.00    -0.503 OA
ATOM     46  H   UNL     1       4.132  -8.284  28.959  0.00  0.00    +0.292 HD
ENDBRANCH  42  45
BRANCH  43  47
ATOM     47  O   UNL     1       5.790  -6.772  29.839  0.00  0.00    -0.503 OA
ATOM     48  H   UNL     1       5.483  -7.394  30.515  0.00  0.00    +0.292 HD
ENDBRANCH  43  47
ENDBRANCH  38  39
BRANCH  37  49
ATOM     49  O   UNL     1       2.999   2.161  26.497  0.00  0.00    -0.506 OA
ATOM     50  H   UNL     1       2.593   3.033  26.485  0.00  0.00    +0.292 HD
ENDBRANCH  37  49
BRANCH  34  51
ATOM     51  O   UNL     1       0.457   2.087  30.485  0.00  0.00    -0.507 OA
ATOM     52  H   UNL     1      -0.324   2.322  29.955  0.00  0.00    +0.292 HD
ENDBRANCH  34  51
ENDBRANCH  27  28
ENDBRANCH   3  27
BRANCH   1  53
ATOM     53  C   UNL     1       9.417  -1.259  24.747  0.00  0.00    +0.197 C 
BRANCH  53  54
ATOM     54  O   UNL     1       9.092  -0.072  25.507  0.00  0.00    -0.346 OA
BRANCH  54  58
ATOM     55  C   UNL     1       6.475   1.892  22.422  0.00  0.00    +0.041 C 
ATOM     56  C   UNL     1       7.923   1.420  22.287  0.00  0.00    +0.149 C 
ATOM     57  O   UNL     1       8.275   0.480  23.327  0.00  0.00    -0.343 OA
ATOM     58  C   UNL     1       8.585   1.005  24.629  0.00  0.00    +0.282 C 
ATOM     59  C   UNL     1       9.661   2.124  24.500  0.00  0.00    +0.201 C 
ATOM     60  C   UNL     1       9.157   3.225  23.539  0.00  0.00    +0.179 C 
ATOM     61  C   UNL     1       8.870   2.626  22.157  0.00  0.00    +0.174 C 
BRANCH  59  62
ATOM     62  O   UNL     1      10.881   1.555  23.969  0.00  0.00    -0.384 OA
ATOM     63  H   UNL     1      11.594   1.932  24.523  0.00  0.00    +0.210 HD
ENDBRANCH  59  62
BRANCH  60  64
ATOM     64  O   UNL     1      10.086   4.312  23.433  0.00  0.00    -0.386 OA
ATOM     65  H   UNL     1      10.956   3.988  23.737  0.00  0.00    +0.210 HD
ENDBRANCH  60  64
BRANCH  61  66
ATOM     66  O   UNL     1      10.096   2.248  21.515  0.00  0.00    -0.387 OA
ATOM     67  H   UNL     1      10.722   1.991  22.230  0.00  0.00    +0.210 HD
ENDBRANCH  61  66
ENDBRANCH  54  58
ENDBRANCH  53  54
ENDBRANCH   1  53
TORSDOF 22
ENDMDL
MODEL 7
REMARK VINA RESULT:      -6.2      2.332      9.268
REMARK  Name = 
REMARK  23 active torsions:
REMARK  status: ('A' for Active; 'I' for Inactive)
REMARK    1  A    between atoms: C_1  and  C_2
REMARK    2  A    between atoms: C_3  and  O_62
REMARK    3  A    between atoms: C_5  and  O_61
REMARK    4  A    between atoms: C_7  and  O_60
REMARK    5  A    between atoms: C_8  and  O_11
REMARK    6  A    between atoms: O_11  and  C_12
REMARK    7  A    between atoms: C_12  and  C_13
REMARK    8  A    between atoms: C_14  and  O_59
REMARK    9  A    between atoms: C_16  and  O_58
REMARK   10  A    between atoms: C_17  and  O_43
REMARK   11  A    between atoms: C_18  and  O_21
REMARK   12  A    between atoms: O_21  and  C_22
REMARK   13  A    between atoms: C_23  and  C_35
REMARK   14  A    between atoms: C_27  and  O_34
REMARK   15  A    between atoms: C_29  and  O_33
REMARK   16  A    between atoms: C_37  and  O_42
REMARK   17  A    between atoms: C_38  and  O_41
REMARK   18  A    between atoms: O_43  and  C_44
REMARK   19  A    between atoms: C_46  and  O_57
REMARK   20  A    between atoms: C_48  and  O_56
REMARK   21  A    between atoms: C_49  and  O_55
REMARK   22  A    between atoms: C_51  and  C_53
REMARK   23  A    between atoms: C_53  and  O_54
REMARK                            x       y       z     vdW  Elec       q    Type
REMARK                         _______ _______ _______ _____ _____    ______ ____
ROOT
ATOM      1  C   UNL     1       8.341  -1.179  23.746  0.00  0.00    +0.179 C 
ATOM      2  O   UNL     1       7.464  -1.045  24.884  0.00  0.00    -0.331 OA
ATOM      3  C   UNL     1       7.799  -1.713  26.110  0.00  0.00    +0.340 C 
ATOM      4  C   UNL     1       8.329  -3.201  25.913  0.00  0.00    +0.221 C 
ATOM      5  C   UNL     1       9.438  -3.138  24.849  0.00  0.00    +0.180 C 
ATOM      6  C   UNL     1       8.832  -2.618  23.548  0.00  0.00    +0.177 C 
ENDROOT
BRANCH   5   7
ATOM      7  O   UNL     1      10.058  -4.413  24.654  0.00  0.00    -0.386 OA
ATOM      8  H   UNL     1       9.361  -5.006  24.304  0.00  0.00    +0.210 HD
ENDBRANCH   5   7
BRANCH   6   9
ATOM      9  O   UNL     1       9.759  -2.774  22.475  0.00  0.00    -0.386 OA
ATOM     10  H   UNL     1      10.654  -2.804  22.860  0.00  0.00    +0.210 HD
ENDBRANCH   6   9
BRANCH   4  11
ATOM     11  O   UNL     1       7.273  -4.166  25.576  0.00  0.00    -0.337 OA
BRANCH  11  12
ATOM     12  C   UNL     1       7.315  -5.435  26.278  0.00  0.00    +0.282 C 
ATOM     13  O   UNL     1       6.419  -6.401  25.686  0.00  0.00    -0.341 OA
ATOM     14  C   UNL     1       5.027  -6.103  25.836  0.00  0.00    +0.178 C 
ATOM     15  C   UNL     1       4.626  -5.937  27.314  0.00  0.00    +0.177 C 
ATOM     16  C   UNL     1       5.569  -4.953  28.013  0.00  0.00    +0.179 C 
ATOM     17  C   UNL     1       7.035  -5.352  27.797  0.00  0.00    +0.201 C 
BRANCH  17  18
ATOM     18  O   UNL     1       7.288  -6.601  28.476  0.00  0.00    -0.384 OA
ATOM     19  H   UNL     1       8.253  -6.637  28.650  0.00  0.00    +0.210 HD
ENDBRANCH  17  18
BRANCH  16  20
ATOM     20  O   UNL     1       5.259  -4.942  29.419  0.00  0.00    -0.386 OA
ATOM     21  H   UNL     1       5.981  -5.431  29.864  0.00  0.00    +0.210 HD
ENDBRANCH  16  20
BRANCH  15  22
ATOM     22  O   UNL     1       4.688  -7.202  28.002  0.00  0.00    -0.386 OA
ATOM     23  H   UNL     1       3.969  -7.739  27.610  0.00  0.00    +0.210 HD
ENDBRANCH  15  22
BRANCH  14  24
ATOM     24  C   UNL     1       4.231  -7.233  25.162  0.00  0.00    +0.190 C 
BRANCH  24  25
ATOM     25  O   UNL     1       4.037  -6.964  23.774  0.00  0.00    -0.392 OA
ATOM     26  H   UNL     1       3.160  -7.324  23.538  0.00  0.00    +0.210 HD
ENDBRANCH  24  25
ENDBRANCH  14  24
ENDBRANCH  11  12
ENDBRANCH   4  11
BRANCH   3  27
ATOM     27  O   UNL     1       6.675  -1.780  27.012  0.00  0.00    -0.453 OA
BRANCH  27  28
ATOM     28  C   UNL     1       5.881  -0.688  27.364  0.00  0.00    +0.214 A 
ATOM     29  C   UNL     1       6.414   0.616  27.889  0.00  0.00    +0.238 A 
ATOM     30  O   UNL     1       7.563   0.713  28.287  0.00  0.00    -0.283 OA
ATOM     31  C   UNL     1       5.475   1.772  27.901  0.00  0.00    +0.109 A 
ATOM     32  C   UNL     1       4.113   1.509  27.749  0.00  0.00    +0.147 A 
ATOM     33  C   UNL     1       3.161   2.543  27.774  0.00  0.00    +0.092 A 
ATOM     34  C   UNL     1       3.585   3.855  27.941  0.00  0.00    +0.124 A 
ATOM     35  C   UNL     1       4.937   4.145  28.083  0.00  0.00    +0.091 A 
ATOM     36  O   UNL     1       3.627   0.245  27.531  0.00  0.00    -0.451 OA
ATOM     37  C   UNL     1       5.880   3.107  28.069  0.00  0.00    +0.135 A 
ATOM     38  C   UNL     1       4.534  -0.751  27.201  0.00  0.00    +0.181 A 
BRANCH  38  39
ATOM     39  C   UNL     1       3.936  -1.825  26.412  0.00  0.00    +0.025 A 
ATOM     40  C   UNL     1       2.678  -2.268  26.854  0.00  0.00    +0.015 A 
ATOM     41  C   UNL     1       2.021  -3.308  26.213  0.00  0.00    +0.050 A 
ATOM     42  C   UNL     1       2.579  -3.841  25.063  0.00  0.00    +0.158 A 
ATOM     43  C   UNL     1       3.810  -3.388  24.585  0.00  0.00    +0.159 A 
ATOM     44  C   UNL     1       4.529  -2.416  25.288  0.00  0.00    +0.060 A 
BRANCH  42  45
ATOM     45  O   UNL     1       1.892  -4.811  24.394  0.00  0.00    -0.503 OA
ATOM     46  H   UNL     1       2.556  -5.436  24.036  0.00  0.00    +0.292 HD
ENDBRANCH  42  45
BRANCH  43  47
ATOM     47  O   UNL     1       4.248  -3.867  23.381  0.00  0.00    -0.503 OA
ATOM     48  H   UNL     1       3.783  -4.689  23.169  0.00  0.00    +0.292 HD
ENDBRANCH  43  47
ENDBRANCH  38  39
BRANCH  37  49
ATOM     49  O   UNL     1       7.202   3.438  28.182  0.00  0.00    -0.506 OA
ATOM     50  H   UNL     1       7.449   3.496  29.110  0.00  0.00    +0.292 HD
ENDBRANCH  37  49
BRANCH  34  51
ATOM     51  O   UNL     1       2.710   4.901  27.961  0.00  0.00    -0.507 OA
ATOM     52  H   UNL     1       2.095   4.801  28.707  0.00  0.00    +0.292 HD
ENDBRANCH  34  51
ENDBRANCH  27  28
ENDBRANCH   3  27
BRANCH   1  53
ATOM     53  C   UNL     1       9.357   0.002  23.464  0.00  0.00    +0.197 C 
BRANCH  53  54
ATOM     54  O   UNL     1       9.170   0.886  22.334  0.00  0.00    -0.346 OA
BRANCH  54  58
ATOM     55  C   UNL     1       8.700   4.588  24.842  0.00  0.00    +0.041 C 
ATOM     56  C   UNL     1       7.791   3.361  24.770  0.00  0.00    +0.149 C 
ATOM     57  O   UNL     1       8.474   2.227  24.189  0.00  0.00    -0.343 OA
ATOM     58  C   UNL     1       8.612   2.188  22.758  0.00  0.00    +0.282 C 
ATOM     59  C   UNL     1       7.222   2.405  22.091  0.00  0.00    +0.201 C 
ATOM     60  C   UNL     1       6.612   3.740  22.575  0.00  0.00    +0.179 C 
ATOM     61  C   UNL     1       6.453   3.723  24.100  0.00  0.00    +0.174 C 
BRANCH  59  62
ATOM     62  O   UNL     1       6.340   1.320  22.463  0.00  0.00    -0.384 OA
ATOM     63  H   UNL     1       5.529   1.464  21.933  0.00  0.00    +0.210 HD
ENDBRANCH  59  62
BRANCH  60  64
ATOM     64  O   UNL     1       5.356   4.018  21.941  0.00  0.00    -0.386 OA
ATOM     65  H   UNL     1       5.091   3.218  21.446  0.00  0.00    +0.210 HD
ENDBRANCH  60  64
BRANCH  61  66
ATOM     66  O   UNL     1       5.423   2.802  24.482  0.00  0.00    -0.387 OA
ATOM     67  H   UNL     1       4.590   3.121  24.068  0.00  0.00    +0.210 HD
ENDBRANCH  61  66
ENDBRANCH  54  58
ENDBRANCH  53  54
ENDBRANCH   1  53
TORSDOF 22
ENDMDL
MODEL 8
REMARK VINA RESULT:      -6.2      2.120      9.563
REMARK  Name = 
REMARK  23 active torsions:
REMARK  status: ('A' for Active; 'I' for Inactive)
REMARK    1  A    between atoms: C_1  and  C_2
REMARK    2  A    between atoms: C_3  and  O_62
REMARK    3  A    between atoms: C_5  and  O_61
REMARK    4  A    between atoms: C_7  and  O_60
REMARK    5  A    between atoms: C_8  and  O_11
REMARK    6  A    between atoms: O_11  and  C_12
REMARK    7  A    between atoms: C_12  and  C_13
REMARK    8  A    between atoms: C_14  and  O_59
REMARK    9  A    between atoms: C_16  and  O_58
REMARK   10  A    between atoms: C_17  and  O_43
REMARK   11  A    between atoms: C_18  and  O_21
REMARK   12  A    between atoms: O_21  and  C_22
REMARK   13  A    between atoms: C_23  and  C_35
REMARK   14  A    between atoms: C_27  and  O_34
REMARK   15  A    between atoms: C_29  and  O_33
REMARK   16  A    between atoms: C_37  and  O_42
REMARK   17  A    between atoms: C_38  and  O_41
REMARK   18  A    between atoms: O_43  and  C_44
REMARK   19  A    between atoms: C_46  and  O_57
REMARK   20  A    between atoms: C_48  and  O_56
REMARK   21  A    between atoms: C_49  and  O_55
REMARK   22  A    between atoms: C_51  and  C_53
REMARK   23  A    between atoms: C_53  and  O_54
REMARK                            x       y       z     vdW  Elec       q    Type
REMARK                         _______ _______ _______ _____ _____    ______ ____
ROOT
ATOM      1  C   UNL     1       8.219  -0.405  22.782  0.00  0.00    +0.179 C 
ATOM      2  O   UNL     1       7.244  -0.307  23.842  0.00  0.00    -0.331 OA
ATOM      3  C   UNL     1       7.540  -0.885  25.123  0.00  0.00    +0.340 C 
ATOM      4  C   UNL     1       8.223  -2.321  25.044  0.00  0.00    +0.221 C 
ATOM      5  C   UNL     1       9.403  -2.196  24.066  0.00  0.00    +0.180 C 
ATOM      6  C   UNL     1       8.859  -1.796  22.697  0.00  0.00    +0.177 C 
ENDROOT
BRANCH   5   7
ATOM      7  O   UNL     1      10.155  -3.410  23.986  0.00  0.00    -0.386 OA
ATOM      8  H   UNL     1      10.979  -3.257  24.494  0.00  0.00    +0.210 HD
ENDBRANCH   5   7
BRANCH   6   9
ATOM      9  O   UNL     1       9.880  -1.907  21.708  0.00  0.00    -0.386 OA
ATOM     10  H   UNL     1      10.231  -1.012  21.543  0.00  0.00    +0.210 HD
ENDBRANCH   6   9
BRANCH   4  11
ATOM     11  O   UNL     1       7.294  -3.398  24.678  0.00  0.00    -0.337 OA
BRANCH  11  12
ATOM     12  C   UNL     1       7.599  -4.715  25.204  0.00  0.00    +0.282 C 
ATOM     13  O   UNL     1       6.715  -5.723  24.665  0.00  0.00    -0.341 OA
ATOM     14  C   UNL     1       5.352  -5.618  25.089  0.00  0.00    +0.178 C 
ATOM     15  C   UNL     1       5.218  -5.650  26.623  0.00  0.00    +0.177 C 
ATOM     16  C   UNL     1       6.166  -4.631  27.260  0.00  0.00    +0.179 C 
ATOM     17  C   UNL     1       7.600  -4.820  26.748  0.00  0.00    +0.201 C 
BRANCH  17  18
ATOM     18  O   UNL     1       8.105  -6.089  27.217  0.00  0.00    -0.384 OA
ATOM     19  H   UNL     1       8.341  -5.965  28.162  0.00  0.00    +0.210 HD
ENDBRANCH  17  18
BRANCH  16  20
ATOM     20  O   UNL     1       6.125  -4.798  28.690  0.00  0.00    -0.386 OA
ATOM     21  H   UNL     1       5.646  -5.635  28.856  0.00  0.00    +0.210 HD
ENDBRANCH  16  20
BRANCH  15  22
ATOM     22  O   UNL     1       5.540  -6.960  27.132  0.00  0.00    -0.386 OA
ATOM     23  H   UNL     1       5.040  -7.582  26.564  0.00  0.00    +0.210 HD
ENDBRANCH  15  22
BRANCH  14  24
ATOM     24  C   UNL     1       4.567  -6.765  24.432  0.00  0.00    +0.190 C 
BRANCH  24  25
ATOM     25  O   UNL     1       3.403  -7.089  25.190  0.00  0.00    -0.392 OA
ATOM     26  H   UNL     1       3.083  -6.254  25.584  0.00  0.00    +0.210 HD
ENDBRANCH  24  25
ENDBRANCH  14  24
ENDBRANCH  11  12
ENDBRANCH   4  11
BRANCH   3  27
ATOM     27  O   UNL     1       6.358  -1.022  25.938  0.00  0.00    -0.453 OA
BRANCH  27  28
ATOM     28  C   UNL     1       5.968  -0.110  26.920  0.00  0.00    +0.214 A 
ATOM     29  C   UNL     1       6.587   1.246  27.114  0.00  0.00    +0.238 A 
ATOM     30  O   UNL     1       7.649   1.535  26.589  0.00  0.00    -0.283 OA
ATOM     31  C   UNL     1       5.845   2.208  27.976  0.00  0.00    +0.109 A 
ATOM     32  C   UNL     1       4.832   1.706  28.793  0.00  0.00    +0.147 A 
ATOM     33  C   UNL     1       4.102   2.545  29.654  0.00  0.00    +0.092 A 
ATOM     34  C   UNL     1       4.387   3.904  29.681  0.00  0.00    +0.124 A 
ATOM     35  C   UNL     1       5.382   4.432  28.867  0.00  0.00    +0.091 A 
ATOM     36  O   UNL     1       4.464   0.385  28.783  0.00  0.00    -0.451 OA
ATOM     37  C   UNL     1       6.114   3.586  28.020  0.00  0.00    +0.135 A 
ATOM     38  C   UNL     1       4.938  -0.413  27.752  0.00  0.00    +0.181 A 
BRANCH  38  39
ATOM     39  C   UNL     1       4.062  -1.544  27.460  0.00  0.00    +0.025 A 
ATOM     40  C   UNL     1       3.560  -2.223  28.584  0.00  0.00    +0.015 A 
ATOM     41  C   UNL     1       2.746  -3.338  28.441  0.00  0.00    +0.050 A 
ATOM     42  C   UNL     1       2.350  -3.715  27.168  0.00  0.00    +0.158 A 
ATOM     43  C   UNL     1       2.806  -3.030  26.040  0.00  0.00    +0.159 A 
ATOM     44  C   UNL     1       3.713  -1.974  26.172  0.00  0.00    +0.060 A 
BRANCH  42  45
ATOM     45  O   UNL     1       1.489  -4.764  27.038  0.00  0.00    -0.503 OA
ATOM     46  H   UNL     1       1.680  -5.186  26.174  0.00  0.00    +0.292 HD
ENDBRANCH  42  45
BRANCH  43  47
ATOM     47  O   UNL     1       2.284  -3.373  24.824  0.00  0.00    -0.503 OA
ATOM     48  H   UNL     1       2.714  -2.856  24.128  0.00  0.00    +0.292 HD
ENDBRANCH  43  47
ENDBRANCH  38  39
BRANCH  37  49
ATOM     49  O   UNL     1       7.065   4.149  27.215  0.00  0.00    -0.506 OA
ATOM     50  H   UNL     1       6.651   4.550  26.445  0.00  0.00    +0.292 HD
ENDBRANCH  37  49
BRANCH  34  51
ATOM     51  O   UNL     1       3.704   4.770  30.484  0.00  0.00    -0.507 OA
ATOM     52  H   UNL     1       3.449   4.321  31.308  0.00  0.00    +0.292 HD
ENDBRANCH  34  51
ENDBRANCH  27  28
ENDBRANCH   3  27
BRANCH   1  53
ATOM     53  C   UNL     1       9.138   0.857  22.518  0.00  0.00    +0.197 C 
BRANCH  53  54
ATOM     54  O   UNL     1       9.441   1.788  23.582  0.00  0.00    -0.346 OA
BRANCH  54  58
ATOM     55  C   UNL     1       9.602   6.279  23.412  0.00  0.00    +0.041 C 
ATOM     56  C   UNL     1       8.687   5.386  24.250  0.00  0.00    +0.149 C 
ATOM     57  O   UNL     1       9.205   4.041  24.353  0.00  0.00    -0.343 OA
ATOM     58  C   UNL     1       9.011   3.160  23.234  0.00  0.00    +0.282 C 
ATOM     59  C   UNL     1       7.507   3.149  22.829  0.00  0.00    +0.201 C 
ATOM     60  C   UNL     1       7.041   4.589  22.517  0.00  0.00    +0.179 C 
ATOM     61  C   UNL     1       7.236   5.483  23.747  0.00  0.00    +0.174 C 
BRANCH  59  62
ATOM     62  O   UNL     1       6.722   2.624  23.925  0.00  0.00    -0.384 OA
ATOM     63  H   UNL     1       7.037   3.112  24.714  0.00  0.00    +0.210 HD
ENDBRANCH  59  62
BRANCH  60  64
ATOM     64  O   UNL     1       5.675   4.628  22.078  0.00  0.00    -0.386 OA
ATOM     65  H   UNL     1       5.678   4.596  21.102  0.00  0.00    +0.210 HD
ENDBRANCH  60  64
BRANCH  61  66
ATOM     66  O   UNL     1       6.310   5.117  24.780  0.00  0.00    -0.387 OA
ATOM     67  H   UNL     1       6.846   4.764  25.527  0.00  0.00    +0.210 HD
ENDBRANCH  61  66
ENDBRANCH  54  58
ENDBRANCH  53  54
ENDBRANCH   1  53
TORSDOF 22
ENDMDL
MODEL 9
REMARK VINA RESULT:      -6.1      2.627      9.745
REMARK  Name = 
REMARK  23 active torsions:
REMARK  status: ('A' for Active; 'I' for Inactive)
REMARK    1  A    between atoms: C_1  and  C_2
REMARK    2  A    between atoms: C_3  and  O_62
REMARK    3  A    between atoms: C_5  and  O_61
REMARK    4  A    between atoms: C_7  and  O_60
REMARK    5  A    between atoms: C_8  and  O_11
REMARK    6  A    between atoms: O_11  and  C_12
REMARK    7  A    between atoms: C_12  and  C_13
REMARK    8  A    between atoms: C_14  and  O_59
REMARK    9  A    between atoms: C_16  and  O_58
REMARK   10  A    between atoms: C_17  and  O_43
REMARK   11  A    between atoms: C_18  and  O_21
REMARK   12  A    between atoms: O_21  and  C_22
REMARK   13  A    between atoms: C_23  and  C_35
REMARK   14  A    between atoms: C_27  and  O_34
REMARK   15  A    between atoms: C_29  and  O_33
REMARK   16  A    between atoms: C_37  and  O_42
REMARK   17  A    between atoms: C_38  and  O_41
REMARK   18  A    between atoms: O_43  and  C_44
REMARK   19  A    between atoms: C_46  and  O_57
REMARK   20  A    between atoms: C_48  and  O_56
REMARK   21  A    between atoms: C_49  and  O_55
REMARK   22  A    between atoms: C_51  and  C_53
REMARK   23  A    between atoms: C_53  and  O_54
REMARK                            x       y       z     vdW  Elec       q    Type
REMARK                         _______ _______ _______ _____ _____    ______ ____
ROOT
ATOM      1  C   UNL     1       8.054  -2.985  24.497  0.00  0.00    +0.179 C 
ATOM      2  O   UNL     1       7.087  -2.330  25.345  0.00  0.00    -0.331 OA
ATOM      3  C   UNL     1       7.023  -2.679  26.736  0.00  0.00    +0.340 C 
ATOM      4  C   UNL     1       7.130  -4.243  27.017  0.00  0.00    +0.221 C 
ATOM      5  C   UNL     1       8.361  -4.748  26.247  0.00  0.00    +0.180 C 
ATOM      6  C   UNL     1       8.139  -4.494  24.757  0.00  0.00    +0.177 C 
ENDROOT
BRANCH   5   7
ATOM      7  O   UNL     1       8.613  -6.133  26.501  0.00  0.00    -0.386 OA
ATOM      8  H   UNL     1       9.112  -6.171  27.344  0.00  0.00    +0.210 HD
ENDBRANCH   5   7
BRANCH   6   9
ATOM      9  O   UNL     1       9.136  -5.162  23.989  0.00  0.00    -0.386 OA
ATOM     10  H   UNL     1       9.341  -4.602  23.218  0.00  0.00    +0.210 HD
ENDBRANCH   6   9
BRANCH   4  11
ATOM     11  O   UNL     1       5.908  -4.988  26.687  0.00  0.00    -0.337 OA
BRANCH  11  12
ATOM     12  C   UNL     1       5.681  -6.212  27.431  0.00  0.00    +0.282 C 
ATOM     13  O   UNL     1       4.929  -7.175  26.659  0.00  0.00    -0.341 OA
ATOM     14  C   UNL     1       3.569  -6.810  26.401  0.00  0.00    +0.178 C 
ATOM     15  C   UNL     1       2.786  -6.537  27.699  0.00  0.00    +0.177 C 
ATOM     16  C   UNL     1       3.555  -5.553  28.586  0.00  0.00    +0.179 C 
ATOM     17  C   UNL     1       4.998  -6.026  28.807  0.00  0.00    +0.201 C 
BRANCH  17  18
ATOM     18  O   UNL     1       4.981  -7.240  29.587  0.00  0.00    -0.384 OA
ATOM     19  H   UNL     1       4.811  -7.976  28.960  0.00  0.00    +0.210 HD
ENDBRANCH  17  18
BRANCH  16  20
ATOM     20  O   UNL     1       2.870  -5.442  29.848  0.00  0.00    -0.386 OA
ATOM     21  H   UNL     1       3.134  -4.580  30.229  0.00  0.00    +0.210 HD
ENDBRANCH  16  20
BRANCH  15  22
ATOM     22  O   UNL     1       2.584  -7.759  28.436  0.00  0.00    -0.386 OA
ATOM     23  H   UNL     1       2.830  -7.541  29.359  0.00  0.00    +0.210 HD
ENDBRANCH  15  22
BRANCH  14  24
ATOM     24  C   UNL     1       2.927  -7.944  25.585  0.00  0.00    +0.190 C 
BRANCH  24  25
ATOM     25  O   UNL     1       2.529  -7.484  24.295  0.00  0.00    -0.392 OA
ATOM     26  H   UNL     1       3.155  -7.872  23.653  0.00  0.00    +0.210 HD
ENDBRANCH  24  25
ENDBRANCH  14  24
ENDBRANCH  11  12
ENDBRANCH   4  11
BRANCH   3  27
ATOM     27  O   UNL     1       5.802  -2.222  27.351  0.00  0.00    -0.453 OA
BRANCH  27  28
ATOM     28  C   UNL     1       5.264  -0.945  27.180  0.00  0.00    +0.214 A 
ATOM     29  C   UNL     1       6.037   0.333  27.353  0.00  0.00    +0.238 A 
ATOM     30  O   UNL     1       7.122   0.343  27.909  0.00  0.00    -0.283 OA
ATOM     31  C   UNL     1       5.413   1.576  26.818  0.00  0.00    +0.109 A 
ATOM     32  C   UNL     1       4.054   1.541  26.503  0.00  0.00    +0.147 A 
ATOM     33  C   UNL     1       3.386   2.679  26.017  0.00  0.00    +0.092 A 
ATOM     34  C   UNL     1       4.096   3.858  25.835  0.00  0.00    +0.124 A 
ATOM     35  C   UNL     1       5.453   3.916  26.129  0.00  0.00    +0.091 A 
ATOM     36  O   UNL     1       3.302   0.399  26.612  0.00  0.00    -0.451 OA
ATOM     37  C   UNL     1       6.110   2.780  26.625  0.00  0.00    +0.135 A 
ATOM     38  C   UNL     1       3.969  -0.803  26.794  0.00  0.00    +0.181 A 
BRANCH  38  39
ATOM     39  C   UNL     1       3.220  -1.951  26.291  0.00  0.00    +0.025 A 
ATOM     40  C   UNL     1       1.971  -2.168  26.897  0.00  0.00    +0.015 A 
ATOM     41  C   UNL     1       1.178  -3.247  26.535  0.00  0.00    +0.050 A 
ATOM     42  C   UNL     1       1.591  -4.056  25.489  0.00  0.00    +0.158 A 
ATOM     43  C   UNL     1       2.811  -3.835  24.848  0.00  0.00    +0.159 A 
ATOM     44  C   UNL     1       3.665  -2.815  25.281  0.00  0.00    +0.060 A 
BRANCH  42  45
ATOM     45  O   UNL     1       0.772  -5.069  25.086  0.00  0.00    -0.503 OA
ATOM     46  H   UNL     1       0.306  -4.757  24.282  0.00  0.00    +0.292 HD
ENDBRANCH  42  45
BRANCH  43  47
ATOM     47  O   UNL     1       3.105  -4.590  23.746  0.00  0.00    -0.503 OA
ATOM     48  H   UNL     1       2.762  -5.488  23.867  0.00  0.00    +0.292 HD
ENDBRANCH  43  47
ENDBRANCH  38  39
BRANCH  37  49
ATOM     49  O   UNL     1       7.451   2.871  26.875  0.00  0.00    -0.506 OA
ATOM     50  H   UNL     1       7.630   3.624  27.446  0.00  0.00    +0.292 HD
ENDBRANCH  37  49
BRANCH  34  51
ATOM     51  O   UNL     1       3.506   4.990  25.354  0.00  0.00    -0.507 OA
ATOM     52  H   UNL     1       3.144   4.820  24.468  0.00  0.00    +0.292 HD
ENDBRANCH  34  51
ENDBRANCH  27  28
ENDBRANCH   3  27
BRANCH   1  53
ATOM     53  C   UNL     1       9.396  -2.206  24.183  0.00  0.00    +0.197 C 
BRANCH  53  54
ATOM     54  O   UNL     1       9.749  -1.012  24.919  0.00  0.00    -0.346 OA
BRANCH  54  58
ATOM     55  C   UNL     1       6.642   1.302  22.634  0.00  0.00    +0.041 C 
ATOM     56  C   UNL     1       8.110   1.063  22.279  0.00  0.00    +0.149 C 
ATOM     57  O   UNL     1       8.661  -0.051  23.017  0.00  0.00    -0.343 OA
ATOM     58  C   UNL     1       9.047   0.175  24.383  0.00  0.00    +0.282 C 
ATOM     59  C   UNL     1       9.982   1.418  24.467  0.00  0.00    +0.201 C 
ATOM     60  C   UNL     1       9.271   2.647  23.857  0.00  0.00    +0.179 C 
ATOM     61  C   UNL     1       8.909   2.374  22.393  0.00  0.00    +0.174 C 
BRANCH  59  62
ATOM     62  O   UNL     1      11.194   1.153  23.721  0.00  0.00    -0.384 OA
ATOM     63  H   UNL     1      10.890   0.962  22.810  0.00  0.00    +0.210 HD
ENDBRANCH  59  62
BRANCH  60  64
ATOM     64  O   UNL     1      10.068   3.836  23.965  0.00  0.00    -0.386 OA
ATOM     65  H   UNL     1      10.836   3.627  24.531  0.00  0.00    +0.210 HD
ENDBRANCH  60  64
BRANCH  61  66
ATOM     66  O   UNL     1      10.095   2.321  21.589  0.00  0.00    -0.387 OA
ATOM     67  H   UNL     1      10.791   1.895  22.139  0.00  0.00    +0.210 HD
ENDBRANCH  61  66
ENDBRANCH  54  58
ENDBRANCH  53  54
ENDBRANCH   1  53
TORSDOF 22
ENDMDL
