MODEL 1
REMARK VINA RESULT:      -7.0      0.000      0.000
REMARK  Name = 
REMARK  15 active torsions:
REMARK  status: ('A' for Active; 'I' for Inactive)
REMARK    1  A    between atoms: C_3  and  O_43
REMARK    2  A    between atoms: C_4  and  O_42
REMARK    3  A    between atoms: C_6  and  C_7
REMARK    4  A    between atoms: C_8  and  O_20
REMARK    5  A    between atoms: C_12  and  O_19
REMARK    6  A    between atoms: C_14  and  O_18
REMARK    7  A    between atoms: O_20  and  C_21
REMARK    8  A    between atoms: C_23  and  O_41
REMARK    9  A    between atoms: C_25  and  O_40
REMARK   10  A    between atoms: C_27  and  O_39
REMARK   11  A    between atoms: C_29  and  C_32
REMARK   12  A    between atoms: C_32  and  O_33
REMARK   13  A    between atoms: O_33  and  C_34
REMARK   14  A    between atoms: C_34  and  C_36
REMARK   15  A    between atoms: C_36  and  O_38
REMARK                            x       y       z     vdW  Elec       q    Type
REMARK                         _______ _______ _______ _____ _____    ______ ____
ROOT
ATOM      1  C   UNL     1       6.700  -1.071  26.924  0.00  0.00    +0.181 A 
ATOM      2  O   UNL     1       5.575  -1.791  27.347  0.00  0.00    -0.451 OA
ATOM      3  C   UNL     1       5.660  -3.148  27.494  0.00  0.00    +0.147 A 
ATOM      4  C   UNL     1       6.705  -3.879  26.964  0.00  0.00    +0.109 A 
ATOM      5  C   UNL     1       6.781  -5.270  27.103  0.00  0.00    +0.135 A 
ATOM      6  C   UNL     1       5.780  -5.946  27.781  0.00  0.00    +0.091 A 
ATOM      7  C   UNL     1       4.722  -5.216  28.316  0.00  0.00    +0.124 A 
ATOM      8  C   UNL     1       7.746  -3.155  26.279  0.00  0.00    +0.238 A 
ATOM      9  O   UNL     1       8.569  -3.845  25.682  0.00  0.00    -0.283 OA
ATOM     10  C   UNL     1       4.658  -3.822  28.188  0.00  0.00    +0.092 A 
ATOM     11  C   UNL     1       7.802  -1.664  26.393  0.00  0.00    +0.214 A 
ENDROOT
BRANCH   1  13
ATOM     12  C   UNL     1       6.086   1.285  26.297  0.00  0.00    +0.015 A 
ATOM     13  C   UNL     1       6.525   0.374  27.274  0.00  0.00    +0.025 A 
ATOM     14  C   UNL     1       7.065   0.902  28.469  0.00  0.00    +0.060 A 
ATOM     15  C   UNL     1       7.254   2.279  28.611  0.00  0.00    +0.159 A 
ATOM     16  C   UNL     1       6.915   3.151  27.584  0.00  0.00    +0.158 A 
ATOM     17  C   UNL     1       6.293   2.664  26.446  0.00  0.00    +0.050 A 
BRANCH  15  18
ATOM     18  O   UNL     1       7.846   2.775  29.738  0.00  0.00    -0.503 OA
ATOM     19  H   UNL     1       7.236   2.529  30.468  0.00  0.00    +0.292 HD
ENDBRANCH  15  18
BRANCH  16  20
ATOM     20  O   UNL     1       7.260   4.468  27.720  0.00  0.00    -0.503 OA
ATOM     21  H   UNL     1       6.507   4.937  28.121  0.00  0.00    +0.292 HD
ENDBRANCH  16  20
ENDBRANCH   1  13
BRANCH   5  22
ATOM     22  O   UNL     1       7.807  -6.029  26.607  0.00  0.00    -0.506 OA
ATOM     23  H   UNL     1       7.419  -6.713  26.010  0.00  0.00    +0.292 HD
ENDBRANCH   5  22
BRANCH   7  24
ATOM     24  O   UNL     1       3.723  -5.840  28.977  0.00  0.00    -0.507 OA
ATOM     25  H   UNL     1       4.049  -6.087  29.866  0.00  0.00    +0.292 HD
ENDBRANCH   7  24
BRANCH  11  26
ATOM     26  O   UNL     1       8.944  -0.963  25.999  0.00  0.00    -0.453 OA
BRANCH  26  27
ATOM     27  C   UNL     1       8.833  -0.134  24.806  0.00  0.00    +0.340 C 
ATOM     28  O   UNL     1       7.737  -0.638  24.044  0.00  0.00    -0.330 OA
ATOM     29  C   UNL     1       7.848  -0.934  22.646  0.00  0.00    +0.191 C 
ATOM     30  C   UNL     1       9.248  -1.278  22.076  0.00  0.00    +0.178 C 
ATOM     31  C   UNL     1      10.284  -1.386  23.185  0.00  0.00    +0.180 C 
ATOM     32  C   UNL     1      10.178  -0.127  24.038  0.00  0.00    +0.214 C 
BRANCH  30  33
ATOM     33  O   UNL     1       9.615  -0.261  21.118  0.00  0.00    -0.386 OA
ATOM     34  H   UNL     1      10.587  -0.126  21.172  0.00  0.00    +0.210 HD
ENDBRANCH  30  33
BRANCH  31  35
ATOM     35  O   UNL     1      10.118  -2.586  23.940  0.00  0.00    -0.386 OA
ATOM     36  H   UNL     1      10.963  -2.825  24.367  0.00  0.00    +0.210 HD
ENDBRANCH  31  35
BRANCH  32  37
ATOM     37  O   UNL     1      10.322   1.035  23.191  0.00  0.00    -0.383 OA
ATOM     38  H   UNL     1      11.249   1.083  22.884  0.00  0.00    +0.210 HD
ENDBRANCH  32  37
BRANCH  29  39
ATOM     39  C   UNL     1       6.892  -2.126  22.487  0.00  0.00    +0.267 C 
BRANCH  39  40
ATOM     40  O   UNL     1       7.556  -3.355  22.201  0.00  0.00    -0.454 OA
BRANCH  40  41
ATOM     41  C   UNL     1       6.763  -4.426  22.073  0.00  0.00    +0.417 C 
ATOM     42  O   UNL     1       5.970  -4.680  21.178  0.00  0.00    -0.238 OA
BRANCH  41  43
ATOM     43  C   UNL     1       6.933  -5.397  23.257  0.00  0.00    +0.415 C 
ATOM     44  O   UNL     1       6.014  -5.897  23.872  0.00  0.00    -0.238 OA
BRANCH  43  45
ATOM     45  O   UNL     1       8.243  -5.615  23.494  0.00  0.00    -0.473 OA
ATOM     46  H   UNL     1       8.729  -5.708  22.642  0.00  0.00    +0.296 HD
ENDBRANCH  43  45
ENDBRANCH  41  43
ENDBRANCH  40  41
ENDBRANCH  39  40
ENDBRANCH  29  39
ENDBRANCH  26  27
ENDBRANCH  11  26
TORSDOF 15
ENDMDL
MODEL 2
REMARK VINA RESULT:      -7.0      2.471      6.391
REMARK  Name = 
REMARK  15 active torsions:
REMARK  status: ('A' for Active; 'I' for Inactive)
REMARK    1  A    between atoms: C_3  and  O_43
REMARK    2  A    between atoms: C_4  and  O_42
REMARK    3  A    between atoms: C_6  and  C_7
REMARK    4  A    between atoms: C_8  and  O_20
REMARK    5  A    between atoms: C_12  and  O_19
REMARK    6  A    between atoms: C_14  and  O_18
REMARK    7  A    between atoms: O_20  and  C_21
REMARK    8  A    between atoms: C_23  and  O_41
REMARK    9  A    between atoms: C_25  and  O_40
REMARK   10  A    between atoms: C_27  and  O_39
REMARK   11  A    between atoms: C_29  and  C_32
REMARK   12  A    between atoms: C_32  and  O_33
REMARK   13  A    between atoms: O_33  and  C_34
REMARK   14  A    between atoms: C_34  and  C_36
REMARK   15  A    between atoms: C_36  and  O_38
REMARK                            x       y       z     vdW  Elec       q    Type
REMARK                         _______ _______ _______ _____ _____    ______ ____
ROOT
ATOM      1  C   UNL     1       8.363  -1.703  24.354  0.00  0.00    +0.181 A 
ATOM      2  O   UNL     1       8.450  -2.864  23.574  0.00  0.00    -0.451 OA
ATOM      3  C   UNL     1       7.477  -3.819  23.676  0.00  0.00    +0.147 A 
ATOM      4  C   UNL     1       6.572  -3.835  24.720  0.00  0.00    +0.109 A 
ATOM      5  C   UNL     1       5.585  -4.823  24.830  0.00  0.00    +0.135 A 
ATOM      6  C   UNL     1       5.510  -5.824  23.876  0.00  0.00    +0.091 A 
ATOM      7  C   UNL     1       6.419  -5.815  22.822  0.00  0.00    +0.124 A 
ATOM      8  C   UNL     1       6.656  -2.773  25.692  0.00  0.00    +0.238 A 
ATOM      9  O   UNL     1       5.949  -2.909  26.688  0.00  0.00    -0.283 OA
ATOM     10  C   UNL     1       7.395  -4.816  22.708  0.00  0.00    +0.092 A 
ATOM     11  C   UNL     1       7.509  -1.579  25.404  0.00  0.00    +0.214 A 
ENDROOT
BRANCH   1  13
ATOM     12  C   UNL     1      10.284  -0.089  24.518  0.00  0.00    +0.015 A 
ATOM     13  C   UNL     1       9.236  -0.641  23.761  0.00  0.00    +0.025 A 
ATOM     14  C   UNL     1       8.858   0.030  22.575  0.00  0.00    +0.060 A 
ATOM     15  C   UNL     1       9.438   1.257  22.242  0.00  0.00    +0.159 A 
ATOM     16  C   UNL     1      10.393   1.837  23.067  0.00  0.00    +0.158 A 
ATOM     17  C   UNL     1      10.849   1.149  24.180  0.00  0.00    +0.050 A 
BRANCH  15  18
ATOM     18  O   UNL     1       9.013   1.936  21.135  0.00  0.00    -0.503 OA
ATOM     19  H   UNL     1       8.833   1.236  20.469  0.00  0.00    +0.292 HD
ENDBRANCH  15  18
BRANCH  16  20
ATOM     20  O   UNL     1      10.814   3.104  22.770  0.00  0.00    -0.503 OA
ATOM     21  H   UNL     1      11.005   3.562  23.608  0.00  0.00    +0.292 HD
ENDBRANCH  16  20
ENDBRANCH   1  13
BRANCH   5  22
ATOM     22  O   UNL     1       4.661  -4.865  25.839  0.00  0.00    -0.506 OA
ATOM     23  H   UNL     1       3.831  -4.446  25.510  0.00  0.00    +0.292 HD
ENDBRANCH   5  22
BRANCH   7  24
ATOM     24  O   UNL     1       6.382  -6.779  21.877  0.00  0.00    -0.507 OA
ATOM     25  H   UNL     1       6.186  -6.358  21.015  0.00  0.00    +0.292 HD
ENDBRANCH   7  24
BRANCH  11  26
ATOM     26  O   UNL     1       7.388  -0.417  26.169  0.00  0.00    -0.453 OA
BRANCH  26  27
ATOM     27  C   UNL     1       6.373   0.544  25.758  0.00  0.00    +0.340 C 
ATOM     28  O   UNL     1       7.058   1.673  25.218  0.00  0.00    -0.330 OA
ATOM     29  C   UNL     1       6.771   3.015  25.634  0.00  0.00    +0.191 C 
ATOM     30  C   UNL     1       6.170   3.234  27.046  0.00  0.00    +0.178 C 
ATOM     31  C   UNL     1       6.124   1.933  27.834  0.00  0.00    +0.180 C 
ATOM     32  C   UNL     1       5.451   0.886  26.954  0.00  0.00    +0.214 C 
BRANCH  30  33
ATOM     33  O   UNL     1       4.849   3.801  26.899  0.00  0.00    -0.386 OA
ATOM     34  H   UNL     1       4.487   3.514  26.033  0.00  0.00    +0.210 HD
ENDBRANCH  30  33
BRANCH  31  35
ATOM     35  O   UNL     1       7.425   1.541  28.271  0.00  0.00    -0.386 OA
ATOM     36  H   UNL     1       8.103   2.043  27.780  0.00  0.00    +0.210 HD
ENDBRANCH  31  35
BRANCH  32  37
ATOM     37  O   UNL     1       4.160   1.379  26.531  0.00  0.00    -0.383 OA
ATOM     38  H   UNL     1       3.947   0.987  25.661  0.00  0.00    +0.210 HD
ENDBRANCH  32  37
BRANCH  29  39
ATOM     39  C   UNL     1       8.144   3.694  25.519  0.00  0.00    +0.267 C 
BRANCH  39  40
ATOM     40  O   UNL     1       8.468   4.103  24.191  0.00  0.00    -0.454 OA
BRANCH  40  41
ATOM     41  C   UNL     1       7.726   5.102  23.697  0.00  0.00    +0.417 C 
ATOM     42  O   UNL     1       7.370   6.130  24.254  0.00  0.00    -0.238 OA
BRANCH  41  43
ATOM     43  C   UNL     1       7.307   4.825  22.240  0.00  0.00    +0.415 C 
ATOM     44  O   UNL     1       6.832   3.779  21.850  0.00  0.00    -0.238 OA
BRANCH  43  45
ATOM     45  O   UNL     1       7.533   5.914  21.477  0.00  0.00    -0.473 OA
ATOM     46  H   UNL     1       8.484   5.957  21.225  0.00  0.00    +0.296 HD
ENDBRANCH  43  45
ENDBRANCH  41  43
ENDBRANCH  40  41
ENDBRANCH  39  40
ENDBRANCH  29  39
ENDBRANCH  26  27
ENDBRANCH  11  26
TORSDOF 15
ENDMDL
MODEL 3
REMARK VINA RESULT:      -6.7      2.147      5.974
REMARK  Name = 
REMARK  15 active torsions:
REMARK  status: ('A' for Active; 'I' for Inactive)
REMARK    1  A    between atoms: C_3  and  O_43
REMARK    2  A    between atoms: C_4  and  O_42
REMARK    3  A    between atoms: C_6  and  C_7
REMARK    4  A    between atoms: C_8  and  O_20
REMARK    5  A    between atoms: C_12  and  O_19
REMARK    6  A    between atoms: C_14  and  O_18
REMARK    7  A    between atoms: O_20  and  C_21
REMARK    8  A    between atoms: C_23  and  O_41
REMARK    9  A    between atoms: C_25  and  O_40
REMARK   10  A    between atoms: C_27  and  O_39
REMARK   11  A    between atoms: C_29  and  C_32
REMARK   12  A    between atoms: C_32  and  O_33
REMARK   13  A    between atoms: O_33  and  C_34
REMARK   14  A    between atoms: C_34  and  C_36
REMARK   15  A    between atoms: C_36  and  O_38
REMARK                            x       y       z     vdW  Elec       q    Type
REMARK                         _______ _______ _______ _____ _____    ______ ____
ROOT
ATOM      1  C   UNL     1       6.882  -0.806  25.291  0.00  0.00    +0.181 A 
ATOM      2  O   UNL     1       7.294   0.533  25.242  0.00  0.00    -0.451 OA
ATOM      3  C   UNL     1       8.118   0.948  24.233  0.00  0.00    +0.147 A 
ATOM      4  C   UNL     1       8.803   0.055  23.431  0.00  0.00    +0.109 A 
ATOM      5  C   UNL     1       9.658   0.483  22.408  0.00  0.00    +0.135 A 
ATOM      6  C   UNL     1       9.839   1.839  22.190  0.00  0.00    +0.091 A 
ATOM      7  C   UNL     1       9.153   2.745  22.995  0.00  0.00    +0.124 A 
ATOM      8  C   UNL     1       8.586  -1.351  23.662  0.00  0.00    +0.238 A 
ATOM      9  O   UNL     1       9.330  -2.111  23.046  0.00  0.00    -0.283 OA
ATOM     10  C   UNL     1       8.287   2.312  24.008  0.00  0.00    +0.092 A 
ATOM     11  C   UNL     1       7.461  -1.786  24.547  0.00  0.00    +0.214 A 
ENDROOT
BRANCH   1  13
ATOM     12  C   UNL     1       4.890   0.220  26.430  0.00  0.00    +0.015 A 
ATOM     13  C   UNL     1       5.668  -0.920  26.159  0.00  0.00    +0.025 A 
ATOM     14  C   UNL     1       5.446  -2.071  26.949  0.00  0.00    +0.060 A 
ATOM     15  C   UNL     1       4.563  -2.025  28.031  0.00  0.00    +0.159 A 
ATOM     16  C   UNL     1       3.889  -0.853  28.348  0.00  0.00    +0.158 A 
ATOM     17  C   UNL     1       4.016   0.256  27.527  0.00  0.00    +0.050 A 
BRANCH  15  18
ATOM     18  O   UNL     1       4.411  -3.119  28.836  0.00  0.00    -0.503 OA
ATOM     19  H   UNL     1       4.748  -3.870  28.299  0.00  0.00    +0.292 HD
ENDBRANCH  15  18
BRANCH  16  20
ATOM     20  O   UNL     1       3.156  -0.825  29.502  0.00  0.00    -0.503 OA
ATOM     21  H   UNL     1       2.462  -0.149  29.402  0.00  0.00    +0.292 HD
ENDBRANCH  16  20
ENDBRANCH   1  13
BRANCH   5  22
ATOM     22  O   UNL     1      10.341  -0.368  21.582  0.00  0.00    -0.506 OA
ATOM     23  H   UNL     1      10.256  -1.281  21.947  0.00  0.00    +0.292 HD
ENDBRANCH   5  22
BRANCH   7  24
ATOM     24  O   UNL     1       9.310   4.075  22.818  0.00  0.00    -0.507 OA
ATOM     25  H   UNL     1       8.479   4.436  22.446  0.00  0.00    +0.292 HD
ENDBRANCH   7  24
BRANCH  11  26
ATOM     26  O   UNL     1       7.040  -3.117  24.560  0.00  0.00    -0.453 OA
BRANCH  26  27
ATOM     27  C   UNL     1       6.019  -3.499  23.593  0.00  0.00    +0.340 C 
ATOM     28  O   UNL     1       5.197  -4.485  24.217  0.00  0.00    -0.330 OA
ATOM     29  C   UNL     1       4.882  -5.732  23.584  0.00  0.00    +0.191 C 
ATOM     30  C   UNL     1       5.863  -6.284  22.519  0.00  0.00    +0.178 C 
ATOM     31  C   UNL     1       7.122  -5.433  22.435  0.00  0.00    +0.180 C 
ATOM     32  C   UNL     1       6.686  -3.981  22.281  0.00  0.00    +0.214 C 
BRANCH  30  33
ATOM     33  O   UNL     1       5.180  -6.331  21.247  0.00  0.00    -0.386 OA
ATOM     34  H   UNL     1       4.245  -6.584  21.411  0.00  0.00    +0.210 HD
ENDBRANCH  30  33
BRANCH  31  35
ATOM     35  O   UNL     1       7.972  -5.644  23.561  0.00  0.00    -0.386 OA
ATOM     36  H   UNL     1       8.884  -5.371  23.342  0.00  0.00    +0.210 HD
ENDBRANCH  31  35
BRANCH  32  37
ATOM     37  O   UNL     1       5.804  -3.866  21.142  0.00  0.00    -0.383 OA
ATOM     38  H   UNL     1       5.517  -4.762  20.879  0.00  0.00    +0.210 HD
ENDBRANCH  32  37
BRANCH  29  39
ATOM     39  C   UNL     1       4.787  -6.691  24.782  0.00  0.00    +0.267 C 
BRANCH  39  40
ATOM     40  O   UNL     1       5.792  -6.471  25.769  0.00  0.00    -0.454 OA
BRANCH  40  41
ATOM     41  C   UNL     1       5.358  -5.988  26.939  0.00  0.00    +0.417 C 
ATOM     42  O   UNL     1       4.210  -5.740  27.279  0.00  0.00    -0.238 OA
BRANCH  41  43
ATOM     43  C   UNL     1       6.526  -5.733  27.911  0.00  0.00    +0.415 C 
ATOM     44  O   UNL     1       6.396  -5.370  29.062  0.00  0.00    -0.238 OA
BRANCH  43  45
ATOM     45  O   UNL     1       7.703  -5.984  27.299  0.00  0.00    -0.473 OA
ATOM     46  H   UNL     1       7.544  -6.267  26.369  0.00  0.00    +0.296 HD
ENDBRANCH  43  45
ENDBRANCH  41  43
ENDBRANCH  40  41
ENDBRANCH  39  40
ENDBRANCH  29  39
ENDBRANCH  26  27
ENDBRANCH  11  26
TORSDOF 15
ENDMDL
MODEL 4
REMARK VINA RESULT:      -6.7      2.622      6.127
REMARK  Name = 
REMARK  15 active torsions:
REMARK  status: ('A' for Active; 'I' for Inactive)
REMARK    1  A    between atoms: C_3  and  O_43
REMARK    2  A    between atoms: C_4  and  O_42
REMARK    3  A    between atoms: C_6  and  C_7
REMARK    4  A    between atoms: C_8  and  O_20
REMARK    5  A    between atoms: C_12  and  O_19
REMARK    6  A    between atoms: C_14  and  O_18
REMARK    7  A    between atoms: O_20  and  C_21
REMARK    8  A    between atoms: C_23  and  O_41
REMARK    9  A    between atoms: C_25  and  O_40
REMARK   10  A    between atoms: C_27  and  O_39
REMARK   11  A    between atoms: C_29  and  C_32
REMARK   12  A    between atoms: C_32  and  O_33
REMARK   13  A    between atoms: O_33  and  C_34
REMARK   14  A    between atoms: C_34  and  C_36
REMARK   15  A    between atoms: C_36  and  O_38
REMARK                            x       y       z     vdW  Elec       q    Type
REMARK                         _______ _______ _______ _____ _____    ______ ____
ROOT
ATOM      1  C   UNL     1       7.580  -1.604  23.923  0.00  0.00    +0.181 A 
ATOM      2  O   UNL     1       7.895  -2.910  23.520  0.00  0.00    -0.451 OA
ATOM      3  C   UNL     1       6.890  -3.819  23.340  0.00  0.00    +0.147 A 
ATOM      4  C   UNL     1       5.612  -3.605  23.818  0.00  0.00    +0.109 A 
ATOM      5  C   UNL     1       4.589  -4.546  23.645  0.00  0.00    +0.135 A 
ATOM      6  C   UNL     1       4.856  -5.734  22.986  0.00  0.00    +0.091 A 
ATOM      7  C   UNL     1       6.142  -5.957  22.502  0.00  0.00    +0.124 A 
ATOM      8  C   UNL     1       5.350  -2.354  24.485  0.00  0.00    +0.238 A 
ATOM      9  O   UNL     1       4.256  -2.267  25.039  0.00  0.00    -0.283 OA
ATOM     10  C   UNL     1       7.159  -5.007  22.664  0.00  0.00    +0.092 A 
ATOM     11  C   UNL     1       6.358  -1.252  24.403  0.00  0.00    +0.214 A 
ENDROOT
BRANCH   1  13
ATOM     12  C   UNL     1       9.767  -0.534  24.547  0.00  0.00    +0.015 A 
ATOM     13  C   UNL     1       8.731  -0.699  23.611  0.00  0.00    +0.025 A 
ATOM     14  C   UNL     1       8.663   0.218  22.537  0.00  0.00    +0.060 A 
ATOM     15  C   UNL     1       9.533   1.310  22.485  0.00  0.00    +0.159 A 
ATOM     16  C   UNL     1      10.477   1.514  23.483  0.00  0.00    +0.158 A 
ATOM     17  C   UNL     1      10.626   0.573  24.490  0.00  0.00    +0.050 A 
BRANCH  15  18
ATOM     18  O   UNL     1       9.412   2.233  21.485  0.00  0.00    -0.503 OA
ATOM     19  H   UNL     1       9.253   3.084  21.951  0.00  0.00    +0.292 HD
ENDBRANCH  15  18
BRANCH  16  20
ATOM     20  O   UNL     1      11.197   2.676  23.459  0.00  0.00    -0.503 OA
ATOM     21  H   UNL     1      11.227   3.031  24.365  0.00  0.00    +0.292 HD
ENDBRANCH  16  20
ENDBRANCH   1  13
BRANCH   5  22
ATOM     22  O   UNL     1       3.307  -4.365  24.090  0.00  0.00    -0.506 OA
ATOM     23  H   UNL     1       2.695  -4.547  23.337  0.00  0.00    +0.292 HD
ENDBRANCH   5  22
BRANCH   7  24
ATOM     24  O   UNL     1       6.443  -7.107  21.860  0.00  0.00    -0.507 OA
ATOM     25  H   UNL     1       5.660  -7.693  21.895  0.00  0.00    +0.292 HD
ENDBRANCH   7  24
BRANCH  11  26
ATOM     26  O   UNL     1       6.020   0.051  24.776  0.00  0.00    -0.453 OA
BRANCH  26  27
ATOM     27  C   UNL     1       6.092   0.374  26.194  0.00  0.00    +0.340 C 
ATOM     28  O   UNL     1       5.030   1.285  26.472  0.00  0.00    -0.330 OA
ATOM     29  C   UNL     1       5.241   2.517  27.174  0.00  0.00    +0.191 C 
ATOM     30  C   UNL     1       6.651   3.159  27.125  0.00  0.00    +0.178 C 
ATOM     31  C   UNL     1       7.568   2.404  26.174  0.00  0.00    +0.180 C 
ATOM     32  C   UNL     1       7.497   0.926  26.542  0.00  0.00    +0.214 C 
BRANCH  30  33
ATOM     33  O   UNL     1       7.193   3.179  28.464  0.00  0.00    -0.386 OA
ATOM     34  H   UNL     1       6.496   3.512  29.072  0.00  0.00    +0.210 HD
ENDBRANCH  30  33
BRANCH  31  35
ATOM     35  O   UNL     1       7.229   2.656  24.811  0.00  0.00    -0.386 OA
ATOM     36  H   UNL     1       7.562   1.930  24.249  0.00  0.00    +0.210 HD
ENDBRANCH  31  35
BRANCH  32  37
ATOM     37  O   UNL     1       7.820   0.768  27.941  0.00  0.00    -0.383 OA
ATOM     38  H   UNL     1       8.405   1.503  28.211  0.00  0.00    +0.210 HD
ENDBRANCH  32  37
BRANCH  29  39
ATOM     39  C   UNL     1       4.201   3.445  26.526  0.00  0.00    +0.267 C 
BRANCH  39  40
ATOM     40  O   UNL     1       4.462   3.719  25.151  0.00  0.00    -0.454 OA
BRANCH  40  41
ATOM     41  C   UNL     1       3.606   3.172  24.280  0.00  0.00    +0.417 C 
ATOM     42  O   UNL     1       2.467   2.776  24.482  0.00  0.00    -0.238 OA
BRANCH  41  43
ATOM     43  C   UNL     1       4.228   3.056  22.875  0.00  0.00    +0.415 C 
ATOM     44  O   UNL     1       3.817   3.634  21.891  0.00  0.00    -0.238 OA
BRANCH  43  45
ATOM     45  O   UNL     1       5.297   2.233  22.908  0.00  0.00    -0.473 OA
ATOM     46  H   UNL     1       6.120   2.742  22.719  0.00  0.00    +0.296 HD
ENDBRANCH  43  45
ENDBRANCH  41  43
ENDBRANCH  40  41
ENDBRANCH  39  40
ENDBRANCH  29  39
ENDBRANCH  26  27
ENDBRANCH  11  26
TORSDOF 15
ENDMDL
MODEL 5
REMARK VINA RESULT:      -6.6      2.405      4.371
REMARK  Name = 
REMARK  15 active torsions:
REMARK  status: ('A' for Active; 'I' for Inactive)
REMARK    1  A    between atoms: C_3  and  O_43
REMARK    2  A    between atoms: C_4  and  O_42
REMARK    3  A    between atoms: C_6  and  C_7
REMARK    4  A    between atoms: C_8  and  O_20
REMARK    5  A    between atoms: C_12  and  O_19
REMARK    6  A    between atoms: C_14  and  O_18
REMARK    7  A    between atoms: O_20  and  C_21
REMARK    8  A    between atoms: C_23  and  O_41
REMARK    9  A    between atoms: C_25  and  O_40
REMARK   10  A    between atoms: C_27  and  O_39
REMARK   11  A    between atoms: C_29  and  C_32
REMARK   12  A    between atoms: C_32  and  O_33
REMARK   13  A    between atoms: O_33  and  C_34
REMARK   14  A    between atoms: C_34  and  C_36
REMARK   15  A    between atoms: C_36  and  O_38
REMARK                            x       y       z     vdW  Elec       q    Type
REMARK                         _______ _______ _______ _____ _____    ______ ____
ROOT
ATOM      1  C   UNL     1       6.632  -0.651  25.864  0.00  0.00    +0.181 A 
ATOM      2  O   UNL     1       6.228  -1.762  26.617  0.00  0.00    -0.451 OA
ATOM      3  C   UNL     1       6.850  -2.965  26.428  0.00  0.00    +0.147 A 
ATOM      4  C   UNL     1       7.651  -3.213  25.330  0.00  0.00    +0.109 A 
ATOM      5  C   UNL     1       8.275  -4.451  25.132  0.00  0.00    +0.135 A 
ATOM      6  C   UNL     1       8.083  -5.468  26.053  0.00  0.00    +0.091 A 
ATOM      7  C   UNL     1       7.277  -5.227  27.161  0.00  0.00    +0.124 A 
ATOM      8  C   UNL     1       7.852  -2.135  24.394  0.00  0.00    +0.238 A 
ATOM      9  O   UNL     1       8.431  -2.438  23.353  0.00  0.00    -0.283 OA
ATOM     10  C   UNL     1       6.667  -3.981  27.363  0.00  0.00    +0.092 A 
ATOM     11  C   UNL     1       7.428  -0.750  24.766  0.00  0.00    +0.214 A 
ENDROOT
BRANCH   1  13
ATOM     12  C   UNL     1       5.153   1.381  25.949  0.00  0.00    +0.015 A 
ATOM     13  C   UNL     1       6.164   0.601  26.539  0.00  0.00    +0.025 A 
ATOM     14  C   UNL     1       6.906   1.177  27.595  0.00  0.00    +0.060 A 
ATOM     15  C   UNL     1       6.707   2.513  27.951  0.00  0.00    +0.159 A 
ATOM     16  C   UNL     1       5.779   3.297  27.277  0.00  0.00    +0.158 A 
ATOM     17  C   UNL     1       4.972   2.724  26.307  0.00  0.00    +0.050 A 
BRANCH  15  18
ATOM     18  O   UNL     1       7.481   3.085  28.921  0.00  0.00    -0.503 OA
ATOM     19  H   UNL     1       6.876   3.197  29.687  0.00  0.00    +0.292 HD
ENDBRANCH  15  18
BRANCH  16  20
ATOM     20  O   UNL     1       5.735   4.633  27.568  0.00  0.00    -0.503 OA
ATOM     21  H   UNL     1       5.661   4.728  28.534  0.00  0.00    +0.292 HD
ENDBRANCH  16  20
ENDBRANCH   1  13
BRANCH   5  22
ATOM     22  O   UNL     1       9.088  -4.731  24.068  0.00  0.00    -0.506 OA
ATOM     23  H   UNL     1       8.571  -4.576  23.241  0.00  0.00    +0.292 HD
ENDBRANCH   5  22
BRANCH   7  24
ATOM     24  O   UNL     1       7.060  -6.196  28.076  0.00  0.00    -0.507 OA
ATOM     25  H   UNL     1       6.101  -6.229  28.269  0.00  0.00    +0.292 HD
ENDBRANCH   7  24
BRANCH  11  26
ATOM     26  O   UNL     1       7.866   0.351  24.027  0.00  0.00    -0.453 OA
BRANCH  26  27
ATOM     27  C   UNL     1       9.009   1.088  24.549  0.00  0.00    +0.340 C 
ATOM     28  O   UNL     1       8.593   2.442  24.723  0.00  0.00    -0.330 OA
ATOM     29  C   UNL     1       9.347   3.547  24.210  0.00  0.00    +0.191 C 
ATOM     30  C   UNL     1      10.271   3.304  22.990  0.00  0.00    +0.178 C 
ATOM     31  C   UNL     1      10.094   1.897  22.435  0.00  0.00    +0.180 C 
ATOM     32  C   UNL     1      10.223   0.924  23.602  0.00  0.00    +0.214 C 
BRANCH  30  33
ATOM     33  O   UNL     1      11.638   3.535  23.396  0.00  0.00    -0.386 OA
ATOM     34  H   UNL     1      11.628   3.926  24.297  0.00  0.00    +0.210 HD
ENDBRANCH  30  33
BRANCH  31  35
ATOM     35  O   UNL     1       8.859   1.764  21.733  0.00  0.00    -0.386 OA
ATOM     36  H   UNL     1       9.023   1.381  20.849  0.00  0.00    +0.210 HD
ENDBRANCH  31  35
BRANCH  32  37
ATOM     37  O   UNL     1      11.481   1.152  24.275  0.00  0.00    -0.383 OA
ATOM     38  H   UNL     1      12.139   0.518  23.928  0.00  0.00    +0.210 HD
ENDBRANCH  32  37
BRANCH  29  39
ATOM     39  C   UNL     1       8.246   4.561  23.861  0.00  0.00    +0.267 C 
BRANCH  39  40
ATOM     40  O   UNL     1       7.372   4.118  22.825  0.00  0.00    -0.454 OA
BRANCH  40  41
ATOM     41  C   UNL     1       6.064   4.279  23.063  0.00  0.00    +0.417 C 
ATOM     42  O   UNL     1       5.499   5.228  23.586  0.00  0.00    -0.238 OA
BRANCH  41  43
ATOM     43  C   UNL     1       5.253   3.055  22.596  0.00  0.00    +0.415 C 
ATOM     44  O   UNL     1       4.092   3.095  22.244  0.00  0.00    -0.238 OA
BRANCH  43  45
ATOM     45  O   UNL     1       6.024   1.948  22.624  0.00  0.00    -0.473 OA
ATOM     46  H   UNL     1       5.463   1.145  22.520  0.00  0.00    +0.296 HD
ENDBRANCH  43  45
ENDBRANCH  41  43
ENDBRANCH  40  41
ENDBRANCH  39  40
ENDBRANCH  29  39
ENDBRANCH  26  27
ENDBRANCH  11  26
TORSDOF 15
ENDMDL
MODEL 6
REMARK VINA RESULT:      -6.4      2.577      7.724
REMARK  Name = 
REMARK  15 active torsions:
REMARK  status: ('A' for Active; 'I' for Inactive)
REMARK    1  A    between atoms: C_3  and  O_43
REMARK    2  A    between atoms: C_4  and  O_42
REMARK    3  A    between atoms: C_6  and  C_7
REMARK    4  A    between atoms: C_8  and  O_20
REMARK    5  A    between atoms: C_12  and  O_19
REMARK    6  A    between atoms: C_14  and  O_18
REMARK    7  A    between atoms: O_20  and  C_21
REMARK    8  A    between atoms: C_23  and  O_41
REMARK    9  A    between atoms: C_25  and  O_40
REMARK   10  A    between atoms: C_27  and  O_39
REMARK   11  A    between atoms: C_29  and  C_32
REMARK   12  A    between atoms: C_32  and  O_33
REMARK   13  A    between atoms: O_33  and  C_34
REMARK   14  A    between atoms: C_34  and  C_36
REMARK   15  A    between atoms: C_36  and  O_38
REMARK                            x       y       z     vdW  Elec       q    Type
REMARK                         _______ _______ _______ _____ _____    ______ ____
ROOT
ATOM      1  C   UNL     1       6.386  -1.631  23.570  0.00  0.00    +0.181 A 
ATOM      2  O   UNL     1       7.334  -1.106  22.681  0.00  0.00    -0.451 OA
ATOM      3  C   UNL     1       7.784   0.173  22.856  0.00  0.00    +0.147 A 
ATOM      4  C   UNL     1       7.138   1.072  23.683  0.00  0.00    +0.109 A 
ATOM      5  C   UNL     1       7.594   2.386  23.849  0.00  0.00    +0.135 A 
ATOM      6  C   UNL     1       8.719   2.812  23.162  0.00  0.00    +0.091 A 
ATOM      7  C   UNL     1       9.374   1.912  22.327  0.00  0.00    +0.124 A 
ATOM      8  C   UNL     1       5.980   0.603  24.403  0.00  0.00    +0.238 A 
ATOM      9  O   UNL     1       5.338   1.467  24.996  0.00  0.00    -0.283 OA
ATOM     10  C   UNL     1       8.924   0.594  22.175  0.00  0.00    +0.092 A 
ATOM     11  C   UNL     1       5.685  -0.863  24.444  0.00  0.00    +0.214 A 
ENDROOT
BRANCH   1  13
ATOM     12  C   UNL     1       7.609  -3.813  23.317  0.00  0.00    +0.015 A 
ATOM     13  C   UNL     1       6.393  -3.126  23.475  0.00  0.00    +0.025 A 
ATOM     14  C   UNL     1       5.197  -3.844  23.244  0.00  0.00    +0.060 A 
ATOM     15  C   UNL     1       5.243  -5.156  22.766  0.00  0.00    +0.159 A 
ATOM     16  C   UNL     1       6.459  -5.777  22.511  0.00  0.00    +0.158 A 
ATOM     17  C   UNL     1       7.642  -5.126  22.825  0.00  0.00    +0.050 A 
BRANCH  15  18
ATOM     18  O   UNL     1       4.084  -5.817  22.473  0.00  0.00    -0.503 OA
ATOM     19  H   UNL     1       3.417  -5.106  22.350  0.00  0.00    +0.292 HD
ENDBRANCH  15  18
BRANCH  16  20
ATOM     20  O   UNL     1       6.440  -7.002  21.905  0.00  0.00    -0.503 OA
ATOM     21  H   UNL     1       5.510  -7.252  21.760  0.00  0.00    +0.292 HD
ENDBRANCH  16  20
ENDBRANCH   1  13
BRANCH   5  22
ATOM     22  O   UNL     1       6.992   3.301  24.670  0.00  0.00    -0.506 OA
ATOM     23  H   UNL     1       6.152   2.905  25.004  0.00  0.00    +0.292 HD
ENDBRANCH   5  22
BRANCH   7  24
ATOM     24  O   UNL     1      10.470   2.293  21.634  0.00  0.00    -0.507 OA
ATOM     25  H   UNL     1      10.279   3.150  21.202  0.00  0.00    +0.292 HD
ENDBRANCH   7  24
BRANCH  11  26
ATOM     26  O   UNL     1       4.762  -1.377  25.358  0.00  0.00    -0.453 OA
BRANCH  26  27
ATOM     27  C   UNL     1       5.229  -1.591  26.722  0.00  0.00    +0.340 C 
ATOM     28  O   UNL     1       5.484  -2.988  26.864  0.00  0.00    -0.330 OA
ATOM     29  C   UNL     1       4.962  -3.755  27.956  0.00  0.00    +0.191 C 
ATOM     30  C   UNL     1       3.670  -3.257  28.652  0.00  0.00    +0.178 C 
ATOM     31  C   UNL     1       3.075  -2.061  27.923  0.00  0.00    +0.180 C 
ATOM     32  C   UNL     1       4.191  -1.040  27.730  0.00  0.00    +0.214 C 
BRANCH  30  33
ATOM     33  O   UNL     1       3.985  -2.927  30.023  0.00  0.00    -0.386 OA
ATOM     34  H   UNL     1       3.195  -3.119  30.574  0.00  0.00    +0.210 HD
ENDBRANCH  30  33
BRANCH  31  35
ATOM     35  O   UNL     1       2.458  -2.450  26.697  0.00  0.00    -0.386 OA
ATOM     36  H   UNL     1       1.487  -2.430  26.796  0.00  0.00    +0.210 HD
ENDBRANCH  31  35
BRANCH  32  37
ATOM     37  O   UNL     1       4.781  -0.731  29.013  0.00  0.00    -0.383 OA
ATOM     38  H   UNL     1       4.410   0.116  29.331  0.00  0.00    +0.210 HD
ENDBRANCH  32  37
BRANCH  29  39
ATOM     39  C   UNL     1       4.732  -5.130  27.309  0.00  0.00    +0.267 C 
BRANCH  39  40
ATOM     40  O   UNL     1       3.355  -5.454  27.134  0.00  0.00    -0.454 OA
BRANCH  40  41
ATOM     41  C   UNL     1       2.989  -5.773  25.886  0.00  0.00    +0.417 C 
ATOM     42  O   UNL     1       2.491  -5.051  25.034  0.00  0.00    -0.238 OA
BRANCH  41  43
ATOM     43  C   UNL     1       3.255  -7.260  25.583  0.00  0.00    +0.415 C 
ATOM     44  O   UNL     1       4.074  -7.661  24.783  0.00  0.00    -0.238 OA
BRANCH  43  45
ATOM     45  O   UNL     1       2.457  -8.038  26.343  0.00  0.00    -0.473 OA
ATOM     46  H   UNL     1       1.870  -8.582  25.768  0.00  0.00    +0.296 HD
ENDBRANCH  43  45
ENDBRANCH  41  43
ENDBRANCH  40  41
ENDBRANCH  39  40
ENDBRANCH  29  39
ENDBRANCH  26  27
ENDBRANCH  11  26
TORSDOF 15
ENDMDL
MODEL 7
REMARK VINA RESULT:      -6.4      2.502      5.055
REMARK  Name = 
REMARK  15 active torsions:
REMARK  status: ('A' for Active; 'I' for Inactive)
REMARK    1  A    between atoms: C_3  and  O_43
REMARK    2  A    between atoms: C_4  and  O_42
REMARK    3  A    between atoms: C_6  and  C_7
REMARK    4  A    between atoms: C_8  and  O_20
REMARK    5  A    between atoms: C_12  and  O_19
REMARK    6  A    between atoms: C_14  and  O_18
REMARK    7  A    between atoms: O_20  and  C_21
REMARK    8  A    between atoms: C_23  and  O_41
REMARK    9  A    between atoms: C_25  and  O_40
REMARK   10  A    between atoms: C_27  and  O_39
REMARK   11  A    between atoms: C_29  and  C_32
REMARK   12  A    between atoms: C_32  and  O_33
REMARK   13  A    between atoms: O_33  and  C_34
REMARK   14  A    between atoms: C_34  and  C_36
REMARK   15  A    between atoms: C_36  and  O_38
REMARK                            x       y       z     vdW  Elec       q    Type
REMARK                         _______ _______ _______ _____ _____    ______ ____
ROOT
ATOM      1  C   UNL     1       5.692  -1.081  25.708  0.00  0.00    +0.181 A 
ATOM      2  O   UNL     1       5.257  -2.214  26.410  0.00  0.00    -0.451 OA
ATOM      3  C   UNL     1       5.414  -3.453  25.852  0.00  0.00    +0.147 A 
ATOM      4  C   UNL     1       5.707  -3.623  24.513  0.00  0.00    +0.109 A 
ATOM      5  C   UNL     1       5.851  -4.894  23.942  0.00  0.00    +0.135 A 
ATOM      6  C   UNL     1       5.690  -6.021  24.731  0.00  0.00    +0.091 A 
ATOM      7  C   UNL     1       5.394  -5.857  26.081  0.00  0.00    +0.124 A 
ATOM      8  C   UNL     1       5.889  -2.437  23.714  0.00  0.00    +0.238 A 
ATOM      9  O   UNL     1       5.984  -2.623  22.503  0.00  0.00    -0.283 OA
ATOM     10  C   UNL     1       5.264  -4.583  26.651  0.00  0.00    +0.092 A 
ATOM     11  C   UNL     1       6.022  -1.109  24.390  0.00  0.00    +0.214 A 
ENDROOT
BRANCH   1  13
ATOM     12  C   UNL     1       5.289   1.315  26.351  0.00  0.00    +0.015 A 
ATOM     13  C   UNL     1       5.847   0.063  26.661  0.00  0.00    +0.025 A 
ATOM     14  C   UNL     1       6.783   0.004  27.719  0.00  0.00    +0.060 A 
ATOM     15  C   UNL     1       7.212   1.175  28.348  0.00  0.00    +0.159 A 
ATOM     16  C   UNL     1       6.729   2.414  27.947  0.00  0.00    +0.158 A 
ATOM     17  C   UNL     1       5.738   2.485  26.981  0.00  0.00    +0.050 A 
BRANCH  15  18
ATOM     18  O   UNL     1       8.173   1.118  29.318  0.00  0.00    -0.503 OA
ATOM     19  H   UNL     1       8.138   0.192  29.647  0.00  0.00    +0.292 HD
ENDBRANCH  15  18
BRANCH  16  20
ATOM     20  O   UNL     1       7.295   3.532  28.495  0.00  0.00    -0.503 OA
ATOM     21  H   UNL     1       7.906   3.912  27.839  0.00  0.00    +0.292 HD
ENDBRANCH  16  20
ENDBRANCH   1  13
BRANCH   5  22
ATOM     22  O   UNL     1       6.156  -5.104  22.624  0.00  0.00    -0.506 OA
ATOM     23  H   UNL     1       5.597  -5.849  22.298  0.00  0.00    +0.292 HD
ENDBRANCH   5  22
BRANCH   7  24
ATOM     24  O   UNL     1       5.221  -6.932  26.880  0.00  0.00    -0.507 OA
ATOM     25  H   UNL     1       6.098  -7.211  27.215  0.00  0.00    +0.292 HD
ENDBRANCH   7  24
BRANCH  11  26
ATOM     26  O   UNL     1       6.489   0.004  23.686  0.00  0.00    -0.453 OA
BRANCH  26  27
ATOM     27  C   UNL     1       7.932   0.139  23.542  0.00  0.00    +0.340 C 
ATOM     28  O   UNL     1       8.335   1.235  24.362  0.00  0.00    -0.330 OA
ATOM     29  C   UNL     1       9.163   2.297  23.869  0.00  0.00    +0.191 C 
ATOM     30  C   UNL     1       9.149   2.595  22.348  0.00  0.00    +0.178 C 
ATOM     31  C   UNL     1       8.097   1.760  21.632  0.00  0.00    +0.180 C 
ATOM     32  C   UNL     1       8.303   0.307  22.048  0.00  0.00    +0.214 C 
BRANCH  30  33
ATOM     33  O   UNL     1      10.468   2.337  21.819  0.00  0.00    -0.386 OA
ATOM     34  H   UNL     1      10.571   2.852  20.989  0.00  0.00    +0.210 HD
ENDBRANCH  30  33
BRANCH  31  35
ATOM     35  O   UNL     1       6.780   2.235  21.901  0.00  0.00    -0.386 OA
ATOM     36  H   UNL     1       6.364   2.540  21.072  0.00  0.00    +0.210 HD
ENDBRANCH  31  35
BRANCH  32  37
ATOM     37  O   UNL     1       9.668  -0.079  21.772  0.00  0.00    -0.383 OA
ATOM     38  H   UNL     1       9.776  -1.024  21.997  0.00  0.00    +0.210 HD
ENDBRANCH  32  37
BRANCH  29  39
ATOM     39  C   UNL     1       8.647   3.508  24.662  0.00  0.00    +0.267 C 
BRANCH  39  40
ATOM     40  O   UNL     1       7.319   3.894  24.313  0.00  0.00    -0.454 OA
BRANCH  40  41
ATOM     41  C   UNL     1       7.103   5.212  24.227  0.00  0.00    +0.417 C 
ATOM     42  O   UNL     1       6.657   5.965  25.081  0.00  0.00    -0.238 OA
BRANCH  41  43
ATOM     43  C   UNL     1       7.481   5.756  22.836  0.00  0.00    +0.415 C 
ATOM     44  O   UNL     1       8.329   6.599  22.635  0.00  0.00    -0.238 OA
BRANCH  43  45
ATOM     45  O   UNL     1       6.741   5.148  21.884  0.00  0.00    -0.473 OA
ATOM     46  H   UNL     1       6.792   4.170  21.992  0.00  0.00    +0.296 HD
ENDBRANCH  43  45
ENDBRANCH  41  43
ENDBRANCH  40  41
ENDBRANCH  39  40
ENDBRANCH  29  39
ENDBRANCH  26  27
ENDBRANCH  11  26
TORSDOF 15
ENDMDL
MODEL 8
REMARK VINA RESULT:      -6.4      3.733      6.124
REMARK  Name = 
REMARK  15 active torsions:
REMARK  status: ('A' for Active; 'I' for Inactive)
REMARK    1  A    between atoms: C_3  and  O_43
REMARK    2  A    between atoms: C_4  and  O_42
REMARK    3  A    between atoms: C_6  and  C_7
REMARK    4  A    between atoms: C_8  and  O_20
REMARK    5  A    between atoms: C_12  and  O_19
REMARK    6  A    between atoms: C_14  and  O_18
REMARK    7  A    between atoms: O_20  and  C_21
REMARK    8  A    between atoms: C_23  and  O_41
REMARK    9  A    between atoms: C_25  and  O_40
REMARK   10  A    between atoms: C_27  and  O_39
REMARK   11  A    between atoms: C_29  and  C_32
REMARK   12  A    between atoms: C_32  and  O_33
REMARK   13  A    between atoms: O_33  and  C_34
REMARK   14  A    between atoms: C_34  and  C_36
REMARK   15  A    between atoms: C_36  and  O_38
REMARK                            x       y       z     vdW  Elec       q    Type
REMARK                         _______ _______ _______ _____ _____    ______ ____
ROOT
ATOM      1  C   UNL     1       7.463  -0.849  25.052  0.00  0.00    +0.181 A 
ATOM      2  O   UNL     1       8.048  -1.914  25.752  0.00  0.00    -0.451 OA
ATOM      3  C   UNL     1       7.248  -2.873  26.308  0.00  0.00    +0.147 A 
ATOM      4  C   UNL     1       5.889  -2.692  26.471  0.00  0.00    +0.109 A 
ATOM      5  C   UNL     1       5.075  -3.671  27.055  0.00  0.00    +0.135 A 
ATOM      6  C   UNL     1       5.640  -4.856  27.496  0.00  0.00    +0.091 A 
ATOM      7  C   UNL     1       7.010  -5.046  27.336  0.00  0.00    +0.124 A 
ATOM      8  C   UNL     1       5.318  -1.459  25.989  0.00  0.00    +0.238 A 
ATOM      9  O   UNL     1       4.144  -1.262  26.296  0.00  0.00    -0.283 OA
ATOM     10  C   UNL     1       7.818  -4.069  26.737  0.00  0.00    +0.092 A 
ATOM     11  C   UNL     1       6.136  -0.563  25.113  0.00  0.00    +0.214 A 
ENDROOT
BRANCH   1  13
ATOM     12  C   UNL     1       9.525   0.554  24.736  0.00  0.00    +0.015 A 
ATOM     13  C   UNL     1       8.491  -0.212  24.170  0.00  0.00    +0.025 A 
ATOM     14  C   UNL     1       8.287  -0.111  22.774  0.00  0.00    +0.060 A 
ATOM     15  C   UNL     1       9.021   0.806  22.018  0.00  0.00    +0.159 A 
ATOM     16  C   UNL     1       9.961   1.632  22.621  0.00  0.00    +0.158 A 
ATOM     17  C   UNL     1      10.246   1.479  23.969  0.00  0.00    +0.050 A 
BRANCH  15  18
ATOM     18  O   UNL     1       8.766   0.952  20.684  0.00  0.00    -0.503 OA
ATOM     19  H   UNL     1       9.194   0.174  20.263  0.00  0.00    +0.292 HD
ENDBRANCH  15  18
BRANCH  16  20
ATOM     20  O   UNL     1      10.539   2.611  21.860  0.00  0.00    -0.503 OA
ATOM     21  H   UNL     1      11.475   2.375  21.727  0.00  0.00    +0.292 HD
ENDBRANCH  16  20
ENDBRANCH   1  13
BRANCH   5  22
ATOM     22  O   UNL     1       3.723  -3.536  27.220  0.00  0.00    -0.506 OA
ATOM     23  H   UNL     1       3.495  -2.583  27.103  0.00  0.00    +0.292 HD
ENDBRANCH   5  22
BRANCH   7  24
ATOM     24  O   UNL     1       7.599  -6.185  27.760  0.00  0.00    -0.507 OA
ATOM     25  H   UNL     1       6.904  -6.779  28.109  0.00  0.00    +0.292 HD
ENDBRANCH   7  24
BRANCH  11  26
ATOM     26  O   UNL     1       5.534   0.473  24.396  0.00  0.00    -0.453 OA
BRANCH  26  27
ATOM     27  C   UNL     1       5.394   1.755  25.073  0.00  0.00    +0.340 C 
ATOM     28  O   UNL     1       4.078   2.233  24.801  0.00  0.00    -0.330 OA
ATOM     29  C   UNL     1       3.829   3.560  24.319  0.00  0.00    +0.191 C 
ATOM     30  C   UNL     1       4.956   4.283  23.539  0.00  0.00    +0.178 C 
ATOM     31  C   UNL     1       6.135   3.353  23.284  0.00  0.00    +0.180 C 
ATOM     32  C   UNL     1       6.517   2.720  24.618  0.00  0.00    +0.214 C 
BRANCH  30  33
ATOM     33  O   UNL     1       5.364   5.445  24.292  0.00  0.00    -0.386 OA
ATOM     34  H   UNL     1       4.580   5.789  24.773  0.00  0.00    +0.210 HD
ENDBRANCH  30  33
BRANCH  31  35
ATOM     35  O   UNL     1       5.832   2.389  22.277  0.00  0.00    -0.386 OA
ATOM     36  H   UNL     1       6.281   1.546  22.482  0.00  0.00    +0.210 HD
ENDBRANCH  31  35
BRANCH  32  37
ATOM     37  O   UNL     1       6.771   3.764  25.585  0.00  0.00    -0.383 OA
ATOM     38  H   UNL     1       6.343   3.518  26.428  0.00  0.00    +0.210 HD
ENDBRANCH  32  37
BRANCH  29  39
ATOM     39  C   UNL     1       2.596   3.358  23.425  0.00  0.00    +0.267 C 
BRANCH  39  40
ATOM     40  O   UNL     1       2.919   3.017  22.078  0.00  0.00    -0.454 OA
BRANCH  40  41
ATOM     41  C   UNL     1       2.387   3.808  21.138  0.00  0.00    +0.417 C 
ATOM     42  O   UNL     1       2.364   5.029  21.098  0.00  0.00    -0.238 OA
BRANCH  41  43
ATOM     43  C   UNL     1       1.734   2.983  20.012  0.00  0.00    +0.415 C 
ATOM     44  O   UNL     1       1.501   3.404  18.898  0.00  0.00    -0.238 OA
BRANCH  43  45
ATOM     45  O   UNL     1       1.474   1.732  20.445  0.00  0.00    -0.473 OA
ATOM     46  H   UNL     1       0.997   1.765  21.306  0.00  0.00    +0.296 HD
ENDBRANCH  43  45
ENDBRANCH  41  43
ENDBRANCH  40  41
ENDBRANCH  39  40
ENDBRANCH  29  39
ENDBRANCH  26  27
ENDBRANCH  11  26
TORSDOF 15
ENDMDL
MODEL 9
REMARK VINA RESULT:      -6.4      1.809      2.183
REMARK  Name = 
REMARK  15 active torsions:
REMARK  status: ('A' for Active; 'I' for Inactive)
REMARK    1  A    between atoms: C_3  and  O_43
REMARK    2  A    between atoms: C_4  and  O_42
REMARK    3  A    between atoms: C_6  and  C_7
REMARK    4  A    between atoms: C_8  and  O_20
REMARK    5  A    between atoms: C_12  and  O_19
REMARK    6  A    between atoms: C_14  and  O_18
REMARK    7  A    between atoms: O_20  and  C_21
REMARK    8  A    between atoms: C_23  and  O_41
REMARK    9  A    between atoms: C_25  and  O_40
REMARK   10  A    between atoms: C_27  and  O_39
REMARK   11  A    between atoms: C_29  and  C_32
REMARK   12  A    between atoms: C_32  and  O_33
REMARK   13  A    between atoms: O_33  and  C_34
REMARK   14  A    between atoms: C_34  and  C_36
REMARK   15  A    between atoms: C_36  and  O_38
REMARK                            x       y       z     vdW  Elec       q    Type
REMARK                         _______ _______ _______ _____ _____    ______ ____
ROOT
ATOM      1  C   UNL     1       6.231  -0.967  26.728  0.00  0.00    +0.181 A 
ATOM      2  O   UNL     1       5.435  -2.068  27.074  0.00  0.00    -0.451 OA
ATOM      3  C   UNL     1       6.014  -3.300  27.211  0.00  0.00    +0.147 A 
ATOM      4  C   UNL     1       7.284  -3.571  26.740  0.00  0.00    +0.109 A 
ATOM      5  C   UNL     1       7.867  -4.838  26.869  0.00  0.00    +0.135 A 
ATOM      6  C   UNL     1       7.156  -5.860  27.476  0.00  0.00    +0.091 A 
ATOM      7  C   UNL     1       5.875  -5.594  27.953  0.00  0.00    +0.124 A 
ATOM      8  C   UNL     1       8.013  -2.489  26.128  0.00  0.00    +0.238 A 
ATOM      9  O   UNL     1       9.065  -2.804  25.576  0.00  0.00    -0.283 OA
ATOM     10  C   UNL     1       5.301  -4.321  27.835  0.00  0.00    +0.092 A 
ATOM     11  C   UNL     1       7.502  -1.089  26.261  0.00  0.00    +0.214 A 
ENDROOT
BRANCH   1  13
ATOM     12  C   UNL     1       5.560   0.789  28.397  0.00  0.00    +0.015 A 
ATOM     13  C   UNL     1       5.509   0.296  27.081  0.00  0.00    +0.025 A 
ATOM     14  C   UNL     1       4.543   0.847  26.209  0.00  0.00    +0.060 A 
ATOM     15  C   UNL     1       3.604   1.765  26.686  0.00  0.00    +0.159 A 
ATOM     16  C   UNL     1       3.604   2.153  28.020  0.00  0.00    +0.158 A 
ATOM     17  C   UNL     1       4.604   1.701  28.866  0.00  0.00    +0.050 A 
BRANCH  15  18
ATOM     18  O   UNL     1       2.625   2.236  25.857  0.00  0.00    -0.503 OA
ATOM     19  H   UNL     1       2.083   1.445  25.640  0.00  0.00    +0.292 HD
ENDBRANCH  15  18
BRANCH  16  20
ATOM     20  O   UNL     1       2.573   2.936  28.462  0.00  0.00    -0.503 OA
ATOM     21  H   UNL     1       2.640   3.003  29.431  0.00  0.00    +0.292 HD
ENDBRANCH  16  20
ENDBRANCH   1  13
BRANCH   5  22
ATOM     22  O   UNL     1       9.127  -5.143  26.430  0.00  0.00    -0.506 OA
ATOM     23  H   UNL     1       9.420  -5.964  26.893  0.00  0.00    +0.292 HD
ENDBRANCH   5  22
BRANCH   7  24
ATOM     24  O   UNL     1       5.148  -6.567  28.544  0.00  0.00    -0.507 OA
ATOM     25  H   UNL     1       4.227  -6.504  28.218  0.00  0.00    +0.292 HD
ENDBRANCH   7  24
BRANCH  11  26
ATOM     26  O   UNL     1       8.318  -0.001  25.945  0.00  0.00    -0.453 OA
BRANCH  26  27
ATOM     27  C   UNL     1       8.025   0.710  24.708  0.00  0.00    +0.340 C 
ATOM     28  O   UNL     1       7.674  -0.271  23.733  0.00  0.00    -0.330 OA
ATOM     29  C   UNL     1       8.274  -0.306  22.432  0.00  0.00    +0.191 C 
ATOM     30  C   UNL     1       9.686   0.307  22.255  0.00  0.00    +0.178 C 
ATOM     31  C   UNL     1      10.275   0.730  23.594  0.00  0.00    +0.180 C 
ATOM     32  C   UNL     1       9.234   1.590  24.303  0.00  0.00    +0.214 C 
BRANCH  30  33
ATOM     33  O   UNL     1       9.589   1.430  21.352  0.00  0.00    -0.386 OA
ATOM     34  H   UNL     1      10.248   2.104  21.629  0.00  0.00    +0.210 HD
ENDBRANCH  30  33
BRANCH  31  35
ATOM     35  O   UNL     1      10.683  -0.399  24.365  0.00  0.00    -0.386 OA
ATOM     36  H   UNL     1      11.434  -0.843  23.926  0.00  0.00    +0.210 HD
ENDBRANCH  31  35
BRANCH  32  37
ATOM     37  O   UNL     1       8.853   2.685  23.440  0.00  0.00    -0.383 OA
ATOM     38  H   UNL     1       8.158   2.372  22.828  0.00  0.00    +0.210 HD
ENDBRANCH  32  37
BRANCH  29  39
ATOM     39  C   UNL     1       8.295  -1.812  22.122  0.00  0.00    +0.267 C 
BRANCH  39  40
ATOM     40  O   UNL     1       7.312  -2.554  22.840  0.00  0.00    -0.454 OA
BRANCH  40  41
ATOM     41  C   UNL     1       6.700  -3.524  22.149  0.00  0.00    +0.417 C 
ATOM     42  O   UNL     1       5.708  -3.440  21.440  0.00  0.00    -0.238 OA
BRANCH  41  43
ATOM     43  C   UNL     1       7.400  -4.883  22.345  0.00  0.00    +0.415 C 
ATOM     44  O   UNL     1       7.283  -5.830  21.596  0.00  0.00    -0.238 OA
BRANCH  43  45
ATOM     45  O   UNL     1       8.164  -4.855  23.457  0.00  0.00    -0.473 OA
ATOM     46  H   UNL     1       7.792  -5.464  24.136  0.00  0.00    +0.296 HD
ENDBRANCH  43  45
ENDBRANCH  41  43
ENDBRANCH  40  41
ENDBRANCH  39  40
ENDBRANCH  29  39
ENDBRANCH  26  27
ENDBRANCH  11  26
TORSDOF 15
ENDMDL
