MODEL 1
REMARK VINA RESULT:      -7.3      0.000      0.000
REMARK  Name = 
REMARK  18 active torsions:
REMARK  status: ('A' for Active; 'I' for Inactive)
REMARK    1  A    between atoms: C_3  and  O_50
REMARK    2  A    between atoms: C_4  and  O_49
REMARK    3  A    between atoms: C_6  and  C_7
REMARK    4  A    between atoms: C_8  and  O_35
REMARK    5  A    between atoms: C_12  and  O_34
REMARK    6  A    between atoms: C_14  and  O_18
REMARK    7  A    between atoms: O_18  and  C_19
REMARK    8  A    between atoms: C_21  and  O_33
REMARK    9  A    between atoms: C_22  and  O_32
REMARK   10  A    between atoms: C_24  and  O_31
REMARK   11  A    between atoms: C_26  and  C_28
REMARK   12  A    between atoms: C_28  and  O_30
REMARK   13  A    between atoms: O_35  and  C_36
REMARK   14  A    between atoms: C_38  and  O_48
REMARK   15  A    between atoms: C_39  and  O_47
REMARK   16  A    between atoms: C_40  and  O_46
REMARK   17  A    between atoms: C_42  and  C_44
REMARK   18  A    between atoms: C_44  and  O_45
REMARK                            x       y       z     vdW  Elec       q    Type
REMARK                         _______ _______ _______ _____ _____    ______ ____
ROOT
ATOM      1  C   UNL     1       7.029   0.772  24.466  0.00  0.00    +0.181 A 
ATOM      2  O   UNL     1       6.292  -0.399  24.344  0.00  0.00    -0.451 OA
ATOM      3  C   UNL     1       6.936  -1.599  24.260  0.00  0.00    +0.147 A 
ATOM      4  C   UNL     1       8.308  -1.721  24.152  0.00  0.00    +0.109 A 
ATOM      5  C   UNL     1       8.849  -3.011  24.041  0.00  0.00    +0.135 A 
ATOM      6  C   UNL     1       8.033  -4.153  24.153  0.00  0.00    +0.092 A 
ATOM      7  C   UNL     1       6.660  -4.016  24.365  0.00  0.00    +0.131 A 
ATOM      8  C   UNL     1       9.110  -0.475  24.214  0.00  0.00    +0.238 A 
ATOM      9  O   UNL     1      10.336  -0.515  24.138  0.00  0.00    -0.283 OA
ATOM     10  C   UNL     1       6.115  -2.727  24.337  0.00  0.00    +0.093 A 
ATOM     11  C   UNL     1       8.380   0.819  24.432  0.00  0.00    +0.214 A 
ENDROOT
BRANCH   1  13
ATOM     12  C   UNL     1       5.219   2.468  23.861  0.00  0.00    +0.015 A 
ATOM     13  C   UNL     1       6.165   1.953  24.764  0.00  0.00    +0.025 A 
ATOM     14  C   UNL     1       6.395   2.689  25.940  0.00  0.00    +0.060 A 
ATOM     15  C   UNL     1       5.879   3.973  26.068  0.00  0.00    +0.159 A 
ATOM     16  C   UNL     1       5.142   4.549  25.042  0.00  0.00    +0.158 A 
ATOM     17  C   UNL     1       4.764   3.786  23.954  0.00  0.00    +0.050 A 
BRANCH  16  18
ATOM     18  O   UNL     1       4.834   5.876  25.129  0.00  0.00    -0.503 OA
ATOM     19  H   UNL     1       4.540   6.161  24.244  0.00  0.00    +0.292 HD
ENDBRANCH  16  18
BRANCH  15  20
ATOM     20  O   UNL     1       6.161   4.694  27.191  0.00  0.00    -0.503 OA
ATOM     21  H   UNL     1       7.006   5.143  26.983  0.00  0.00    +0.292 HD
ENDBRANCH  15  20
ENDBRANCH   1  13
BRANCH   5  22
ATOM     22  O   UNL     1      10.185  -3.241  23.848  0.00  0.00    -0.506 OA
ATOM     23  H   UNL     1      10.390  -3.140  22.895  0.00  0.00    +0.292 HD
ENDBRANCH   5  22
BRANCH  11  24
ATOM     24  O   UNL     1       9.070   2.019  24.359  0.00  0.00    -0.453 OA
BRANCH  24  25
ATOM     25  C   UNL     1       9.771   2.435  23.169  0.00  0.00    +0.340 C 
ATOM     26  O   UNL     1      11.063   3.006  23.473  0.00  0.00    -0.331 OA
ATOM     27  C   UNL     1      11.141   4.352  24.031  0.00  0.00    +0.179 C 
ATOM     28  C   UNL     1       9.915   5.286  23.919  0.00  0.00    +0.177 C 
ATOM     29  C   UNL     1       8.626   4.571  23.539  0.00  0.00    +0.180 C 
ATOM     30  C   UNL     1       8.948   3.521  22.463  0.00  0.00    +0.214 C 
BRANCH  30  31
ATOM     31  O   UNL     1       7.747   3.077  21.840  0.00  0.00    -0.383 OA
ATOM     32  H   UNL     1       7.299   3.841  21.417  0.00  0.00    +0.210 HD
ENDBRANCH  30  31
BRANCH  29  33
ATOM     33  O   UNL     1       7.690   5.550  23.064  0.00  0.00    -0.386 OA
ATOM     34  H   UNL     1       8.189   6.087  22.413  0.00  0.00    +0.210 HD
ENDBRANCH  29  33
BRANCH  28  35
ATOM     35  O   UNL     1      10.123   6.329  22.951  0.00  0.00    -0.386 OA
ATOM     36  H   UNL     1      10.051   5.869  22.084  0.00  0.00    +0.210 HD
ENDBRANCH  28  35
BRANCH  27  37
ATOM     37  C   UNL     1      12.395   5.010  23.414  0.00  0.00    +0.190 C 
BRANCH  37  38
ATOM     38  O   UNL     1      12.874   6.039  24.283  0.00  0.00    -0.392 OA
ATOM     39  H   UNL     1      12.706   6.871  23.801  0.00  0.00    +0.210 HD
ENDBRANCH  37  38
ENDBRANCH  27  37
ENDBRANCH  24  25
ENDBRANCH  11  24
BRANCH   7  40
ATOM     40  O   UNL     1       5.936  -5.165  24.641  0.00  0.00    -0.461 OA
BRANCH  40  41
ATOM     41  C   UNL     1       4.655  -4.921  25.266  0.00  0.00    +0.340 C 
ATOM     42  O   UNL     1       4.696  -5.335  26.644  0.00  0.00    -0.322 OA
ATOM     43  C   UNL     1       4.598  -6.766  26.775  0.00  0.00    +0.261 C 
ATOM     44  C   UNL     1       3.189  -7.195  26.376  0.00  0.00    +0.185 C 
ATOM     45  C   UNL     1       3.039  -6.944  24.875  0.00  0.00    +0.180 C 
ATOM     46  C   UNL     1       3.423  -5.498  24.504  0.00  0.00    +0.214 C 
BRANCH  46  47
ATOM     47  O   UNL     1       3.543  -5.345  23.086  0.00  0.00    -0.383 OA
ATOM     48  H   UNL     1       4.069  -6.096  22.748  0.00  0.00    +0.210 HD
ENDBRANCH  46  47
BRANCH  45  49
ATOM     49  O   UNL     1       3.774  -7.880  24.104  0.00  0.00    -0.386 OA
ATOM     50  H   UNL     1       4.534  -7.446  23.683  0.00  0.00    +0.210 HD
ENDBRANCH  45  49
BRANCH  44  51
ATOM     51  O   UNL     1       2.242  -6.374  27.080  0.00  0.00    -0.386 OA
ATOM     52  H   UNL     1       2.613  -5.476  27.156  0.00  0.00    +0.210 HD
ENDBRANCH  44  51
BRANCH  43  53
ATOM     53  C   UNL     1       4.908  -7.183  28.205  0.00  0.00    +0.337 C 
ATOM     54  O   UNL     1       6.000  -7.111  28.739  0.00  0.00    -0.248 OA
BRANCH  53  55
ATOM     55  O   UNL     1       3.786  -7.594  28.860  0.00  0.00    -0.479 OA
ATOM     56  H   UNL     1       3.656  -8.550  28.661  0.00  0.00    +0.295 HD
ENDBRANCH  53  55
ENDBRANCH  43  53
ENDBRANCH  40  41
ENDBRANCH   7  40
TORSDOF 18
ENDMDL
MODEL 2
REMARK VINA RESULT:      -7.3      2.255     10.240
REMARK  Name = 
REMARK  18 active torsions:
REMARK  status: ('A' for Active; 'I' for Inactive)
REMARK    1  A    between atoms: C_3  and  O_50
REMARK    2  A    between atoms: C_4  and  O_49
REMARK    3  A    between atoms: C_6  and  C_7
REMARK    4  A    between atoms: C_8  and  O_35
REMARK    5  A    between atoms: C_12  and  O_34
REMARK    6  A    between atoms: C_14  and  O_18
REMARK    7  A    between atoms: O_18  and  C_19
REMARK    8  A    between atoms: C_21  and  O_33
REMARK    9  A    between atoms: C_22  and  O_32
REMARK   10  A    between atoms: C_24  and  O_31
REMARK   11  A    between atoms: C_26  and  C_28
REMARK   12  A    between atoms: C_28  and  O_30
REMARK   13  A    between atoms: O_35  and  C_36
REMARK   14  A    between atoms: C_38  and  O_48
REMARK   15  A    between atoms: C_39  and  O_47
REMARK   16  A    between atoms: C_40  and  O_46
REMARK   17  A    between atoms: C_42  and  C_44
REMARK   18  A    between atoms: C_44  and  O_45
REMARK                            x       y       z     vdW  Elec       q    Type
REMARK                         _______ _______ _______ _____ _____    ______ ____
ROOT
ATOM      1  C   UNL     1       7.067  -2.599  25.427  0.00  0.00    +0.181 A 
ATOM      2  O   UNL     1       7.984  -1.585  25.677  0.00  0.00    -0.451 OA
ATOM      3  C   UNL     1       8.650  -1.003  24.638  0.00  0.00    +0.147 A 
ATOM      4  C   UNL     1       8.572  -1.454  23.335  0.00  0.00    +0.109 A 
ATOM      5  C   UNL     1       9.330  -0.789  22.360  0.00  0.00    +0.135 A 
ATOM      6  C   UNL     1      10.059   0.374  22.675  0.00  0.00    +0.092 A 
ATOM      7  C   UNL     1      10.047   0.878  23.977  0.00  0.00    +0.131 A 
ATOM      8  C   UNL     1       7.647  -2.579  23.058  0.00  0.00    +0.238 A 
ATOM      9  O   UNL     1       7.519  -3.019  21.917  0.00  0.00    -0.283 OA
ATOM     10  C   UNL     1       9.399   0.130  24.966  0.00  0.00    +0.093 A 
ATOM     11  C   UNL     1       6.834  -3.117  24.200  0.00  0.00    +0.214 A 
ENDROOT
BRANCH   1  13
ATOM     12  C   UNL     1       6.399  -4.197  27.302  0.00  0.00    +0.015 A 
ATOM     13  C   UNL     1       6.282  -2.961  26.645  0.00  0.00    +0.025 A 
ATOM     14  C   UNL     1       5.265  -2.095  27.085  0.00  0.00    +0.060 A 
ATOM     15  C   UNL     1       4.291  -2.556  27.962  0.00  0.00    +0.159 A 
ATOM     16  C   UNL     1       4.301  -3.870  28.409  0.00  0.00    +0.158 A 
ATOM     17  C   UNL     1       5.379  -4.686  28.124  0.00  0.00    +0.050 A 
BRANCH  16  18
ATOM     18  O   UNL     1       3.218  -4.330  29.100  0.00  0.00    -0.503 OA
ATOM     19  H   UNL     1       3.496  -4.438  30.029  0.00  0.00    +0.292 HD
ENDBRANCH  16  18
BRANCH  15  20
ATOM     20  O   UNL     1       3.280  -1.718  28.333  0.00  0.00    -0.503 OA
ATOM     21  H   UNL     1       2.835  -1.492  27.492  0.00  0.00    +0.292 HD
ENDBRANCH  15  20
ENDBRANCH   1  13
BRANCH   5  22
ATOM     22  O   UNL     1       9.388  -1.202  21.055  0.00  0.00    -0.506 OA
ATOM     23  H   UNL     1       8.490  -1.150  20.667  0.00  0.00    +0.292 HD
ENDBRANCH   5  22
BRANCH  11  24
ATOM     24  O   UNL     1       6.061  -4.254  24.020  0.00  0.00    -0.453 OA
BRANCH  24  25
ATOM     25  C   UNL     1       4.796  -4.224  23.329  0.00  0.00    +0.340 C 
ATOM     26  O   UNL     1       3.752  -3.633  24.134  0.00  0.00    -0.331 OA
ATOM     27  C   UNL     1       3.172  -4.396  25.233  0.00  0.00    +0.179 C 
ATOM     28  C   UNL     1       3.379  -5.927  25.279  0.00  0.00    +0.177 C 
ATOM     29  C   UNL     1       4.469  -6.432  24.344  0.00  0.00    +0.180 C 
ATOM     30  C   UNL     1       4.368  -5.664  23.016  0.00  0.00    +0.214 C 
BRANCH  30  31
ATOM     31  O   UNL     1       5.127  -6.329  22.010  0.00  0.00    -0.383 OA
ATOM     32  H   UNL     1       4.676  -7.164  21.762  0.00  0.00    +0.210 HD
ENDBRANCH  30  31
BRANCH  29  33
ATOM     33  O   UNL     1       4.287  -7.844  24.159  0.00  0.00    -0.386 OA
ATOM     34  H   UNL     1       5.046  -8.129  23.609  0.00  0.00    +0.210 HD
ENDBRANCH  29  33
BRANCH  28  35
ATOM     35  O   UNL     1       2.174  -6.639  24.950  0.00  0.00    -0.386 OA
ATOM     36  H   UNL     1       2.277  -6.856  23.996  0.00  0.00    +0.210 HD
ENDBRANCH  28  35
BRANCH  27  37
ATOM     37  C   UNL     1       1.669  -4.040  25.270  0.00  0.00    +0.190 C 
BRANCH  37  38
ATOM     38  O   UNL     1       1.169  -4.204  26.599  0.00  0.00    -0.392 OA
ATOM     39  H   UNL     1       1.947  -4.463  27.129  0.00  0.00    +0.210 HD
ENDBRANCH  37  38
ENDBRANCH  27  37
ENDBRANCH  24  25
ENDBRANCH  11  24
BRANCH   7  40
ATOM     40  O   UNL     1      10.635   2.115  24.191  0.00  0.00    -0.461 OA
BRANCH  40  41
ATOM     41  C   UNL     1      10.207   3.141  23.265  0.00  0.00    +0.340 C 
ATOM     42  O   UNL     1      11.198   4.182  23.197  0.00  0.00    -0.322 OA
ATOM     43  C   UNL     1      11.138   5.054  24.342  0.00  0.00    +0.261 C 
ATOM     44  C   UNL     1       9.847   5.864  24.269  0.00  0.00    +0.185 C 
ATOM     45  C   UNL     1       8.683   4.894  24.473  0.00  0.00    +0.180 C 
ATOM     46  C   UNL     1       8.770   3.696  23.506  0.00  0.00    +0.214 C 
BRANCH  46  47
ATOM     47  O   UNL     1       7.847   2.667  23.876  0.00  0.00    -0.383 OA
ATOM     48  H   UNL     1       7.994   1.906  23.281  0.00  0.00    +0.210 HD
ENDBRANCH  46  47
BRANCH  45  49
ATOM     49  O   UNL     1       8.584   4.456  25.818  0.00  0.00    -0.386 OA
ATOM     50  H   UNL     1       8.555   3.486  25.855  0.00  0.00    +0.210 HD
ENDBRANCH  45  49
BRANCH  44  51
ATOM     51  O   UNL     1       9.742   6.444  22.958  0.00  0.00    -0.386 OA
ATOM     52  H   UNL     1      10.625   6.760  22.693  0.00  0.00    +0.210 HD
ENDBRANCH  44  51
BRANCH  43  53
ATOM     53  C   UNL     1      12.353   5.968  24.369  0.00  0.00    +0.337 C 
ATOM     54  O   UNL     1      12.476   6.957  25.066  0.00  0.00    -0.248 OA
BRANCH  53  55
ATOM     55  O   UNL     1      13.342   5.506  23.553  0.00  0.00    -0.479 OA
ATOM     56  H   UNL     1      13.680   4.665  23.937  0.00  0.00    +0.295 HD
ENDBRANCH  53  55
ENDBRANCH  43  53
ENDBRANCH  40  41
ENDBRANCH   7  40
TORSDOF 18
ENDMDL
MODEL 3
REMARK VINA RESULT:      -7.1      1.505      1.969
REMARK  Name = 
REMARK  18 active torsions:
REMARK  status: ('A' for Active; 'I' for Inactive)
REMARK    1  A    between atoms: C_3  and  O_50
REMARK    2  A    between atoms: C_4  and  O_49
REMARK    3  A    between atoms: C_6  and  C_7
REMARK    4  A    between atoms: C_8  and  O_35
REMARK    5  A    between atoms: C_12  and  O_34
REMARK    6  A    between atoms: C_14  and  O_18
REMARK    7  A    between atoms: O_18  and  C_19
REMARK    8  A    between atoms: C_21  and  O_33
REMARK    9  A    between atoms: C_22  and  O_32
REMARK   10  A    between atoms: C_24  and  O_31
REMARK   11  A    between atoms: C_26  and  C_28
REMARK   12  A    between atoms: C_28  and  O_30
REMARK   13  A    between atoms: O_35  and  C_36
REMARK   14  A    between atoms: C_38  and  O_48
REMARK   15  A    between atoms: C_39  and  O_47
REMARK   16  A    between atoms: C_40  and  O_46
REMARK   17  A    between atoms: C_42  and  C_44
REMARK   18  A    between atoms: C_44  and  O_45
REMARK                            x       y       z     vdW  Elec       q    Type
REMARK                         _______ _______ _______ _____ _____    ______ ____
ROOT
ATOM      1  C   UNL     1       7.346   1.403  24.786  0.00  0.00    +0.181 A 
ATOM      2  O   UNL     1       6.505   0.320  24.560  0.00  0.00    -0.451 OA
ATOM      3  C   UNL     1       6.939  -0.726  23.799  0.00  0.00    +0.147 A 
ATOM      4  C   UNL     1       8.137  -0.723  23.110  0.00  0.00    +0.109 A 
ATOM      5  C   UNL     1       8.456  -1.848  22.336  0.00  0.00    +0.135 A 
ATOM      6  C   UNL     1       7.638  -2.995  22.350  0.00  0.00    +0.092 A 
ATOM      7  C   UNL     1       6.481  -3.022  23.131  0.00  0.00    +0.131 A 
ATOM      8  C   UNL     1       9.020   0.455  23.286  0.00  0.00    +0.238 A 
ATOM      9  O   UNL     1      10.106   0.514  22.713  0.00  0.00    -0.283 OA
ATOM     10  C   UNL     1       6.104  -1.846  23.790  0.00  0.00    +0.093 A 
ATOM     11  C   UNL     1       8.571   1.535  24.229  0.00  0.00    +0.214 A 
ENDROOT
BRANCH   1  13
ATOM     12  C   UNL     1       5.983   3.444  25.491  0.00  0.00    +0.015 A 
ATOM     13  C   UNL     1       6.794   2.341  25.809  0.00  0.00    +0.025 A 
ATOM     14  C   UNL     1       7.214   2.218  27.145  0.00  0.00    +0.060 A 
ATOM     15  C   UNL     1       7.023   3.270  28.033  0.00  0.00    +0.159 A 
ATOM     16  C   UNL     1       6.427   4.452  27.617  0.00  0.00    +0.158 A 
ATOM     17  C   UNL     1       5.858   4.531  26.360  0.00  0.00    +0.050 A 
BRANCH  16  18
ATOM     18  O   UNL     1       6.446   5.523  28.463  0.00  0.00    -0.503 OA
ATOM     19  H   UNL     1       7.132   6.134  28.137  0.00  0.00    +0.292 HD
ENDBRANCH  16  18
BRANCH  15  20
ATOM     20  O   UNL     1       7.488   3.155  29.310  0.00  0.00    -0.503 OA
ATOM     21  H   UNL     1       7.742   4.067  29.557  0.00  0.00    +0.292 HD
ENDBRANCH  15  20
ENDBRANCH   1  13
BRANCH   5  22
ATOM     22  O   UNL     1       9.576  -1.916  21.552  0.00  0.00    -0.506 OA
ATOM     23  H   UNL     1       9.452  -2.621  20.883  0.00  0.00    +0.292 HD
ENDBRANCH   5  22
BRANCH  11  24
ATOM     24  O   UNL     1       9.295   2.713  24.320  0.00  0.00    -0.453 OA
BRANCH  24  25
ATOM     25  C   UNL     1       9.573   3.538  23.170  0.00  0.00    +0.340 C 
ATOM     26  O   UNL     1      10.985   3.816  23.031  0.00  0.00    -0.331 OA
ATOM     27  C   UNL     1      11.619   4.783  23.920  0.00  0.00    +0.179 C 
ATOM     28  C   UNL     1      10.734   5.772  24.711  0.00  0.00    +0.177 C 
ATOM     29  C   UNL     1       9.258   5.398  24.737  0.00  0.00    +0.180 C 
ATOM     30  C   UNL     1       8.860   4.886  23.343  0.00  0.00    +0.214 C 
BRANCH  30  31
ATOM     31  O   UNL     1       7.441   4.853  23.224  0.00  0.00    -0.383 OA
ATOM     32  H   UNL     1       7.118   3.950  23.437  0.00  0.00    +0.210 HD
ENDBRANCH  30  31
BRANCH  29  33
ATOM     33  O   UNL     1       8.504   6.560  25.114  0.00  0.00    -0.386 OA
ATOM     34  H   UNL     1       8.488   6.547  26.093  0.00  0.00    +0.210 HD
ENDBRANCH  29  33
BRANCH  28  35
ATOM     35  O   UNL     1      10.824   7.108  24.186  0.00  0.00    -0.386 OA
ATOM     36  H   UNL     1      10.185   7.115  23.438  0.00  0.00    +0.210 HD
ENDBRANCH  28  35
BRANCH  27  37
ATOM     37  C   UNL     1      12.669   5.535  23.073  0.00  0.00    +0.190 C 
BRANCH  37  38
ATOM     38  O   UNL     1      13.968   4.997  23.331  0.00  0.00    -0.392 OA
ATOM     39  H   UNL     1      13.966   4.121  22.899  0.00  0.00    +0.210 HD
ENDBRANCH  37  38
ENDBRANCH  27  37
ENDBRANCH  24  25
ENDBRANCH  11  24
BRANCH   7  40
ATOM     40  O   UNL     1       5.813  -4.231  23.244  0.00  0.00    -0.461 OA
BRANCH  40  41
ATOM     41  C   UNL     1       4.901  -4.301  24.364  0.00  0.00    +0.340 C 
ATOM     42  O   UNL     1       5.644  -4.379  25.594  0.00  0.00    -0.322 OA
ATOM     43  C   UNL     1       6.172  -5.702  25.816  0.00  0.00    +0.261 C 
ATOM     44  C   UNL     1       5.010  -6.646  26.107  0.00  0.00    +0.185 C 
ATOM     45  C   UNL     1       4.192  -6.779  24.823  0.00  0.00    +0.180 C 
ATOM     46  C   UNL     1       3.799  -5.399  24.258  0.00  0.00    +0.214 C 
BRANCH  46  47
ATOM     47  O   UNL     1       3.276  -5.514  22.932  0.00  0.00    -0.383 OA
ATOM     48  H   UNL     1       3.869  -6.104  22.427  0.00  0.00    +0.210 HD
ENDBRANCH  46  47
BRANCH  45  49
ATOM     49  O   UNL     1       4.861  -7.558  23.844  0.00  0.00    -0.386 OA
ATOM     50  H   UNL     1       4.380  -7.523  23.001  0.00  0.00    +0.210 HD
ENDBRANCH  45  49
BRANCH  44  51
ATOM     51  O   UNL     1       4.183  -6.058  27.125  0.00  0.00    -0.386 OA
ATOM     52  H   UNL     1       4.476  -5.139  27.263  0.00  0.00    +0.210 HD
ENDBRANCH  44  51
BRANCH  43  53
ATOM     53  C   UNL     1       7.161  -5.683  26.971  0.00  0.00    +0.337 C 
ATOM     54  O   UNL     1       6.943  -6.102  28.093  0.00  0.00    -0.248 OA
BRANCH  53  55
ATOM     55  O   UNL     1       8.373  -5.194  26.584  0.00  0.00    -0.479 OA
ATOM     56  H   UNL     1       8.344  -4.214  26.676  0.00  0.00    +0.295 HD
ENDBRANCH  53  55
ENDBRANCH  43  53
ENDBRANCH  40  41
ENDBRANCH   7  40
TORSDOF 18
ENDMDL
MODEL 4
REMARK VINA RESULT:      -6.9      2.282      9.682
REMARK  Name = 
REMARK  18 active torsions:
REMARK  status: ('A' for Active; 'I' for Inactive)
REMARK    1  A    between atoms: C_3  and  O_50
REMARK    2  A    between atoms: C_4  and  O_49
REMARK    3  A    between atoms: C_6  and  C_7
REMARK    4  A    between atoms: C_8  and  O_35
REMARK    5  A    between atoms: C_12  and  O_34
REMARK    6  A    between atoms: C_14  and  O_18
REMARK    7  A    between atoms: O_18  and  C_19
REMARK    8  A    between atoms: C_21  and  O_33
REMARK    9  A    between atoms: C_22  and  O_32
REMARK   10  A    between atoms: C_24  and  O_31
REMARK   11  A    between atoms: C_26  and  C_28
REMARK   12  A    between atoms: C_28  and  O_30
REMARK   13  A    between atoms: O_35  and  C_36
REMARK   14  A    between atoms: C_38  and  O_48
REMARK   15  A    between atoms: C_39  and  O_47
REMARK   16  A    between atoms: C_40  and  O_46
REMARK   17  A    between atoms: C_42  and  C_44
REMARK   18  A    between atoms: C_44  and  O_45
REMARK                            x       y       z     vdW  Elec       q    Type
REMARK                         _______ _______ _______ _____ _____    ______ ____
ROOT
ATOM      1  C   UNL     1       6.692  -1.409  25.139  0.00  0.00    +0.181 A 
ATOM      2  O   UNL     1       7.360  -0.199  25.281  0.00  0.00    -0.451 OA
ATOM      3  C   UNL     1       8.074   0.307  24.234  0.00  0.00    +0.147 A 
ATOM      4  C   UNL     1       8.292  -0.382  23.056  0.00  0.00    +0.109 A 
ATOM      5  C   UNL     1       9.070   0.235  22.065  0.00  0.00    +0.135 A 
ATOM      6  C   UNL     1       9.518   1.561  22.215  0.00  0.00    +0.092 A 
ATOM      7  C   UNL     1       9.204   2.282  23.368  0.00  0.00    +0.131 A 
ATOM      8  C   UNL     1       7.641  -1.706  22.912  0.00  0.00    +0.238 A 
ATOM      9  O   UNL     1       7.782  -2.365  21.883  0.00  0.00    -0.283 OA
ATOM     10  C   UNL     1       8.545   1.611  24.405  0.00  0.00    +0.093 A 
ATOM     11  C   UNL     1       6.760  -2.181  24.031  0.00  0.00    +0.214 A 
ENDROOT
BRANCH   1  13
ATOM     12  C   UNL     1       6.002  -2.759  27.193  0.00  0.00    +0.015 A 
ATOM     13  C   UNL     1       5.795  -1.696  26.298  0.00  0.00    +0.025 A 
ATOM     14  C   UNL     1       4.598  -0.969  26.432  0.00  0.00    +0.060 A 
ATOM     15  C   UNL     1       3.585  -1.444  27.255  0.00  0.00    +0.159 A 
ATOM     16  C   UNL     1       3.733  -2.638  27.947  0.00  0.00    +0.158 A 
ATOM     17  C   UNL     1       4.957  -3.279  27.962  0.00  0.00    +0.050 A 
BRANCH  16  18
ATOM     18  O   UNL     1       2.642  -3.164  28.577  0.00  0.00    -0.503 OA
ATOM     19  H   UNL     1       1.905  -3.147  27.937  0.00  0.00    +0.292 HD
ENDBRANCH  16  18
BRANCH  15  20
ATOM     20  O   UNL     1       2.410  -0.756  27.328  0.00  0.00    -0.503 OA
ATOM     21  H   UNL     1       2.572  -0.074  28.011  0.00  0.00    +0.292 HD
ENDBRANCH  15  20
ENDBRANCH   1  13
BRANCH   5  22
ATOM     22  O   UNL     1       9.414  -0.390  20.896  0.00  0.00    -0.506 OA
ATOM     23  H   UNL     1       8.844  -0.049  20.176  0.00  0.00    +0.292 HD
ENDBRANCH   5  22
BRANCH  11  24
ATOM     24  O   UNL     1       6.242  -3.466  24.001  0.00  0.00    -0.453 OA
BRANCH  24  25
ATOM     25  C   UNL     1       4.917  -3.753  23.507  0.00  0.00    +0.340 C 
ATOM     26  O   UNL     1       4.026  -4.179  24.562  0.00  0.00    -0.331 OA
ATOM     27  C   UNL     1       4.150  -5.526  25.108  0.00  0.00    +0.179 C 
ATOM     28  C   UNL     1       4.934  -6.593  24.311  0.00  0.00    +0.177 C 
ATOM     29  C   UNL     1       5.793  -6.021  23.191  0.00  0.00    +0.180 C 
ATOM     30  C   UNL     1       5.003  -4.901  22.493  0.00  0.00    +0.214 C 
BRANCH  30  31
ATOM     31  O   UNL     1       5.614  -4.580  21.247  0.00  0.00    -0.383 OA
ATOM     32  H   UNL     1       6.520  -4.956  21.223  0.00  0.00    +0.210 HD
ENDBRANCH  30  31
BRANCH  29  33
ATOM     33  O   UNL     1       6.122  -7.086  22.286  0.00  0.00    -0.386 OA
ATOM     34  H   UNL     1       6.470  -7.805  22.854  0.00  0.00    +0.210 HD
ENDBRANCH  29  33
BRANCH  28  35
ATOM     35  O   UNL     1       4.058  -7.567  23.719  0.00  0.00    -0.386 OA
ATOM     36  H   UNL     1       3.274  -7.578  24.312  0.00  0.00    +0.210 HD
ENDBRANCH  28  35
BRANCH  27  37
ATOM     37  C   UNL     1       2.715  -6.008  25.416  0.00  0.00    +0.190 C 
BRANCH  37  38
ATOM     38  O   UNL     1       1.870  -5.747  24.293  0.00  0.00    -0.392 OA
ATOM     39  H   UNL     1       2.478  -5.468  23.581  0.00  0.00    +0.210 HD
ENDBRANCH  37  38
ENDBRANCH  27  37
ENDBRANCH  24  25
ENDBRANCH  11  24
BRANCH   7  40
ATOM     40  O   UNL     1       9.519   3.632  23.386  0.00  0.00    -0.461 OA
BRANCH  40  41
ATOM     41  C   UNL     1       8.665   4.427  24.240  0.00  0.00    +0.340 C 
ATOM     42  O   UNL     1       7.338   3.872  24.258  0.00  0.00    -0.322 OA
ATOM     43  C   UNL     1       6.605   4.196  23.060  0.00  0.00    +0.261 C 
ATOM     44  C   UNL     1       6.304   5.691  23.065  0.00  0.00    +0.185 C 
ATOM     45  C   UNL     1       7.633   6.429  22.904  0.00  0.00    +0.180 C 
ATOM     46  C   UNL     1       8.669   5.959  23.944  0.00  0.00    +0.214 C 
BRANCH  46  47
ATOM     47  O   UNL     1       9.977   6.445  23.626  0.00  0.00    -0.383 OA
ATOM     48  H   UNL     1      10.627   5.837  24.028  0.00  0.00    +0.210 HD
ENDBRANCH  46  47
BRANCH  45  49
ATOM     49  O   UNL     1       8.148   6.319  21.587  0.00  0.00    -0.386 OA
ATOM     50  H   UNL     1       7.694   6.942  20.996  0.00  0.00    +0.210 HD
ENDBRANCH  45  49
BRANCH  44  51
ATOM     51  O   UNL     1       5.730   6.040  24.335  0.00  0.00    -0.386 OA
ATOM     52  H   UNL     1       5.982   5.357  24.983  0.00  0.00    +0.210 HD
ENDBRANCH  44  51
BRANCH  43  53
ATOM     53  C   UNL     1       5.322   3.382  22.995  0.00  0.00    +0.337 C 
ATOM     54  O   UNL     1       4.209   3.797  23.259  0.00  0.00    -0.248 OA
BRANCH  53  55
ATOM     55  O   UNL     1       5.554   2.121  22.531  0.00  0.00    -0.479 OA
ATOM     56  H   UNL     1       6.167   1.678  23.161  0.00  0.00    +0.295 HD
ENDBRANCH  53  55
ENDBRANCH  43  53
ENDBRANCH  40  41
ENDBRANCH   7  40
TORSDOF 18
ENDMDL
MODEL 5
REMARK VINA RESULT:      -6.9      1.303      2.690
REMARK  Name = 
REMARK  18 active torsions:
REMARK  status: ('A' for Active; 'I' for Inactive)
REMARK    1  A    between atoms: C_3  and  O_50
REMARK    2  A    between atoms: C_4  and  O_49
REMARK    3  A    between atoms: C_6  and  C_7
REMARK    4  A    between atoms: C_8  and  O_35
REMARK    5  A    between atoms: C_12  and  O_34
REMARK    6  A    between atoms: C_14  and  O_18
REMARK    7  A    between atoms: O_18  and  C_19
REMARK    8  A    between atoms: C_21  and  O_33
REMARK    9  A    between atoms: C_22  and  O_32
REMARK   10  A    between atoms: C_24  and  O_31
REMARK   11  A    between atoms: C_26  and  C_28
REMARK   12  A    between atoms: C_28  and  O_30
REMARK   13  A    between atoms: O_35  and  C_36
REMARK   14  A    between atoms: C_38  and  O_48
REMARK   15  A    between atoms: C_39  and  O_47
REMARK   16  A    between atoms: C_40  and  O_46
REMARK   17  A    between atoms: C_42  and  C_44
REMARK   18  A    between atoms: C_44  and  O_45
REMARK                            x       y       z     vdW  Elec       q    Type
REMARK                         _______ _______ _______ _____ _____    ______ ____
ROOT
ATOM      1  C   UNL     1       7.443   0.829  25.491  0.00  0.00    +0.181 A 
ATOM      2  O   UNL     1       6.696  -0.337  25.614  0.00  0.00    -0.451 OA
ATOM      3  C   UNL     1       7.281  -1.544  25.362  0.00  0.00    +0.147 A 
ATOM      4  C   UNL     1       8.558  -1.681  24.853  0.00  0.00    +0.109 A 
ATOM      5  C   UNL     1       9.034  -2.978  24.608  0.00  0.00    +0.135 A 
ATOM      6  C   UNL     1       8.282  -4.109  24.977  0.00  0.00    +0.092 A 
ATOM      7  C   UNL     1       7.035  -3.956  25.585  0.00  0.00    +0.131 A 
ATOM      8  C   UNL     1       9.348  -0.443  24.653  0.00  0.00    +0.238 A 
ATOM      9  O   UNL     1      10.496  -0.496  24.217  0.00  0.00    -0.283 OA
ATOM     10  C   UNL     1       6.513  -2.662  25.698  0.00  0.00    +0.093 A 
ATOM     11  C   UNL     1       8.723   0.862  25.056  0.00  0.00    +0.214 A 
ENDROOT
BRANCH   1  13
ATOM     12  C   UNL     1       5.613   2.605  25.358  0.00  0.00    +0.015 A 
ATOM     13  C   UNL     1       6.712   2.023  26.012  0.00  0.00    +0.025 A 
ATOM     14  C   UNL     1       7.223   2.701  27.134  0.00  0.00    +0.060 A 
ATOM     15  C   UNL     1       6.800   3.994  27.416  0.00  0.00    +0.159 A 
ATOM     16  C   UNL     1       5.880   4.635  26.599  0.00  0.00    +0.158 A 
ATOM     17  C   UNL     1       5.242   3.932  25.595  0.00  0.00    +0.050 A 
BRANCH  16  18
ATOM     18  O   UNL     1       5.651   5.966  26.797  0.00  0.00    -0.503 OA
ATOM     19  H   UNL     1       5.280   6.321  25.967  0.00  0.00    +0.292 HD
ENDBRANCH  16  18
BRANCH  15  20
ATOM     20  O   UNL     1       7.349   4.657  28.474  0.00  0.00    -0.503 OA
ATOM     21  H   UNL     1       7.900   5.353  28.062  0.00  0.00    +0.292 HD
ENDBRANCH  15  20
ENDBRANCH   1  13
BRANCH   5  22
ATOM     22  O   UNL     1      10.252  -3.224  24.031  0.00  0.00    -0.506 OA
ATOM     23  H   UNL     1      10.867  -3.552  24.719  0.00  0.00    +0.292 HD
ENDBRANCH   5  22
BRANCH  11  24
ATOM     24  O   UNL     1       9.366   2.053  24.762  0.00  0.00    -0.453 OA
BRANCH  24  25
ATOM     25  C   UNL     1       9.737   2.418  23.416  0.00  0.00    +0.340 C 
ATOM     26  O   UNL     1      11.059   2.999  23.357  0.00  0.00    -0.331 OA
ATOM     27  C   UNL     1      11.266   4.366  23.821  0.00  0.00    +0.179 C 
ATOM     28  C   UNL     1      10.044   5.298  23.989  0.00  0.00    +0.177 C 
ATOM     29  C   UNL     1       8.707   4.571  23.980  0.00  0.00    +0.180 C 
ATOM     30  C   UNL     1       8.752   3.476  22.901  0.00  0.00    +0.214 C 
BRANCH  30  31
ATOM     31  O   UNL     1       7.435   3.010  22.624  0.00  0.00    -0.383 OA
ATOM     32  H   UNL     1       6.830   3.303  23.339  0.00  0.00    +0.210 HD
ENDBRANCH  30  31
BRANCH  29  33
ATOM     33  O   UNL     1       7.672   5.532  23.720  0.00  0.00    -0.386 OA
ATOM     34  H   UNL     1       8.144   6.374  23.549  0.00  0.00    +0.210 HD
ENDBRANCH  29  33
BRANCH  28  35
ATOM     35  O   UNL     1       9.990   6.299  22.958  0.00  0.00    -0.386 OA
ATOM     36  H   UNL     1       9.082   6.216  22.590  0.00  0.00    +0.210 HD
ENDBRANCH  28  35
BRANCH  27  37
ATOM     37  C   UNL     1      12.316   4.994  22.877  0.00  0.00    +0.190 C 
BRANCH  37  38
ATOM     38  O   UNL     1      13.604   4.951  23.496  0.00  0.00    -0.392 OA
ATOM     39  H   UNL     1      13.681   5.799  23.974  0.00  0.00    +0.210 HD
ENDBRANCH  37  38
ENDBRANCH  27  37
ENDBRANCH  24  25
ENDBRANCH  11  24
BRANCH   7  40
ATOM     40  O   UNL     1       6.420  -5.094  26.083  0.00  0.00    -0.461 OA
BRANCH  40  41
ATOM     41  C   UNL     1       6.024  -6.044  25.068  0.00  0.00    +0.340 C 
ATOM     42  O   UNL     1       6.173  -5.456  23.763  0.00  0.00    -0.322 OA
ATOM     43  C   UNL     1       5.101  -4.541  23.463  0.00  0.00    +0.261 C 
ATOM     44  C   UNL     1       3.815  -5.341  23.285  0.00  0.00    +0.185 C 
ATOM     45  C   UNL     1       3.442  -5.922  24.650  0.00  0.00    +0.180 C 
ATOM     46  C   UNL     1       4.621  -6.693  25.276  0.00  0.00    +0.214 C 
BRANCH  46  47
ATOM     47  O   UNL     1       4.365  -6.999  26.650  0.00  0.00    -0.383 OA
ATOM     48  H   UNL     1       3.770  -7.774  26.678  0.00  0.00    +0.210 HD
ENDBRANCH  46  47
BRANCH  45  49
ATOM     49  O   UNL     1       2.955  -4.927  25.537  0.00  0.00    -0.386 OA
ATOM     50  H   UNL     1       3.620  -4.728  26.215  0.00  0.00    +0.210 HD
ENDBRANCH  45  49
BRANCH  44  51
ATOM     51  O   UNL     1       4.068  -6.423  22.374  0.00  0.00    -0.386 OA
ATOM     52  H   UNL     1       4.512  -6.061  21.586  0.00  0.00    +0.210 HD
ENDBRANCH  44  51
BRANCH  43  53
ATOM     53  C   UNL     1       5.427  -3.748  22.207  0.00  0.00    +0.337 C 
ATOM     54  O   UNL     1       5.550  -4.215  21.090  0.00  0.00    -0.248 OA
BRANCH  53  55
ATOM     55  O   UNL     1       5.500  -2.411  22.465  0.00  0.00    -0.479 OA
ATOM     56  H   UNL     1       6.110  -2.011  21.803  0.00  0.00    +0.295 HD
ENDBRANCH  53  55
ENDBRANCH  43  53
ENDBRANCH  40  41
ENDBRANCH   7  40
TORSDOF 18
ENDMDL
MODEL 6
REMARK VINA RESULT:      -6.8      2.437      4.765
REMARK  Name = 
REMARK  18 active torsions:
REMARK  status: ('A' for Active; 'I' for Inactive)
REMARK    1  A    between atoms: C_3  and  O_50
REMARK    2  A    between atoms: C_4  and  O_49
REMARK    3  A    between atoms: C_6  and  C_7
REMARK    4  A    between atoms: C_8  and  O_35
REMARK    5  A    between atoms: C_12  and  O_34
REMARK    6  A    between atoms: C_14  and  O_18
REMARK    7  A    between atoms: O_18  and  C_19
REMARK    8  A    between atoms: C_21  and  O_33
REMARK    9  A    between atoms: C_22  and  O_32
REMARK   10  A    between atoms: C_24  and  O_31
REMARK   11  A    between atoms: C_26  and  C_28
REMARK   12  A    between atoms: C_28  and  O_30
REMARK   13  A    between atoms: O_35  and  C_36
REMARK   14  A    between atoms: C_38  and  O_48
REMARK   15  A    between atoms: C_39  and  O_47
REMARK   16  A    between atoms: C_40  and  O_46
REMARK   17  A    between atoms: C_42  and  C_44
REMARK   18  A    between atoms: C_44  and  O_45
REMARK                            x       y       z     vdW  Elec       q    Type
REMARK                         _______ _______ _______ _____ _____    ______ ____
ROOT
ATOM      1  C   UNL     1       7.435   1.033  25.868  0.00  0.00    +0.181 A 
ATOM      2  O   UNL     1       6.996  -0.251  26.167  0.00  0.00    -0.451 OA
ATOM      3  C   UNL     1       6.022  -0.432  27.105  0.00  0.00    +0.147 A 
ATOM      4  C   UNL     1       5.523   0.588  27.892  0.00  0.00    +0.109 A 
ATOM      5  C   UNL     1       4.543   0.267  28.844  0.00  0.00    +0.135 A 
ATOM      6  C   UNL     1       3.999  -1.029  28.917  0.00  0.00    +0.092 A 
ATOM      7  C   UNL     1       4.441  -2.026  28.046  0.00  0.00    +0.131 A 
ATOM      8  C   UNL     1       6.028   1.957  27.633  0.00  0.00    +0.238 A 
ATOM      9  O   UNL     1       5.614   2.912  28.288  0.00  0.00    -0.283 OA
ATOM     10  C   UNL     1       5.512  -1.730  27.196  0.00  0.00    +0.093 A 
ATOM     11  C   UNL     1       7.008   2.144  26.511  0.00  0.00    +0.214 A 
ENDROOT
BRANCH   1  13
ATOM     12  C   UNL     1       9.738   1.054  24.766  0.00  0.00    +0.015 A 
ATOM     13  C   UNL     1       8.336   1.058  24.677  0.00  0.00    +0.025 A 
ATOM     14  C   UNL     1       7.774   1.241  23.400  0.00  0.00    +0.060 A 
ATOM     15  C   UNL     1       8.579   1.634  22.338  0.00  0.00    +0.159 A 
ATOM     16  C   UNL     1       9.937   1.857  22.519  0.00  0.00    +0.158 A 
ATOM     17  C   UNL     1      10.536   1.522  23.718  0.00  0.00    +0.050 A 
BRANCH  16  18
ATOM     18  O   UNL     1      10.642   2.435  21.503  0.00  0.00    -0.503 OA
ATOM     19  H   UNL     1      10.181   2.215  20.672  0.00  0.00    +0.292 HD
ENDBRANCH  16  18
BRANCH  15  20
ATOM     20  O   UNL     1       8.008   1.863  21.120  0.00  0.00    -0.503 OA
ATOM     21  H   UNL     1       7.144   2.269  21.333  0.00  0.00    +0.292 HD
ENDBRANCH  15  20
ENDBRANCH   1  13
BRANCH   5  22
ATOM     22  O   UNL     1       4.040   1.184  29.728  0.00  0.00    -0.506 OA
ATOM     23  H   UNL     1       3.069   1.067  29.787  0.00  0.00    +0.292 HD
ENDBRANCH   5  22
BRANCH  11  24
ATOM     24  O   UNL     1       7.609   3.377  26.320  0.00  0.00    -0.453 OA
BRANCH  24  25
ATOM     25  C   UNL     1       6.852   4.564  26.004  0.00  0.00    +0.340 C 
ATOM     26  O   UNL     1       6.454   4.599  24.615  0.00  0.00    -0.331 OA
ATOM     27  C   UNL     1       7.443   4.917  23.591  0.00  0.00    +0.179 C 
ATOM     28  C   UNL     1       8.771   5.589  24.008  0.00  0.00    +0.177 C 
ATOM     29  C   UNL     1       9.049   5.533  25.504  0.00  0.00    +0.180 C 
ATOM     30  C   UNL     1       7.733   5.796  26.256  0.00  0.00    +0.214 C 
BRANCH  30  31
ATOM     31  O   UNL     1       8.004   6.091  27.623  0.00  0.00    -0.383 OA
ATOM     32  H   UNL     1       7.290   5.718  28.183  0.00  0.00    +0.210 HD
ENDBRANCH  30  31
BRANCH  29  33
ATOM     33  O   UNL     1      10.046   6.519  25.815  0.00  0.00    -0.386 OA
ATOM     34  H   UNL     1      10.875   6.012  25.938  0.00  0.00    +0.210 HD
ENDBRANCH  29  33
BRANCH  28  35
ATOM     35  O   UNL     1       8.815   6.972  23.620  0.00  0.00    -0.386 OA
ATOM     36  H   UNL     1       8.745   6.949  22.639  0.00  0.00    +0.210 HD
ENDBRANCH  28  35
BRANCH  27  37
ATOM     37  C   UNL     1       6.711   5.755  22.520  0.00  0.00    +0.190 C 
BRANCH  37  38
ATOM     38  O   UNL     1       7.578   5.968  21.403  0.00  0.00    -0.392 OA
ATOM     39  H   UNL     1       7.127   6.645  20.863  0.00  0.00    +0.210 HD
ENDBRANCH  37  38
ENDBRANCH  27  37
ENDBRANCH  24  25
ENDBRANCH  11  24
BRANCH   7  40
ATOM     40  O   UNL     1       3.751  -3.228  28.045  0.00  0.00    -0.461 OA
BRANCH  40  41
ATOM     41  C   UNL     1       4.338  -4.248  28.886  0.00  0.00    +0.340 C 
ATOM     42  O   UNL     1       5.645  -4.594  28.394  0.00  0.00    -0.322 OA
ATOM     43  C   UNL     1       5.572  -5.452  27.238  0.00  0.00    +0.261 C 
ATOM     44  C   UNL     1       5.047  -6.815  27.678  0.00  0.00    +0.185 C 
ATOM     45  C   UNL     1       3.590  -6.632  28.103  0.00  0.00    +0.180 C 
ATOM     46  C   UNL     1       3.442  -5.499  29.138  0.00  0.00    +0.214 C 
BRANCH  46  47
ATOM     47  O   UNL     1       2.068  -5.151  29.329  0.00  0.00    -0.383 OA
ATOM     48  H   UNL     1       2.038  -4.280  29.772  0.00  0.00    +0.210 HD
ENDBRANCH  46  47
BRANCH  45  49
ATOM     49  O   UNL     1       2.733  -6.421  26.992  0.00  0.00    -0.386 OA
ATOM     50  H   UNL     1       2.061  -7.120  26.949  0.00  0.00    +0.210 HD
ENDBRANCH  45  49
BRANCH  44  51
ATOM     51  O   UNL     1       5.809  -7.257  28.813  0.00  0.00    -0.386 OA
ATOM     52  H   UNL     1       6.085  -8.178  28.656  0.00  0.00    +0.210 HD
ENDBRANCH  44  51
BRANCH  43  53
ATOM     53  C   UNL     1       6.943  -5.579  26.593  0.00  0.00    +0.337 C 
ATOM     54  O   UNL     1       7.197  -5.352  25.424  0.00  0.00    -0.248 OA
BRANCH  53  55
ATOM     55  O   UNL     1       7.895  -5.919  27.507  0.00  0.00    -0.479 OA
ATOM     56  H   UNL     1       8.495  -6.577  27.085  0.00  0.00    +0.295 HD
ENDBRANCH  53  55
ENDBRANCH  43  53
ENDBRANCH  40  41
ENDBRANCH   7  40
TORSDOF 18
ENDMDL
MODEL 7
REMARK VINA RESULT:      -6.7      2.138      4.722
REMARK  Name = 
REMARK  18 active torsions:
REMARK  status: ('A' for Active; 'I' for Inactive)
REMARK    1  A    between atoms: C_3  and  O_50
REMARK    2  A    between atoms: C_4  and  O_49
REMARK    3  A    between atoms: C_6  and  C_7
REMARK    4  A    between atoms: C_8  and  O_35
REMARK    5  A    between atoms: C_12  and  O_34
REMARK    6  A    between atoms: C_14  and  O_18
REMARK    7  A    between atoms: O_18  and  C_19
REMARK    8  A    between atoms: C_21  and  O_33
REMARK    9  A    between atoms: C_22  and  O_32
REMARK   10  A    between atoms: C_24  and  O_31
REMARK   11  A    between atoms: C_26  and  C_28
REMARK   12  A    between atoms: C_28  and  O_30
REMARK   13  A    between atoms: O_35  and  C_36
REMARK   14  A    between atoms: C_38  and  O_48
REMARK   15  A    between atoms: C_39  and  O_47
REMARK   16  A    between atoms: C_40  and  O_46
REMARK   17  A    between atoms: C_42  and  C_44
REMARK   18  A    between atoms: C_44  and  O_45
REMARK                            x       y       z     vdW  Elec       q    Type
REMARK                         _______ _______ _______ _____ _____    ______ ____
ROOT
ATOM      1  C   UNL     1       7.605   0.471  25.683  0.00  0.00    +0.181 A 
ATOM      2  O   UNL     1       7.317  -0.879  25.845  0.00  0.00    -0.451 OA
ATOM      3  C   UNL     1       6.315  -1.261  26.687  0.00  0.00    +0.147 A 
ATOM      4  C   UNL     1       5.636  -0.384  27.512  0.00  0.00    +0.109 A 
ATOM      5  C   UNL     1       4.646  -0.906  28.357  0.00  0.00    +0.135 A 
ATOM      6  C   UNL     1       4.271  -2.261  28.286  0.00  0.00    +0.092 A 
ATOM      7  C   UNL     1       4.895  -3.115  27.376  0.00  0.00    +0.131 A 
ATOM      8  C   UNL     1       5.975   1.055  27.401  0.00  0.00    +0.238 A 
ATOM      9  O   UNL     1       5.398   1.890  28.095  0.00  0.00    -0.283 OA
ATOM     10  C   UNL     1       5.973  -2.615  26.637  0.00  0.00    +0.093 A 
ATOM     11  C   UNL     1       6.995   1.459  26.375  0.00  0.00    +0.214 A 
ENDROOT
BRANCH   1  13
ATOM     12  C   UNL     1       9.938   0.968  24.773  0.00  0.00    +0.015 A 
ATOM     13  C   UNL     1       8.571   0.711  24.570  0.00  0.00    +0.025 A 
ATOM     14  C   UNL     1       8.084   0.836  23.256  0.00  0.00    +0.060 A 
ATOM     15  C   UNL     1       8.877   1.414  22.273  0.00  0.00    +0.159 A 
ATOM     16  C   UNL     1      10.150   1.882  22.570  0.00  0.00    +0.158 A 
ATOM     17  C   UNL     1      10.709   1.618  23.806  0.00  0.00    +0.050 A 
BRANCH  16  18
ATOM     18  O   UNL     1      10.806   2.621  21.629  0.00  0.00    -0.503 OA
ATOM     19  H   UNL     1      10.531   3.549  21.750  0.00  0.00    +0.292 HD
ENDBRANCH  16  18
BRANCH  15  20
ATOM     20  O   UNL     1       8.367   1.579  21.019  0.00  0.00    -0.503 OA
ATOM     21  H   UNL     1       9.156   1.686  20.450  0.00  0.00    +0.292 HD
ENDBRANCH  15  20
ENDBRANCH   1  13
BRANCH   5  22
ATOM     22  O   UNL     1       3.970  -0.140  29.270  0.00  0.00    -0.506 OA
ATOM     23  H   UNL     1       3.191  -0.642  29.589  0.00  0.00    +0.292 HD
ENDBRANCH   5  22
BRANCH  11  24
ATOM     24  O   UNL     1       7.443   2.770  26.329  0.00  0.00    -0.453 OA
BRANCH  24  25
ATOM     25  C   UNL     1       6.563   3.875  26.035  0.00  0.00    +0.340 C 
ATOM     26  O   UNL     1       6.274   3.976  24.623  0.00  0.00    -0.331 OA
ATOM     27  C   UNL     1       7.290   4.499  23.716  0.00  0.00    +0.179 C 
ATOM     28  C   UNL     1       8.481   5.294  24.297  0.00  0.00    +0.177 C 
ATOM     29  C   UNL     1       8.646   5.149  25.803  0.00  0.00    +0.180 C 
ATOM     30  C   UNL     1       7.253   5.181  26.453  0.00  0.00    +0.214 C 
BRANCH  30  31
ATOM     31  O   UNL     1       7.375   5.393  27.856  0.00  0.00    -0.383 OA
ATOM     32  H   UNL     1       6.588   5.882  28.180  0.00  0.00    +0.210 HD
ENDBRANCH  30  31
BRANCH  29  33
ATOM     33  O   UNL     1       9.478   6.221  26.272  0.00  0.00    -0.386 OA
ATOM     34  H   UNL     1       9.829   6.645  25.461  0.00  0.00    +0.210 HD
ENDBRANCH  29  33
BRANCH  28  35
ATOM     35  O   UNL     1       8.373   6.700  24.015  0.00  0.00    -0.386 OA
ATOM     36  H   UNL     1       9.143   7.098  24.481  0.00  0.00    +0.210 HD
ENDBRANCH  28  35
BRANCH  27  37
ATOM     37  C   UNL     1       6.540   5.326  22.648  0.00  0.00    +0.190 C 
BRANCH  37  38
ATOM     38  O   UNL     1       7.397   5.550  21.526  0.00  0.00    -0.392 OA
ATOM     39  H   UNL     1       8.134   4.920  21.644  0.00  0.00    +0.210 HD
ENDBRANCH  37  38
ENDBRANCH  27  37
ENDBRANCH  24  25
ENDBRANCH  11  24
BRANCH   7  40
ATOM     40  O   UNL     1       4.368  -4.389  27.227  0.00  0.00    -0.461 OA
BRANCH  40  41
ATOM     41  C   UNL     1       5.122  -5.239  26.332  0.00  0.00    +0.340 C 
ATOM     42  O   UNL     1       4.727  -4.988  24.972  0.00  0.00    -0.322 OA
ATOM     43  C   UNL     1       3.466  -5.610  24.657  0.00  0.00    +0.261 C 
ATOM     44  C   UNL     1       3.661  -7.122  24.638  0.00  0.00    +0.185 C 
ATOM     45  C   UNL     1       3.952  -7.567  26.071  0.00  0.00    +0.180 C 
ATOM     46  C   UNL     1       5.109  -6.758  26.690  0.00  0.00    +0.214 C 
BRANCH  46  47
ATOM     47  O   UNL     1       5.199  -6.982  28.100  0.00  0.00    -0.383 OA
ATOM     48  H   UNL     1       4.497  -6.458  28.532  0.00  0.00    +0.210 HD
ENDBRANCH  46  47
BRANCH  45  49
ATOM     49  O   UNL     1       2.796  -7.511  26.891  0.00  0.00    -0.386 OA
ATOM     50  H   UNL     1       3.050  -7.479  27.828  0.00  0.00    +0.210 HD
ENDBRANCH  45  49
BRANCH  44  51
ATOM     51  O   UNL     1       4.800  -7.429  23.817  0.00  0.00    -0.386 OA
ATOM     52  H   UNL     1       4.487  -7.900  23.023  0.00  0.00    +0.210 HD
ENDBRANCH  44  51
BRANCH  43  53
ATOM     53  C   UNL     1       2.956  -5.110  23.314  0.00  0.00    +0.337 C 
ATOM     54  O   UNL     1       1.790  -5.079  22.968  0.00  0.00    -0.248 OA
BRANCH  53  55
ATOM     55  O   UNL     1       3.971  -4.623  22.545  0.00  0.00    -0.479 OA
ATOM     56  H   UNL     1       4.352  -3.842  23.009  0.00  0.00    +0.295 HD
ENDBRANCH  53  55
ENDBRANCH  43  53
ENDBRANCH  40  41
ENDBRANCH   7  40
TORSDOF 18
ENDMDL
MODEL 8
REMARK VINA RESULT:      -6.6      2.077     10.790
REMARK  Name = 
REMARK  18 active torsions:
REMARK  status: ('A' for Active; 'I' for Inactive)
REMARK    1  A    between atoms: C_3  and  O_50
REMARK    2  A    between atoms: C_4  and  O_49
REMARK    3  A    between atoms: C_6  and  C_7
REMARK    4  A    between atoms: C_8  and  O_35
REMARK    5  A    between atoms: C_12  and  O_34
REMARK    6  A    between atoms: C_14  and  O_18
REMARK    7  A    between atoms: O_18  and  C_19
REMARK    8  A    between atoms: C_21  and  O_33
REMARK    9  A    between atoms: C_22  and  O_32
REMARK   10  A    between atoms: C_24  and  O_31
REMARK   11  A    between atoms: C_26  and  C_28
REMARK   12  A    between atoms: C_28  and  O_30
REMARK   13  A    between atoms: O_35  and  C_36
REMARK   14  A    between atoms: C_38  and  O_48
REMARK   15  A    between atoms: C_39  and  O_47
REMARK   16  A    between atoms: C_40  and  O_46
REMARK   17  A    between atoms: C_42  and  C_44
REMARK   18  A    between atoms: C_44  and  O_45
REMARK                            x       y       z     vdW  Elec       q    Type
REMARK                         _______ _______ _______ _____ _____    ______ ____
ROOT
ATOM      1  C   UNL     1       5.896  -1.817  24.611  0.00  0.00    +0.181 A 
ATOM      2  O   UNL     1       6.018  -0.526  24.109  0.00  0.00    -0.451 OA
ATOM      3  C   UNL     1       5.702   0.539  24.901  0.00  0.00    +0.147 A 
ATOM      4  C   UNL     1       5.129   0.417  26.152  0.00  0.00    +0.109 A 
ATOM      5  C   UNL     1       4.823   1.591  26.855  0.00  0.00    +0.135 A 
ATOM      6  C   UNL     1       5.192   2.855  26.354  0.00  0.00    +0.092 A 
ATOM      7  C   UNL     1       5.863   2.957  25.134  0.00  0.00    +0.131 A 
ATOM      8  C   UNL     1       4.930  -0.955  26.678  0.00  0.00    +0.238 A 
ATOM      9  O   UNL     1       4.439  -1.134  27.791  0.00  0.00    -0.283 OA
ATOM     10  C   UNL     1       6.040   1.791  24.381  0.00  0.00    +0.093 A 
ATOM     11  C   UNL     1       5.402  -2.105  25.836  0.00  0.00    +0.214 A 
ENDROOT
BRANCH   1  13
ATOM     12  C   UNL     1       5.962  -3.132  22.423  0.00  0.00    +0.015 A 
ATOM     13  C   UNL     1       6.487  -2.836  23.693  0.00  0.00    +0.025 A 
ATOM     14  C   UNL     1       7.531  -3.654  24.161  0.00  0.00    +0.060 A 
ATOM     15  C   UNL     1       7.847  -4.829  23.491  0.00  0.00    +0.159 A 
ATOM     16  C   UNL     1       7.138  -5.216  22.362  0.00  0.00    +0.158 A 
ATOM     17  C   UNL     1       6.226  -4.350  21.791  0.00  0.00    +0.050 A 
BRANCH  16  18
ATOM     18  O   UNL     1       7.347  -6.469  21.862  0.00  0.00    -0.503 OA
ATOM     19  H   UNL     1       7.718  -7.009  22.584  0.00  0.00    +0.292 HD
ENDBRANCH  16  18
BRANCH  15  20
ATOM     20  O   UNL     1       8.824  -5.638  23.992  0.00  0.00    -0.503 OA
ATOM     21  H   UNL     1       9.135  -6.148  23.217  0.00  0.00    +0.292 HD
ENDBRANCH  15  20
ENDBRANCH   1  13
BRANCH   5  22
ATOM     22  O   UNL     1       4.182   1.586  28.065  0.00  0.00    -0.506 OA
ATOM     23  H   UNL     1       3.751   0.715  28.191  0.00  0.00    +0.292 HD
ENDBRANCH   5  22
BRANCH  11  24
ATOM     24  O   UNL     1       5.114  -3.405  26.223  0.00  0.00    -0.453 OA
BRANCH  24  25
ATOM     25  C   UNL     1       3.761  -3.885  26.365  0.00  0.00    +0.340 C 
ATOM     26  O   UNL     1       3.568  -4.601  27.605  0.00  0.00    -0.331 OA
ATOM     27  C   UNL     1       4.099  -5.953  27.746  0.00  0.00    +0.179 C 
ATOM     28  C   UNL     1       4.497  -6.742  26.478  0.00  0.00    +0.177 C 
ATOM     29  C   UNL     1       4.614  -5.883  25.226  0.00  0.00    +0.180 C 
ATOM     30  C   UNL     1       3.461  -4.865  25.223  0.00  0.00    +0.214 C 
BRANCH  30  31
ATOM     31  O   UNL     1       3.330  -4.283  23.929  0.00  0.00    -0.383 OA
ATOM     32  H   UNL     1       4.059  -3.643  23.786  0.00  0.00    +0.210 HD
ENDBRANCH  30  31
BRANCH  29  33
ATOM     33  O   UNL     1       4.567  -6.746  24.080  0.00  0.00    -0.386 OA
ATOM     34  H   UNL     1       4.212  -7.596  24.416  0.00  0.00    +0.210 HD
ENDBRANCH  29  33
BRANCH  28  35
ATOM     35  O   UNL     1       3.559  -7.792  26.186  0.00  0.00    -0.386 OA
ATOM     36  H   UNL     1       4.126  -8.568  25.976  0.00  0.00    +0.210 HD
ENDBRANCH  28  35
BRANCH  27  37
ATOM     37  C   UNL     1       3.072  -6.741  28.589  0.00  0.00    +0.190 C 
BRANCH  37  38
ATOM     38  O   UNL     1       1.750  -6.450  28.130  0.00  0.00    -0.392 OA
ATOM     39  H   UNL     1       1.251  -6.219  28.937  0.00  0.00    +0.210 HD
ENDBRANCH  37  38
ENDBRANCH  27  37
ENDBRANCH  24  25
ENDBRANCH  11  24
BRANCH   7  40
ATOM     40  O   UNL     1       6.355   4.203  24.776  0.00  0.00    -0.461 OA
BRANCH  40  41
ATOM     41  C   UNL     1       7.576   4.156  24.003  0.00  0.00    +0.340 C 
ATOM     42  O   UNL     1       8.671   4.661  24.788  0.00  0.00    -0.322 OA
ATOM     43  C   UNL     1       8.657   6.100  24.861  0.00  0.00    +0.261 C 
ATOM     44  C   UNL     1       8.994   6.660  23.482  0.00  0.00    +0.185 C 
ATOM     45  C   UNL     1       7.830   6.320  22.551  0.00  0.00    +0.180 C 
ATOM     46  C   UNL     1       7.495   4.816  22.592  0.00  0.00    +0.214 C 
BRANCH  46  47
ATOM     47  O   UNL     1       6.251   4.547  21.939  0.00  0.00    -0.383 OA
ATOM     48  H   UNL     1       5.549   5.019  22.428  0.00  0.00    +0.210 HD
ENDBRANCH  46  47
BRANCH  45  49
ATOM     49  O   UNL     1       6.681   7.105  22.826  0.00  0.00    -0.386 OA
ATOM     50  H   UNL     1       6.643   7.324  23.771  0.00  0.00    +0.210 HD
ENDBRANCH  45  49
BRANCH  44  51
ATOM     51  O   UNL     1      10.180   6.009  22.999  0.00  0.00    -0.386 OA
ATOM     52  H   UNL     1      10.721   6.669  22.528  0.00  0.00    +0.210 HD
ENDBRANCH  44  51
BRANCH  43  53
ATOM     53  C   UNL     1       9.657   6.581  25.902  0.00  0.00    +0.337 C 
ATOM     54  O   UNL     1      10.761   7.035  25.664  0.00  0.00    -0.248 OA
BRANCH  53  55
ATOM     55  O   UNL     1       9.140   6.507  27.161  0.00  0.00    -0.479 OA
ATOM     56  H   UNL     1       9.065   5.555  27.400  0.00  0.00    +0.295 HD
ENDBRANCH  53  55
ENDBRANCH  43  53
ENDBRANCH  40  41
ENDBRANCH   7  40
TORSDOF 18
ENDMDL
MODEL 9
REMARK VINA RESULT:      -6.5      2.031     10.568
REMARK  Name = 
REMARK  18 active torsions:
REMARK  status: ('A' for Active; 'I' for Inactive)
REMARK    1  A    between atoms: C_3  and  O_50
REMARK    2  A    between atoms: C_4  and  O_49
REMARK    3  A    between atoms: C_6  and  C_7
REMARK    4  A    between atoms: C_8  and  O_35
REMARK    5  A    between atoms: C_12  and  O_34
REMARK    6  A    between atoms: C_14  and  O_18
REMARK    7  A    between atoms: O_18  and  C_19
REMARK    8  A    between atoms: C_21  and  O_33
REMARK    9  A    between atoms: C_22  and  O_32
REMARK   10  A    between atoms: C_24  and  O_31
REMARK   11  A    between atoms: C_26  and  C_28
REMARK   12  A    between atoms: C_28  and  O_30
REMARK   13  A    between atoms: O_35  and  C_36
REMARK   14  A    between atoms: C_38  and  O_48
REMARK   15  A    between atoms: C_39  and  O_47
REMARK   16  A    between atoms: C_40  and  O_46
REMARK   17  A    between atoms: C_42  and  C_44
REMARK   18  A    between atoms: C_44  and  O_45
REMARK                            x       y       z     vdW  Elec       q    Type
REMARK                         _______ _______ _______ _____ _____    ______ ____
ROOT
ATOM      1  C   UNL     1       5.491  -1.722  24.667  0.00  0.00    +0.181 A 
ATOM      2  O   UNL     1       6.135  -0.505  24.480  0.00  0.00    -0.451 OA
ATOM      3  C   UNL     1       5.886   0.530  25.334  0.00  0.00    +0.147 A 
ATOM      4  C   UNL     1       4.916   0.491  26.317  0.00  0.00    +0.109 A 
ATOM      5  C   UNL     1       4.736   1.633  27.112  0.00  0.00    +0.135 A 
ATOM      6  C   UNL     1       5.594   2.743  26.992  0.00  0.00    +0.092 A 
ATOM      7  C   UNL     1       6.636   2.728  26.063  0.00  0.00    +0.131 A 
ATOM      8  C   UNL     1       4.172  -0.779  26.489  0.00  0.00    +0.238 A 
ATOM      9  O   UNL     1       3.305  -0.885  27.355  0.00  0.00    -0.283 OA
ATOM     10  C   UNL     1       6.719   1.642  25.185  0.00  0.00    +0.093 A 
ATOM     11  C   UNL     1       4.553  -1.941  25.617  0.00  0.00    +0.214 A 
ENDROOT
BRANCH   1  13
ATOM     12  C   UNL     1       5.376  -3.278  22.645  0.00  0.00    +0.015 A 
ATOM     13  C   UNL     1       6.043  -2.793  23.783  0.00  0.00    +0.025 A 
ATOM     14  C   UNL     1       7.216  -3.463  24.173  0.00  0.00    +0.060 A 
ATOM     15  C   UNL     1       7.547  -4.680  23.590  0.00  0.00    +0.159 A 
ATOM     16  C   UNL     1       6.727  -5.254  22.628  0.00  0.00    +0.158 A 
ATOM     17  C   UNL     1       5.665  -4.537  22.112  0.00  0.00    +0.050 A 
BRANCH  16  18
ATOM     18  O   UNL     1       6.983  -6.536  22.237  0.00  0.00    -0.503 OA
ATOM     19  H   UNL     1       7.201  -6.508  21.286  0.00  0.00    +0.292 HD
ENDBRANCH  16  18
BRANCH  15  20
ATOM     20  O   UNL     1       8.658  -5.344  24.022  0.00  0.00    -0.503 OA
ATOM     21  H   UNL     1       8.359  -6.270  24.125  0.00  0.00    +0.292 HD
ENDBRANCH  15  20
ENDBRANCH   1  13
BRANCH   5  22
ATOM     22  O   UNL     1       3.751   1.731  28.058  0.00  0.00    -0.506 OA
ATOM     23  H   UNL     1       3.074   2.367  27.746  0.00  0.00    +0.292 HD
ENDBRANCH   5  22
BRANCH  11  24
ATOM     24  O   UNL     1       3.797  -3.102  25.646  0.00  0.00    -0.453 OA
BRANCH  24  25
ATOM     25  C   UNL     1       3.548  -3.829  26.867  0.00  0.00    +0.340 C 
ATOM     26  O   UNL     1       4.762  -4.063  27.616  0.00  0.00    -0.331 OA
ATOM     27  C   UNL     1       5.702  -5.081  27.161  0.00  0.00    +0.179 C 
ATOM     28  C   UNL     1       5.227  -6.149  26.150  0.00  0.00    +0.177 C 
ATOM     29  C   UNL     1       3.908  -5.811  25.469  0.00  0.00    +0.180 C 
ATOM     30  C   UNL     1       2.959  -5.202  26.515  0.00  0.00    +0.214 C 
BRANCH  30  31
ATOM     31  O   UNL     1       1.625  -5.191  26.015  0.00  0.00    -0.383 OA
ATOM     32  H   UNL     1       1.076  -4.597  26.569  0.00  0.00    +0.210 HD
ENDBRANCH  30  31
BRANCH  29  33
ATOM     33  O   UNL     1       3.371  -7.016  24.901  0.00  0.00    -0.386 OA
ATOM     34  H   UNL     1       3.941  -7.735  25.244  0.00  0.00    +0.210 HD
ENDBRANCH  29  33
BRANCH  28  35
ATOM     35  O   UNL     1       5.067  -7.437  26.769  0.00  0.00    -0.386 OA
ATOM     36  H   UNL     1       4.167  -7.404  27.163  0.00  0.00    +0.210 HD
ENDBRANCH  28  35
BRANCH  27  37
ATOM     37  C   UNL     1       6.281  -5.741  28.432  0.00  0.00    +0.190 C 
BRANCH  37  38
ATOM     38  O   UNL     1       7.532  -6.361  28.124  0.00  0.00    -0.392 OA
ATOM     39  H   UNL     1       7.969  -5.747  27.502  0.00  0.00    +0.210 HD
ENDBRANCH  37  38
ENDBRANCH  27  37
ENDBRANCH  24  25
ENDBRANCH  11  24
BRANCH   7  40
ATOM     40  O   UNL     1       7.551   3.769  26.110  0.00  0.00    -0.461 OA
BRANCH  40  41
ATOM     41  C   UNL     1       7.539   4.619  24.940  0.00  0.00    +0.340 C 
ATOM     42  O   UNL     1       8.441   4.098  23.947  0.00  0.00    -0.322 OA
ATOM     43  C   UNL     1       9.815   4.392  24.267  0.00  0.00    +0.261 C 
ATOM     44  C   UNL     1      10.039   5.893  24.116  0.00  0.00    +0.185 C 
ATOM     45  C   UNL     1       9.239   6.591  25.217  0.00  0.00    +0.180 C 
ATOM     46  C   UNL     1       7.766   6.137  25.219  0.00  0.00    +0.214 C 
BRANCH  46  47
ATOM     47  O   UNL     1       7.093   6.576  26.402  0.00  0.00    -0.383 OA
ATOM     48  H   UNL     1       6.374   5.942  26.590  0.00  0.00    +0.210 HD
ENDBRANCH  46  47
BRANCH  45  49
ATOM     49  O   UNL     1       9.828   6.415  26.495  0.00  0.00    -0.386 OA
ATOM     50  H   UNL     1      10.463   7.127  26.674  0.00  0.00    +0.210 HD
ENDBRANCH  45  49
BRANCH  44  51
ATOM     51  O   UNL     1       9.528   6.308  22.838  0.00  0.00    -0.386 OA
ATOM     52  H   UNL     1      10.072   7.050  22.517  0.00  0.00    +0.210 HD
ENDBRANCH  44  51
BRANCH  43  53
ATOM     53  C   UNL     1      10.744   3.609  23.352  0.00  0.00    +0.337 C 
ATOM     54  O   UNL     1      10.577   2.457  22.996  0.00  0.00    -0.248 OA
BRANCH  53  55
ATOM     55  O   UNL     1      11.776   4.381  22.909  0.00  0.00    -0.479 OA
ATOM     56  H   UNL     1      11.405   5.054  22.294  0.00  0.00    +0.295 HD
ENDBRANCH  53  55
ENDBRANCH  43  53
ENDBRANCH  40  41
ENDBRANCH   7  40
TORSDOF 18
ENDMDL
