MODEL 1
REMARK VINA RESULT:      -8.0      0.000      0.000
REMARK  Name = 
REMARK  12 active torsions:
REMARK  status: ('A' for Active; 'I' for Inactive)
REMARK    1  A    between atoms: C_3  and  O_22
REMARK    2  A    between atoms: C_4  and  O_21
REMARK    3  A    between atoms: C_6  and  C_7
REMARK    4  A    between atoms: C_8  and  O_20
REMARK    5  A    between atoms: C_12  and  O_19
REMARK    6  A    between atoms: C_14  and  O_18
REMARK    7  A    between atoms: O_22  and  C_23
REMARK    8  A    between atoms: C_24  and  O_34
REMARK    9  A    between atoms: C_25  and  O_33
REMARK   10  A    between atoms: C_26  and  O_32
REMARK   11  A    between atoms: C_27  and  C_29
REMARK   12  A    between atoms: C_29  and  O_31
REMARK                            x       y       z     vdW  Elec       q    Type
REMARK                         _______ _______ _______ _____ _____    ______ ____
ROOT
ATOM      1  C   UNL     1       8.656  -0.552  22.292  0.00  0.00    +0.015 A 
ATOM      2  C   UNL     1       9.013   0.022  23.517  0.00  0.00    +0.025 A 
ATOM      3  C   UNL     1       9.175  -0.848  24.605  0.00  0.00    +0.060 A 
ATOM      4  C   UNL     1       8.807  -2.202  24.496  0.00  0.00    +0.159 A 
ATOM      5  C   UNL     1       8.254  -2.714  23.320  0.00  0.00    +0.165 A 
ATOM      6  C   UNL     1       8.269  -1.890  22.197  0.00  0.00    +0.050 A 
ENDROOT
BRANCH   2   7
ATOM      7  C   UNL     1       9.185   1.500  23.616  0.00  0.00    +0.181 A 
ATOM      8  O   UNL     1      10.486   1.940  23.389  0.00  0.00    -0.451 OA
ATOM      9  C   UNL     1      10.754   3.286  23.493  0.00  0.00    +0.147 A 
ATOM     10  C   UNL     1       9.767   4.241  23.717  0.00  0.00    +0.109 A 
ATOM     11  C   UNL     1      10.094   5.601  23.801  0.00  0.00    +0.135 A 
ATOM     12  C   UNL     1      11.415   6.009  23.673  0.00  0.00    +0.091 A 
ATOM     13  C   UNL     1      12.400   5.049  23.456  0.00  0.00    +0.124 A 
ATOM     14  C   UNL     1       8.388   3.792  23.892  0.00  0.00    +0.238 A 
ATOM     15  O   UNL     1       7.489   4.613  24.042  0.00  0.00    -0.283 OA
ATOM     16  C   UNL     1      12.081   3.693  23.363  0.00  0.00    +0.092 A 
ATOM     17  C   UNL     1       8.157   2.328  23.913  0.00  0.00    +0.208 A 
BRANCH  11  18
ATOM     18  O   UNL     1       9.164   6.582  24.015  0.00  0.00    -0.506 OA
ATOM     19  H   UNL     1       9.323   7.306  23.364  0.00  0.00    +0.292 HD
ENDBRANCH  11  18
BRANCH  13  20
ATOM     20  O   UNL     1      13.709   5.407  23.327  0.00  0.00    -0.507 OA
ATOM     21  H   UNL     1      13.893   6.140  23.940  0.00  0.00    +0.292 HD
ENDBRANCH  13  20
BRANCH  17  22
ATOM     22  O   UNL     1       6.877   1.928  24.254  0.00  0.00    -0.501 OA
ATOM     23  H   UNL     1       6.260   2.619  23.958  0.00  0.00    +0.292 HD
ENDBRANCH  17  22
ENDBRANCH   2   7
BRANCH   4  24
ATOM     24  O   UNL     1       8.982  -3.005  25.589  0.00  0.00    -0.503 OA
ATOM     25  H   UNL     1       9.194  -2.411  26.336  0.00  0.00    +0.292 HD
ENDBRANCH   4  24
BRANCH   5  26
ATOM     26  O   UNL     1       7.683  -3.974  23.356  0.00  0.00    -0.457 OA
BRANCH  26  27
ATOM     27  C   UNL     1       6.302  -3.977  23.784  0.00  0.00    +0.340 C 
ATOM     28  O   UNL     1       6.210  -4.062  25.225  0.00  0.00    -0.322 OA
ATOM     29  C   UNL     1       6.401  -5.412  25.691  0.00  0.00    +0.261 C 
ATOM     30  C   UNL     1       5.137  -6.167  25.313  0.00  0.00    +0.185 C 
ATOM     31  C   UNL     1       5.181  -6.339  23.795  0.00  0.00    +0.180 C 
ATOM     32  C   UNL     1       5.371  -4.997  23.065  0.00  0.00    +0.214 C 
BRANCH  29  33
ATOM     33  C   UNL     1       6.627  -5.411  27.195  0.00  0.00    +0.337 C 
ATOM     34  O   UNL     1       5.826  -5.009  28.026  0.00  0.00    -0.248 OA
BRANCH  33  35
ATOM     35  O   UNL     1       7.834  -5.942  27.521  0.00  0.00    -0.479 OA
ATOM     36  H   UNL     1       7.916  -5.964  28.499  0.00  0.00    +0.295 HD
ENDBRANCH  33  35
ENDBRANCH  29  33
BRANCH  30  37
ATOM     37  O   UNL     1       3.947  -5.404  25.616  0.00  0.00    -0.386 OA
ATOM     38  H   UNL     1       3.458  -5.860  26.329  0.00  0.00    +0.210 HD
ENDBRANCH  30  37
BRANCH  31  39
ATOM     39  O   UNL     1       3.944  -6.925  23.345  0.00  0.00    -0.386 OA
ATOM     40  H   UNL     1       3.992  -7.873  23.584  0.00  0.00    +0.210 HD
ENDBRANCH  31  39
BRANCH  32  41
ATOM     41  O   UNL     1       5.761  -5.217  21.706  0.00  0.00    -0.383 OA
ATOM     42  H   UNL     1       4.964  -5.067  21.159  0.00  0.00    +0.210 HD
ENDBRANCH  32  41
ENDBRANCH  26  27
ENDBRANCH   5  26
TORSDOF 12
ENDMDL
MODEL 2
REMARK VINA RESULT:      -7.6      1.535      2.739
REMARK  Name = 
REMARK  12 active torsions:
REMARK  status: ('A' for Active; 'I' for Inactive)
REMARK    1  A    between atoms: C_3  and  O_22
REMARK    2  A    between atoms: C_4  and  O_21
REMARK    3  A    between atoms: C_6  and  C_7
REMARK    4  A    between atoms: C_8  and  O_20
REMARK    5  A    between atoms: C_12  and  O_19
REMARK    6  A    between atoms: C_14  and  O_18
REMARK    7  A    between atoms: O_22  and  C_23
REMARK    8  A    between atoms: C_24  and  O_34
REMARK    9  A    between atoms: C_25  and  O_33
REMARK   10  A    between atoms: C_26  and  O_32
REMARK   11  A    between atoms: C_27  and  C_29
REMARK   12  A    between atoms: C_29  and  O_31
REMARK                            x       y       z     vdW  Elec       q    Type
REMARK                         _______ _______ _______ _____ _____    ______ ____
ROOT
ATOM      1  C   UNL     1       7.992  -1.566  22.210  0.00  0.00    +0.015 A 
ATOM      2  C   UNL     1       8.403  -0.885  23.361  0.00  0.00    +0.025 A 
ATOM      3  C   UNL     1       8.606  -1.654  24.517  0.00  0.00    +0.060 A 
ATOM      4  C   UNL     1       8.225  -3.008  24.548  0.00  0.00    +0.159 A 
ATOM      5  C   UNL     1       7.620  -3.620  23.447  0.00  0.00    +0.165 A 
ATOM      6  C   UNL     1       7.594  -2.902  22.254  0.00  0.00    +0.050 A 
ENDROOT
BRANCH   2   7
ATOM      7  C   UNL     1       8.589   0.594  23.317  0.00  0.00    +0.181 A 
ATOM      8  O   UNL     1       7.415   1.310  23.098  0.00  0.00    -0.451 OA
ATOM      9  C   UNL     1       7.488   2.681  23.005  0.00  0.00    +0.147 A 
ATOM     10  C   UNL     1       8.664   3.395  23.219  0.00  0.00    +0.109 A 
ATOM     11  C   UNL     1       8.679   4.793  23.124  0.00  0.00    +0.135 A 
ATOM     12  C   UNL     1       7.517   5.482  22.804  0.00  0.00    +0.091 A 
ATOM     13  C   UNL     1       6.345   4.763  22.584  0.00  0.00    +0.124 A 
ATOM     14  C   UNL     1       9.887   2.653  23.514  0.00  0.00    +0.238 A 
ATOM     15  O   UNL     1      10.928   3.256  23.755  0.00  0.00    -0.283 OA
ATOM     16  C   UNL     1       6.320   3.371  22.683  0.00  0.00    +0.092 A 
ATOM     17  C   UNL     1       9.802   1.174  23.468  0.00  0.00    +0.208 A 
BRANCH  11  18
ATOM     18  O   UNL     1       9.804   5.545  23.329  0.00  0.00    -0.506 OA
ATOM     19  H   UNL     1       9.796   6.293  22.686  0.00  0.00    +0.292 HD
ENDBRANCH  11  18
BRANCH  13  20
ATOM     20  O   UNL     1       5.182   5.401  22.265  0.00  0.00    -0.507 OA
ATOM     21  H   UNL     1       4.673   4.834  21.659  0.00  0.00    +0.292 HD
ENDBRANCH  13  20
BRANCH  17  22
ATOM     22  O   UNL     1      11.005   0.500  23.577  0.00  0.00    -0.501 OA
ATOM     23  H   UNL     1      11.222   0.135  22.702  0.00  0.00    +0.292 HD
ENDBRANCH  17  22
ENDBRANCH   2   7
BRANCH   4  24
ATOM     24  O   UNL     1       8.440  -3.709  25.702  0.00  0.00    -0.503 OA
ATOM     25  H   UNL     1       7.565  -3.828  26.121  0.00  0.00    +0.292 HD
ENDBRANCH   4  24
BRANCH   5  26
ATOM     26  O   UNL     1       7.043  -4.866  23.622  0.00  0.00    -0.457 OA
BRANCH  26  27
ATOM     27  C   UNL     1       5.677  -4.816  24.094  0.00  0.00    +0.340 C 
ATOM     28  O   UNL     1       5.633  -4.728  25.537  0.00  0.00    -0.322 OA
ATOM     29  C   UNL     1       5.842  -6.012  26.154  0.00  0.00    +0.261 C 
ATOM     30  C   UNL     1       4.568  -6.805  25.911  0.00  0.00    +0.185 C 
ATOM     31  C   UNL     1       4.563  -7.158  24.424  0.00  0.00    +0.180 C 
ATOM     32  C   UNL     1       4.726  -5.913  23.532  0.00  0.00    +0.214 C 
BRANCH  29  33
ATOM     33  C   UNL     1       6.117  -5.832  27.639  0.00  0.00    +0.337 C 
ATOM     34  O   UNL     1       5.263  -5.672  28.498  0.00  0.00    -0.248 OA
BRANCH  33  35
ATOM     35  O   UNL     1       7.447  -5.894  27.914  0.00  0.00    -0.479 OA
ATOM     36  H   UNL     1       7.672  -6.812  28.174  0.00  0.00    +0.295 HD
ENDBRANCH  33  35
ENDBRANCH  29  33
BRANCH  30  37
ATOM     37  O   UNL     1       3.387  -6.010  26.160  0.00  0.00    -0.386 OA
ATOM     38  H   UNL     1       3.325  -5.835  27.119  0.00  0.00    +0.210 HD
ENDBRANCH  30  37
BRANCH  31  39
ATOM     39  O   UNL     1       3.314  -7.791  24.088  0.00  0.00    -0.386 OA
ATOM     40  H   UNL     1       3.442  -8.188  23.203  0.00  0.00    +0.210 HD
ENDBRANCH  31  39
BRANCH  32  41
ATOM     41  O   UNL     1       5.071  -6.294  22.198  0.00  0.00    -0.383 OA
ATOM     42  H   UNL     1       4.257  -6.653  21.790  0.00  0.00    +0.210 HD
ENDBRANCH  32  41
ENDBRANCH  26  27
ENDBRANCH   5  26
TORSDOF 12
ENDMDL
MODEL 3
REMARK VINA RESULT:      -7.6      1.287      1.433
REMARK  Name = 
REMARK  12 active torsions:
REMARK  status: ('A' for Active; 'I' for Inactive)
REMARK    1  A    between atoms: C_3  and  O_22
REMARK    2  A    between atoms: C_4  and  O_21
REMARK    3  A    between atoms: C_6  and  C_7
REMARK    4  A    between atoms: C_8  and  O_20
REMARK    5  A    between atoms: C_12  and  O_19
REMARK    6  A    between atoms: C_14  and  O_18
REMARK    7  A    between atoms: O_22  and  C_23
REMARK    8  A    between atoms: C_24  and  O_34
REMARK    9  A    between atoms: C_25  and  O_33
REMARK   10  A    between atoms: C_26  and  O_32
REMARK   11  A    between atoms: C_27  and  C_29
REMARK   12  A    between atoms: C_29  and  O_31
REMARK                            x       y       z     vdW  Elec       q    Type
REMARK                         _______ _______ _______ _____ _____    ______ ____
ROOT
ATOM      1  C   UNL     1       9.016  -0.577  22.121  0.00  0.00    +0.015 A 
ATOM      2  C   UNL     1       9.152  -0.012  23.395  0.00  0.00    +0.025 A 
ATOM      3  C   UNL     1       9.173  -0.895  24.484  0.00  0.00    +0.060 A 
ATOM      4  C   UNL     1       8.880  -2.259  24.301  0.00  0.00    +0.159 A 
ATOM      5  C   UNL     1       8.541  -2.770  23.046  0.00  0.00    +0.165 A 
ATOM      6  C   UNL     1       8.702  -1.926  21.950  0.00  0.00    +0.050 A 
ENDROOT
BRANCH   2   7
ATOM      7  C   UNL     1       9.248   1.469  23.538  0.00  0.00    +0.181 A 
ATOM      8  O   UNL     1      10.526   1.981  23.328  0.00  0.00    -0.451 OA
ATOM      9  C   UNL     1      10.724   3.335  23.473  0.00  0.00    +0.147 A 
ATOM     10  C   UNL     1       9.689   4.232  23.721  0.00  0.00    +0.109 A 
ATOM     11  C   UNL     1       9.946   5.603  23.846  0.00  0.00    +0.135 A 
ATOM     12  C   UNL     1      11.245   6.082  23.735  0.00  0.00    +0.091 A 
ATOM     13  C   UNL     1      12.278   5.180  23.494  0.00  0.00    +0.124 A 
ATOM     14  C   UNL     1       8.335   3.709  23.877  0.00  0.00    +0.238 A 
ATOM     15  O   UNL     1       7.394   4.478  24.048  0.00  0.00    -0.283 OA
ATOM     16  C   UNL     1      12.030   3.813  23.360  0.00  0.00    +0.092 A 
ATOM     17  C   UNL     1       8.178   2.235  23.855  0.00  0.00    +0.208 A 
BRANCH  11  18
ATOM     18  O   UNL     1       8.967   6.530  24.086  0.00  0.00    -0.506 OA
ATOM     19  H   UNL     1       8.440   6.642  23.260  0.00  0.00    +0.292 HD
ENDBRANCH  11  18
BRANCH  13  20
ATOM     20  O   UNL     1      13.568   5.608  23.380  0.00  0.00    -0.507 OA
ATOM     21  H   UNL     1      13.863   5.466  22.463  0.00  0.00    +0.292 HD
ENDBRANCH  13  20
BRANCH  17  22
ATOM     22  O   UNL     1       6.920   1.760  24.179  0.00  0.00    -0.501 OA
ATOM     23  H   UNL     1       6.931   0.793  24.074  0.00  0.00    +0.292 HD
ENDBRANCH  17  22
ENDBRANCH   2   7
BRANCH   4  24
ATOM     24  O   UNL     1       8.911  -3.075  25.399  0.00  0.00    -0.503 OA
ATOM     25  H   UNL     1       9.844  -3.114  25.688  0.00  0.00    +0.292 HD
ENDBRANCH   4  24
BRANCH   5  26
ATOM     26  O   UNL     1       8.021  -4.051  22.976  0.00  0.00    -0.457 OA
BRANCH  26  27
ATOM     27  C   UNL     1       6.625  -4.094  22.606  0.00  0.00    +0.340 C 
ATOM     28  O   UNL     1       5.843  -3.205  23.436  0.00  0.00    -0.322 OA
ATOM     29  C   UNL     1       5.563  -3.789  24.723  0.00  0.00    +0.261 C 
ATOM     30  C   UNL     1       4.528  -4.873  24.473  0.00  0.00    +0.185 C 
ATOM     31  C   UNL     1       5.262  -6.006  23.757  0.00  0.00    +0.180 C 
ATOM     32  C   UNL     1       5.996  -5.514  22.495  0.00  0.00    +0.214 C 
BRANCH  29  33
ATOM     33  C   UNL     1       5.040  -2.721  25.671  0.00  0.00    +0.337 C 
ATOM     34  O   UNL     1       3.906  -2.267  25.662  0.00  0.00    -0.248 OA
BRANCH  33  35
ATOM     35  O   UNL     1       5.988  -2.336  26.566  0.00  0.00    -0.479 OA
ATOM     36  H   UNL     1       5.563  -2.206  27.440  0.00  0.00    +0.295 HD
ENDBRANCH  33  35
ENDBRANCH  29  33
BRANCH  30  37
ATOM     37  O   UNL     1       3.482  -4.421  23.584  0.00  0.00    -0.386 OA
ATOM     38  H   UNL     1       3.781  -3.603  23.140  0.00  0.00    +0.210 HD
ENDBRANCH  30  37
BRANCH  31  39
ATOM     39  O   UNL     1       4.313  -7.015  23.360  0.00  0.00    -0.386 OA
ATOM     40  H   UNL     1       4.629  -7.853  23.756  0.00  0.00    +0.210 HD
ENDBRANCH  31  39
BRANCH  32  41
ATOM     41  O   UNL     1       6.945  -6.491  22.055  0.00  0.00    -0.383 OA
ATOM     42  H   UNL     1       7.339  -6.145  21.229  0.00  0.00    +0.210 HD
ENDBRANCH  32  41
ENDBRANCH  26  27
ENDBRANCH   5  26
TORSDOF 12
ENDMDL
MODEL 4
REMARK VINA RESULT:      -7.5      1.527      2.593
REMARK  Name = 
REMARK  12 active torsions:
REMARK  status: ('A' for Active; 'I' for Inactive)
REMARK    1  A    between atoms: C_3  and  O_22
REMARK    2  A    between atoms: C_4  and  O_21
REMARK    3  A    between atoms: C_6  and  C_7
REMARK    4  A    between atoms: C_8  and  O_20
REMARK    5  A    between atoms: C_12  and  O_19
REMARK    6  A    between atoms: C_14  and  O_18
REMARK    7  A    between atoms: O_22  and  C_23
REMARK    8  A    between atoms: C_24  and  O_34
REMARK    9  A    between atoms: C_25  and  O_33
REMARK   10  A    between atoms: C_26  and  O_32
REMARK   11  A    between atoms: C_27  and  C_29
REMARK   12  A    between atoms: C_29  and  O_31
REMARK                            x       y       z     vdW  Elec       q    Type
REMARK                         _______ _______ _______ _____ _____    ______ ____
ROOT
ATOM      1  C   UNL     1       7.316  -1.109  22.698  0.00  0.00    +0.015 A 
ATOM      2  C   UNL     1       8.420  -0.766  23.487  0.00  0.00    +0.025 A 
ATOM      3  C   UNL     1       9.168  -1.821  24.030  0.00  0.00    +0.060 A 
ATOM      4  C   UNL     1       8.703  -3.146  23.935  0.00  0.00    +0.159 A 
ATOM      5  C   UNL     1       7.486  -3.449  23.320  0.00  0.00    +0.165 A 
ATOM      6  C   UNL     1       6.848  -2.422  22.628  0.00  0.00    +0.050 A 
ENDROOT
BRANCH   2   7
ATOM      7  C   UNL     1       8.739   0.671  23.724  0.00  0.00    +0.181 A 
ATOM      8  O   UNL     1       8.010   1.255  24.756  0.00  0.00    -0.451 OA
ATOM      9  C   UNL     1       8.207   2.590  25.029  0.00  0.00    +0.147 A 
ATOM     10  C   UNL     1       9.172   3.361  24.388  0.00  0.00    +0.109 A 
ATOM     11  C   UNL     1       9.339   4.713  24.714  0.00  0.00    +0.135 A 
ATOM     12  C   UNL     1       8.531   5.303  25.677  0.00  0.00    +0.091 A 
ATOM     13  C   UNL     1       7.562   4.529  26.311  0.00  0.00    +0.124 A 
ATOM     14  C   UNL     1       9.986   2.738  23.348  0.00  0.00    +0.238 A 
ATOM     15  O   UNL     1      10.877   3.377  22.798  0.00  0.00    -0.283 OA
ATOM     16  C   UNL     1       7.394   3.178  25.997  0.00  0.00    +0.092 A 
ATOM     17  C   UNL     1       9.653   1.340  22.983  0.00  0.00    +0.208 A 
BRANCH  11  18
ATOM     18  O   UNL     1      10.274   5.517  24.119  0.00  0.00    -0.506 OA
ATOM     19  H   UNL     1      10.895   4.943  23.610  0.00  0.00    +0.292 HD
ENDBRANCH  11  18
BRANCH  13  20
ATOM     20  O   UNL     1       6.746   5.069  27.261  0.00  0.00    -0.507 OA
ATOM     21  H   UNL     1       5.943   4.522  27.328  0.00  0.00    +0.292 HD
ENDBRANCH  13  20
BRANCH  17  22
ATOM     22  O   UNL     1      10.317   0.833  21.880  0.00  0.00    -0.501 OA
ATOM     23  H   UNL     1      10.356  -0.134  21.976  0.00  0.00    +0.292 HD
ENDBRANCH  17  22
ENDBRANCH   2   7
BRANCH   4  24
ATOM     24  O   UNL     1       9.469  -4.136  24.486  0.00  0.00    -0.503 OA
ATOM     25  H   UNL     1      10.075  -3.698  25.116  0.00  0.00    +0.292 HD
ENDBRANCH   4  24
BRANCH   5  26
ATOM     26  O   UNL     1       6.967  -4.722  23.480  0.00  0.00    -0.457 OA
BRANCH  26  27
ATOM     27  C   UNL     1       5.622  -4.742  24.009  0.00  0.00    +0.340 C 
ATOM     28  O   UNL     1       5.633  -4.620  25.451  0.00  0.00    -0.322 OA
ATOM     29  C   UNL     1       5.947  -5.873  26.088  0.00  0.00    +0.261 C 
ATOM     30  C   UNL     1       4.715  -6.747  25.919  0.00  0.00    +0.185 C 
ATOM     31  C   UNL     1       4.669  -7.138  24.442  0.00  0.00    +0.180 C 
ATOM     32  C   UNL     1       4.716  -5.909  23.516  0.00  0.00    +0.214 C 
BRANCH  29  33
ATOM     33  C   UNL     1       6.273  -5.638  27.554  0.00  0.00    +0.337 C 
ATOM     34  O   UNL     1       5.495  -5.192  28.385  0.00  0.00    -0.248 OA
BRANCH  33  35
ATOM     35  O   UNL     1       7.546  -6.011  27.852  0.00  0.00    -0.479 OA
ATOM     36  H   UNL     1       7.515  -6.785  28.454  0.00  0.00    +0.295 HD
ENDBRANCH  33  35
ENDBRANCH  29  33
BRANCH  30  37
ATOM     37  O   UNL     1       3.498  -6.019  26.201  0.00  0.00    -0.386 OA
ATOM     38  H   UNL     1       3.082  -6.402  26.997  0.00  0.00    +0.210 HD
ENDBRANCH  30  37
BRANCH  31  39
ATOM     39  O   UNL     1       3.447  -7.854  24.177  0.00  0.00    -0.386 OA
ATOM     40  H   UNL     1       2.722  -7.279  24.498  0.00  0.00    +0.210 HD
ENDBRANCH  31  39
BRANCH  32  41
ATOM     41  O   UNL     1       5.028  -6.303  22.177  0.00  0.00    -0.383 OA
ATOM     42  H   UNL     1       5.483  -5.544  21.760  0.00  0.00    +0.210 HD
ENDBRANCH  32  41
ENDBRANCH  26  27
ENDBRANCH   5  26
TORSDOF 12
ENDMDL
MODEL 5
REMARK VINA RESULT:      -7.4      1.370     10.034
REMARK  Name = 
REMARK  12 active torsions:
REMARK  status: ('A' for Active; 'I' for Inactive)
REMARK    1  A    between atoms: C_3  and  O_22
REMARK    2  A    between atoms: C_4  and  O_21
REMARK    3  A    between atoms: C_6  and  C_7
REMARK    4  A    between atoms: C_8  and  O_20
REMARK    5  A    between atoms: C_12  and  O_19
REMARK    6  A    between atoms: C_14  and  O_18
REMARK    7  A    between atoms: O_22  and  C_23
REMARK    8  A    between atoms: C_24  and  O_34
REMARK    9  A    between atoms: C_25  and  O_33
REMARK   10  A    between atoms: C_26  and  O_32
REMARK   11  A    between atoms: C_27  and  C_29
REMARK   12  A    between atoms: C_29  and  O_31
REMARK                            x       y       z     vdW  Elec       q    Type
REMARK                         _______ _______ _______ _____ _____    ______ ____
ROOT
ATOM      1  C   UNL     1       9.001  -1.446  25.302  0.00  0.00    +0.015 A 
ATOM      2  C   UNL     1       8.509  -1.837  24.052  0.00  0.00    +0.025 A 
ATOM      3  C   UNL     1       8.996  -1.147  22.932  0.00  0.00    +0.060 A 
ATOM      4  C   UNL     1       9.790   0.004  23.094  0.00  0.00    +0.159 A 
ATOM      5  C   UNL     1      10.100   0.502  24.361  0.00  0.00    +0.165 A 
ATOM      6  C   UNL     1       9.769  -0.290  25.457  0.00  0.00    +0.050 A 
ENDROOT
BRANCH   2   7
ATOM      7  C   UNL     1       7.502  -2.933  23.966  0.00  0.00    +0.181 A 
ATOM      8  O   UNL     1       7.301  -3.619  25.161  0.00  0.00    -0.451 OA
ATOM      9  C   UNL     1       6.416  -4.673  25.174  0.00  0.00    +0.147 A 
ATOM     10  C   UNL     1       5.637  -5.024  24.076  0.00  0.00    +0.109 A 
ATOM     11  C   UNL     1       4.741  -6.098  24.149  0.00  0.00    +0.135 A 
ATOM     12  C   UNL     1       4.629  -6.834  25.321  0.00  0.00    +0.091 A 
ATOM     13  C   UNL     1       5.416  -6.484  26.415  0.00  0.00    +0.124 A 
ATOM     14  C   UNL     1       5.795  -4.266  22.837  0.00  0.00    +0.238 A 
ATOM     15  O   UNL     1       5.089  -4.520  21.866  0.00  0.00    -0.283 OA
ATOM     16  C   UNL     1       6.306  -5.409  26.353  0.00  0.00    +0.092 A 
ATOM     17  C   UNL     1       6.856  -3.231  22.815  0.00  0.00    +0.208 A 
BRANCH  11  18
ATOM     18  O   UNL     1       3.948  -6.484  23.102  0.00  0.00    -0.506 OA
ATOM     19  H   UNL     1       4.432  -6.299  22.263  0.00  0.00    +0.292 HD
ENDBRANCH  11  18
BRANCH  13  20
ATOM     20  O   UNL     1       5.339  -7.181  27.584  0.00  0.00    -0.507 OA
ATOM     21  H   UNL     1       5.873  -6.722  28.256  0.00  0.00    +0.292 HD
ENDBRANCH  13  20
BRANCH  17  22
ATOM     22  O   UNL     1       7.104  -2.652  21.583  0.00  0.00    -0.501 OA
ATOM     23  H   UNL     1       7.007  -1.689  21.683  0.00  0.00    +0.292 HD
ENDBRANCH  17  22
ENDBRANCH   2   7
BRANCH   4  24
ATOM     24  O   UNL     1      10.233   0.641  21.968  0.00  0.00    -0.503 OA
ATOM     25  H   UNL     1      11.190   0.795  22.096  0.00  0.00    +0.292 HD
ENDBRANCH   4  24
BRANCH   5  26
ATOM     26  O   UNL     1      10.663   1.764  24.452  0.00  0.00    -0.457 OA
BRANCH  26  27
ATOM     27  C   UNL     1       9.972   2.768  23.675  0.00  0.00    +0.340 C 
ATOM     28  O   UNL     1      10.900   3.510  22.849  0.00  0.00    -0.322 OA
ATOM     29  C   UNL     1      11.599   4.516  23.607  0.00  0.00    +0.261 C 
ATOM     30  C   UNL     1      10.581   5.610  23.885  0.00  0.00    +0.185 C 
ATOM     31  C   UNL     1       9.613   5.038  24.921  0.00  0.00    +0.180 C 
ATOM     32  C   UNL     1       9.008   3.696  24.470  0.00  0.00    +0.214 C 
BRANCH  29  33
ATOM     33  C   UNL     1      12.780   5.039  22.804  0.00  0.00    +0.337 C 
ATOM     34  O   UNL     1      12.701   5.595  21.719  0.00  0.00    -0.248 OA
BRANCH  33  35
ATOM     35  O   UNL     1      13.956   4.837  23.453  0.00  0.00    -0.479 OA
ATOM     36  H   UNL     1      14.000   5.442  24.224  0.00  0.00    +0.295 HD
ENDBRANCH  33  35
ENDBRANCH  29  33
BRANCH  30  37
ATOM     37  O   UNL     1       9.800   5.928  22.710  0.00  0.00    -0.386 OA
ATOM     38  H   UNL     1       8.886   5.612  22.848  0.00  0.00    +0.210 HD
ENDBRANCH  30  37
BRANCH  31  39
ATOM     39  O   UNL     1       8.535   5.970  25.132  0.00  0.00    -0.386 OA
ATOM     40  H   UNL     1       8.954   6.807  25.418  0.00  0.00    +0.210 HD
ENDBRANCH  31  39
BRANCH  32  41
ATOM     41  O   UNL     1       8.403   3.022  25.578  0.00  0.00    -0.383 OA
ATOM     42  H   UNL     1       8.307   3.686  26.290  0.00  0.00    +0.210 HD
ENDBRANCH  32  41
ENDBRANCH  26  27
ENDBRANCH   5  26
TORSDOF 12
ENDMDL
MODEL 6
REMARK VINA RESULT:      -7.3      1.708      9.325
REMARK  Name = 
REMARK  12 active torsions:
REMARK  status: ('A' for Active; 'I' for Inactive)
REMARK    1  A    between atoms: C_3  and  O_22
REMARK    2  A    between atoms: C_4  and  O_21
REMARK    3  A    between atoms: C_6  and  C_7
REMARK    4  A    between atoms: C_8  and  O_20
REMARK    5  A    between atoms: C_12  and  O_19
REMARK    6  A    between atoms: C_14  and  O_18
REMARK    7  A    between atoms: O_22  and  C_23
REMARK    8  A    between atoms: C_24  and  O_34
REMARK    9  A    between atoms: C_25  and  O_33
REMARK   10  A    between atoms: C_26  and  O_32
REMARK   11  A    between atoms: C_27  and  C_29
REMARK   12  A    between atoms: C_29  and  O_31
REMARK                            x       y       z     vdW  Elec       q    Type
REMARK                         _______ _______ _______ _____ _____    ______ ____
ROOT
ATOM      1  C   UNL     1       8.826  -2.363  24.766  0.00  0.00    +0.015 A 
ATOM      2  C   UNL     1       8.148  -2.856  23.645  0.00  0.00    +0.025 A 
ATOM      3  C   UNL     1       8.468  -2.285  22.405  0.00  0.00    +0.060 A 
ATOM      4  C   UNL     1       9.292  -1.146  22.336  0.00  0.00    +0.159 A 
ATOM      5  C   UNL     1       9.794  -0.540  23.490  0.00  0.00    +0.165 A 
ATOM      6  C   UNL     1       9.622  -1.219  24.694  0.00  0.00    +0.050 A 
ENDROOT
BRANCH   2   7
ATOM      7  C   UNL     1       7.126  -3.929  23.815  0.00  0.00    +0.181 A 
ATOM      8  O   UNL     1       6.921  -4.319  25.135  0.00  0.00    -0.451 OA
ATOM      9  C   UNL     1       6.022  -5.329  25.392  0.00  0.00    +0.147 A 
ATOM     10  C   UNL     1       5.234  -5.912  24.404  0.00  0.00    +0.109 A 
ATOM     11  C   UNL     1       4.324  -6.929  24.723  0.00  0.00    +0.135 A 
ATOM     12  C   UNL     1       4.208  -7.375  26.033  0.00  0.00    +0.091 A 
ATOM     13  C   UNL     1       5.004  -6.793  27.017  0.00  0.00    +0.124 A 
ATOM     14  C   UNL     1       5.397  -5.462  23.024  0.00  0.00    +0.238 A 
ATOM     15  O   UNL     1       4.683  -5.922  22.139  0.00  0.00    -0.283 OA
ATOM     16  C   UNL     1       5.908  -5.774  26.708  0.00  0.00    +0.092 A 
ATOM     17  C   UNL     1       6.470  -4.474  22.764  0.00  0.00    +0.208 A 
BRANCH  11  18
ATOM     18  O   UNL     1       3.522  -7.534  23.794  0.00  0.00    -0.506 OA
ATOM     19  H   UNL     1       2.914  -6.853  23.420  0.00  0.00    +0.292 HD
ENDBRANCH  11  18
BRANCH  13  20
ATOM     20  O   UNL     1       4.924  -7.202  28.315  0.00  0.00    -0.507 OA
ATOM     21  H   UNL     1       5.214  -6.472  28.890  0.00  0.00    +0.292 HD
ENDBRANCH  13  20
BRANCH  17  22
ATOM     22  O   UNL     1       6.720  -4.197  21.431  0.00  0.00    -0.501 OA
ATOM     23  H   UNL     1       7.296  -3.413  21.394  0.00  0.00    +0.292 HD
ENDBRANCH  17  22
ENDBRANCH   2   7
BRANCH   4  24
ATOM     24  O   UNL     1       9.568  -0.628  21.101  0.00  0.00    -0.503 OA
ATOM     25  H   UNL     1       8.713  -0.347  20.721  0.00  0.00    +0.292 HD
ENDBRANCH   4  24
BRANCH   5  26
ATOM     26  O   UNL     1      10.380   0.709  23.375  0.00  0.00    -0.457 OA
BRANCH  26  27
ATOM     27  C   UNL     1       9.798   1.708  24.243  0.00  0.00    +0.340 C 
ATOM     28  O   UNL     1       8.461   1.329  24.642  0.00  0.00    -0.322 OA
ATOM     29  C   UNL     1       7.498   1.608  23.608  0.00  0.00    +0.261 C 
ATOM     30  C   UNL     1       7.335   3.119  23.586  0.00  0.00    +0.185 C 
ATOM     31  C   UNL     1       8.624   3.678  22.986  0.00  0.00    +0.180 C 
ATOM     32  C   UNL     1       9.875   3.177  23.733  0.00  0.00    +0.214 C 
BRANCH  29  33
ATOM     33  C   UNL     1       6.186   0.905  23.921  0.00  0.00    +0.337 C 
ATOM     34  O   UNL     1       6.079  -0.262  24.265  0.00  0.00    -0.248 OA
BRANCH  33  35
ATOM     35  O   UNL     1       5.125   1.745  23.798  0.00  0.00    -0.479 OA
ATOM     36  H   UNL     1       5.278   2.532  24.364  0.00  0.00    +0.295 HD
ENDBRANCH  33  35
ENDBRANCH  29  33
BRANCH  30  37
ATOM     37  O   UNL     1       7.218   3.664  24.920  0.00  0.00    -0.386 OA
ATOM     38  H   UNL     1       8.056   3.505  25.396  0.00  0.00    +0.210 HD
ENDBRANCH  30  37
BRANCH  31  39
ATOM     39  O   UNL     1       8.601   5.117  23.063  0.00  0.00    -0.386 OA
ATOM     40  H   UNL     1       8.311   5.333  23.972  0.00  0.00    +0.210 HD
ENDBRANCH  31  39
BRANCH  32  41
ATOM     41  O   UNL     1      11.052   3.417  22.955  0.00  0.00    -0.383 OA
ATOM     42  H   UNL     1      11.134   4.387  22.866  0.00  0.00    +0.210 HD
ENDBRANCH  32  41
ENDBRANCH  26  27
ENDBRANCH   5  26
TORSDOF 12
ENDMDL
MODEL 7
REMARK VINA RESULT:      -7.0      1.356      9.548
REMARK  Name = 
REMARK  12 active torsions:
REMARK  status: ('A' for Active; 'I' for Inactive)
REMARK    1  A    between atoms: C_3  and  O_22
REMARK    2  A    between atoms: C_4  and  O_21
REMARK    3  A    between atoms: C_6  and  C_7
REMARK    4  A    between atoms: C_8  and  O_20
REMARK    5  A    between atoms: C_12  and  O_19
REMARK    6  A    between atoms: C_14  and  O_18
REMARK    7  A    between atoms: O_22  and  C_23
REMARK    8  A    between atoms: C_24  and  O_34
REMARK    9  A    between atoms: C_25  and  O_33
REMARK   10  A    between atoms: C_26  and  O_32
REMARK   11  A    between atoms: C_27  and  C_29
REMARK   12  A    between atoms: C_29  and  O_31
REMARK                            x       y       z     vdW  Elec       q    Type
REMARK                         _______ _______ _______ _____ _____    ______ ____
ROOT
ATOM      1  C   UNL     1       9.806  -1.313  24.078  0.00  0.00    +0.015 A 
ATOM      2  C   UNL     1       8.486  -1.585  23.699  0.00  0.00    +0.025 A 
ATOM      3  C   UNL     1       7.899  -0.713  22.770  0.00  0.00    +0.060 A 
ATOM      4  C   UNL     1       8.551   0.476  22.397  0.00  0.00    +0.159 A 
ATOM      5  C   UNL     1       9.784   0.835  22.948  0.00  0.00    +0.165 A 
ATOM      6  C   UNL     1      10.438  -0.120  23.723  0.00  0.00    +0.050 A 
ENDROOT
BRANCH   2   7
ATOM      7  C   UNL     1       7.773  -2.750  24.295  0.00  0.00    +0.181 A 
ATOM      8  O   UNL     1       6.888  -3.384  23.426  0.00  0.00    -0.451 OA
ATOM      9  C   UNL     1       6.155  -4.450  23.895  0.00  0.00    +0.147 A 
ATOM     10  C   UNL     1       6.327  -4.989  25.166  0.00  0.00    +0.109 A 
ATOM     11  C   UNL     1       5.562  -6.084  25.588  0.00  0.00    +0.135 A 
ATOM     12  C   UNL     1       4.611  -6.638  24.741  0.00  0.00    +0.091 A 
ATOM     13  C   UNL     1       4.437  -6.090  23.472  0.00  0.00    +0.124 A 
ATOM     14  C   UNL     1       7.302  -4.370  26.061  0.00  0.00    +0.238 A 
ATOM     15  O   UNL     1       7.511  -4.852  27.170  0.00  0.00    -0.283 OA
ATOM     16  C   UNL     1       5.201  -5.003  23.042  0.00  0.00    +0.092 A 
ATOM     17  C   UNL     1       7.971  -3.140  25.576  0.00  0.00    +0.208 A 
BRANCH  11  18
ATOM     18  O   UNL     1       5.693  -6.657  26.825  0.00  0.00    -0.506 OA
ATOM     19  H   UNL     1       5.531  -7.626  26.734  0.00  0.00    +0.292 HD
ENDBRANCH  11  18
BRANCH  13  20
ATOM     20  O   UNL     1       3.513  -6.602  22.610  0.00  0.00    -0.507 OA
ATOM     21  H   UNL     1       3.575  -6.120  21.766  0.00  0.00    +0.292 HD
ENDBRANCH  13  20
BRANCH  17  22
ATOM     22  O   UNL     1       8.755  -2.477  26.504  0.00  0.00    -0.501 OA
ATOM     23  H   UNL     1       9.686  -2.653  26.287  0.00  0.00    +0.292 HD
ENDBRANCH  17  22
ENDBRANCH   2   7
BRANCH   4  24
ATOM     24  O   UNL     1       7.931   1.292  21.491  0.00  0.00    -0.503 OA
ATOM     25  H   UNL     1       8.091   2.209  21.790  0.00  0.00    +0.292 HD
ENDBRANCH   4  24
BRANCH   5  26
ATOM     26  O   UNL     1      10.249   2.121  22.738  0.00  0.00    -0.457 OA
BRANCH  26  27
ATOM     27  C   UNL     1      10.269   2.937  23.931  0.00  0.00    +0.340 C 
ATOM     28  O   UNL     1       9.017   2.834  24.647  0.00  0.00    -0.322 OA
ATOM     29  C   UNL     1       7.994   3.655  24.052  0.00  0.00    +0.261 C 
ATOM     30  C   UNL     1       8.360   5.090  24.393  0.00  0.00    +0.185 C 
ATOM     31  C   UNL     1       9.584   5.431  23.543  0.00  0.00    +0.180 C 
ATOM     32  C   UNL     1      10.724   4.413  23.735  0.00  0.00    +0.214 C 
BRANCH  29  33
ATOM     33  C   UNL     1       6.634   3.273  24.615  0.00  0.00    +0.337 C 
ATOM     34  O   UNL     1       6.177   2.140  24.643  0.00  0.00    -0.248 OA
BRANCH  33  35
ATOM     35  O   UNL     1       5.978   4.352  25.118  0.00  0.00    -0.479 OA
ATOM     36  H   UNL     1       5.056   4.346  24.783  0.00  0.00    +0.295 HD
ENDBRANCH  33  35
ENDBRANCH  29  33
BRANCH  30  37
ATOM     37  O   UNL     1       8.756   5.228  25.777  0.00  0.00    -0.386 OA
ATOM     38  H   UNL     1       7.954   5.212  26.334  0.00  0.00    +0.210 HD
ENDBRANCH  30  37
BRANCH  31  39
ATOM     39  O   UNL     1      10.076   6.733  23.916  0.00  0.00    -0.386 OA
ATOM     40  H   UNL     1      10.939   6.580  24.352  0.00  0.00    +0.210 HD
ENDBRANCH  31  39
BRANCH  32  41
ATOM     41  O   UNL     1      11.693   4.545  22.691  0.00  0.00    -0.383 OA
ATOM     42  H   UNL     1      11.947   5.489  22.662  0.00  0.00    +0.210 HD
ENDBRANCH  32  41
ENDBRANCH  26  27
ENDBRANCH   5  26
TORSDOF 12
ENDMDL
MODEL 8
REMARK VINA RESULT:      -7.0      1.861      3.866
REMARK  Name = 
REMARK  12 active torsions:
REMARK  status: ('A' for Active; 'I' for Inactive)
REMARK    1  A    between atoms: C_3  and  O_22
REMARK    2  A    between atoms: C_4  and  O_21
REMARK    3  A    between atoms: C_6  and  C_7
REMARK    4  A    between atoms: C_8  and  O_20
REMARK    5  A    between atoms: C_12  and  O_19
REMARK    6  A    between atoms: C_14  and  O_18
REMARK    7  A    between atoms: O_22  and  C_23
REMARK    8  A    between atoms: C_24  and  O_34
REMARK    9  A    between atoms: C_25  and  O_33
REMARK   10  A    between atoms: C_26  and  O_32
REMARK   11  A    between atoms: C_27  and  C_29
REMARK   12  A    between atoms: C_29  and  O_31
REMARK                            x       y       z     vdW  Elec       q    Type
REMARK                         _______ _______ _______ _____ _____    ______ ____
ROOT
ATOM      1  C   UNL     1       7.761  -1.866  26.353  0.00  0.00    +0.015 A 
ATOM      2  C   UNL     1       7.095  -0.857  25.648  0.00  0.00    +0.025 A 
ATOM      3  C   UNL     1       5.704  -0.983  25.517  0.00  0.00    +0.060 A 
ATOM      4  C   UNL     1       5.056  -2.167  25.914  0.00  0.00    +0.159 A 
ATOM      5  C   UNL     1       5.770  -3.252  26.429  0.00  0.00    +0.165 A 
ATOM      6  C   UNL     1       7.116  -3.047  26.723  0.00  0.00    +0.050 A 
ENDROOT
BRANCH   2   7
ATOM      7  C   UNL     1       7.874   0.273  25.065  0.00  0.00    +0.181 A 
ATOM      8  O   UNL     1       7.635   1.504  25.670  0.00  0.00    -0.451 OA
ATOM      9  C   UNL     1       8.280   2.616  25.179  0.00  0.00    +0.147 A 
ATOM     10  C   UNL     1       9.238   2.554  24.172  0.00  0.00    +0.109 A 
ATOM     11  C   UNL     1       9.875   3.717  23.719  0.00  0.00    +0.135 A 
ATOM     12  C   UNL     1       9.546   4.950  24.266  0.00  0.00    +0.091 A 
ATOM     13  C   UNL     1       8.582   5.008  25.269  0.00  0.00    +0.124 A 
ATOM     14  C   UNL     1       9.543   1.256  23.577  0.00  0.00    +0.238 A 
ATOM     15  O   UNL     1      10.417   1.161  22.721  0.00  0.00    -0.283 OA
ATOM     16  C   UNL     1       7.948   3.852  25.731  0.00  0.00    +0.092 A 
ATOM     17  C   UNL     1       8.730   0.103  24.031  0.00  0.00    +0.208 A 
BRANCH  11  18
ATOM     18  O   UNL     1      10.827   3.714  22.734  0.00  0.00    -0.506 OA
ATOM     19  H   UNL     1      11.712   3.635  23.162  0.00  0.00    +0.292 HD
ENDBRANCH  11  18
BRANCH  13  20
ATOM     20  O   UNL     1       8.228   6.198  25.832  0.00  0.00    -0.507 OA
ATOM     21  H   UNL     1       9.034   6.648  26.139  0.00  0.00    +0.292 HD
ENDBRANCH  13  20
BRANCH  17  22
ATOM     22  O   UNL     1       8.916  -1.076  23.330  0.00  0.00    -0.501 OA
ATOM     23  H   UNL     1       8.313  -1.067  22.567  0.00  0.00    +0.292 HD
ENDBRANCH  17  22
ENDBRANCH   2   7
BRANCH   4  24
ATOM     24  O   UNL     1       3.699  -2.238  25.760  0.00  0.00    -0.503 OA
ATOM     25  H   UNL     1       3.541  -2.591  24.862  0.00  0.00    +0.292 HD
ENDBRANCH   4  24
BRANCH   5  26
ATOM     26  O   UNL     1       5.118  -4.465  26.562  0.00  0.00    -0.457 OA
BRANCH  26  27
ATOM     27  C   UNL     1       5.621  -5.497  25.684  0.00  0.00    +0.340 C 
ATOM     28  O   UNL     1       6.149  -4.926  24.465  0.00  0.00    -0.322 OA
ATOM     29  C   UNL     1       5.100  -4.590  23.537  0.00  0.00    +0.261 C 
ATOM     30  C   UNL     1       4.586  -5.912  22.992  0.00  0.00    +0.185 C 
ATOM     31  C   UNL     1       3.810  -6.571  24.132  0.00  0.00    +0.180 C 
ATOM     32  C   UNL     1       4.655  -6.689  25.415  0.00  0.00    +0.214 C 
BRANCH  29  33
ATOM     33  C   UNL     1       5.654  -3.704  22.432  0.00  0.00    +0.337 C 
ATOM     34  O   UNL     1       6.173  -2.611  22.601  0.00  0.00    -0.248 OA
BRANCH  33  35
ATOM     35  O   UNL     1       5.527  -4.286  21.211  0.00  0.00    -0.479 OA
ATOM     36  H   UNL     1       6.251  -3.966  20.632  0.00  0.00    +0.295 HD
ENDBRANCH  33  35
ENDBRANCH  29  33
BRANCH  30  37
ATOM     37  O   UNL     1       5.668  -6.807  22.647  0.00  0.00    -0.386 OA
ATOM     38  H   UNL     1       6.426  -6.274  22.336  0.00  0.00    +0.210 HD
ENDBRANCH  30  37
BRANCH  31  39
ATOM     39  O   UNL     1       3.410  -7.896  23.734  0.00  0.00    -0.386 OA
ATOM     40  H   UNL     1       2.456  -7.964  23.945  0.00  0.00    +0.210 HD
ENDBRANCH  31  39
BRANCH  32  41
ATOM     41  O   UNL     1       3.818  -6.969  26.541  0.00  0.00    -0.383 OA
ATOM     42  H   UNL     1       2.908  -6.719  26.282  0.00  0.00    +0.210 HD
ENDBRANCH  32  41
ENDBRANCH  26  27
ENDBRANCH   5  26
TORSDOF 12
ENDMDL
MODEL 9
REMARK VINA RESULT:      -6.9      2.331      9.826
REMARK  Name = 
REMARK  12 active torsions:
REMARK  status: ('A' for Active; 'I' for Inactive)
REMARK    1  A    between atoms: C_3  and  O_22
REMARK    2  A    between atoms: C_4  and  O_21
REMARK    3  A    between atoms: C_6  and  C_7
REMARK    4  A    between atoms: C_8  and  O_20
REMARK    5  A    between atoms: C_12  and  O_19
REMARK    6  A    between atoms: C_14  and  O_18
REMARK    7  A    between atoms: O_22  and  C_23
REMARK    8  A    between atoms: C_24  and  O_34
REMARK    9  A    between atoms: C_25  and  O_33
REMARK   10  A    between atoms: C_26  and  O_32
REMARK   11  A    between atoms: C_27  and  C_29
REMARK   12  A    between atoms: C_29  and  O_31
REMARK                            x       y       z     vdW  Elec       q    Type
REMARK                         _______ _______ _______ _____ _____    ______ ____
ROOT
ATOM      1  C   UNL     1       5.077  -1.469  25.616  0.00  0.00    +0.015 A 
ATOM      2  C   UNL     1       5.761  -2.656  25.901  0.00  0.00    +0.025 A 
ATOM      3  C   UNL     1       7.083  -2.537  26.354  0.00  0.00    +0.060 A 
ATOM      4  C   UNL     1       7.732  -1.289  26.334  0.00  0.00    +0.159 A 
ATOM      5  C   UNL     1       7.096  -0.144  25.848  0.00  0.00    +0.165 A 
ATOM      6  C   UNL     1       5.733  -0.238  25.576  0.00  0.00    +0.050 A 
ENDROOT
BRANCH   2   7
ATOM      7  C   UNL     1       5.078  -3.967  25.699  0.00  0.00    +0.181 A 
ATOM      8  O   UNL     1       4.186  -3.987  24.631  0.00  0.00    -0.451 OA
ATOM      9  C   UNL     1       3.479  -5.143  24.385  0.00  0.00    +0.147 A 
ATOM     10  C   UNL     1       3.687  -6.324  25.091  0.00  0.00    +0.109 A 
ATOM     11  C   UNL     1       2.948  -7.476  24.791  0.00  0.00    +0.135 A 
ATOM     12  C   UNL     1       1.988  -7.447  23.787  0.00  0.00    +0.091 A 
ATOM     13  C   UNL     1       1.779  -6.260  23.088  0.00  0.00    +0.124 A 
ATOM     14  C   UNL     1       4.670  -6.328  26.172  0.00  0.00    +0.238 A 
ATOM     15  O   UNL     1       4.910  -7.366  26.780  0.00  0.00    -0.283 OA
ATOM     16  C   UNL     1       2.517  -5.110  23.377  0.00  0.00    +0.092 A 
ATOM     17  C   UNL     1       5.310  -5.032  26.501  0.00  0.00    +0.208 A 
BRANCH  11  18
ATOM     18  O   UNL     1       3.114  -8.664  25.449  0.00  0.00    -0.506 OA
ATOM     19  H   UNL     1       2.457  -9.309  25.093  0.00  0.00    +0.292 HD
ENDBRANCH  11  18
BRANCH  13  20
ATOM     20  O   UNL     1       0.846  -6.187  22.097  0.00  0.00    -0.507 OA
ATOM     21  H   UNL     1       1.186  -6.657  21.315  0.00  0.00    +0.292 HD
ENDBRANCH  13  20
BRANCH  17  22
ATOM     22  O   UNL     1       6.102  -5.025  27.635  0.00  0.00    -0.501 OA
ATOM     23  H   UNL     1       6.962  -5.411  27.400  0.00  0.00    +0.292 HD
ENDBRANCH  17  22
ENDBRANCH   2   7
BRANCH   4  24
ATOM     24  O   UNL     1       9.023  -1.230  26.783  0.00  0.00    -0.503 OA
ATOM     25  H   UNL     1       9.477  -2.017  26.421  0.00  0.00    +0.292 HD
ENDBRANCH   4  24
BRANCH   5  26
ATOM     26  O   UNL     1       7.861   0.987  25.620  0.00  0.00    -0.457 OA
BRANCH  26  27
ATOM     27  C   UNL     1       7.951   1.358  24.225  0.00  0.00    +0.340 C 
ATOM     28  O   UNL     1       8.323   0.222  23.411  0.00  0.00    -0.322 OA
ATOM     29  C   UNL     1       9.738  -0.038  23.476  0.00  0.00    +0.261 C 
ATOM     30  C   UNL     1      10.403   1.072  22.677  0.00  0.00    +0.185 C 
ATOM     31  C   UNL     1      10.268   2.342  23.518  0.00  0.00    +0.180 C 
ATOM     32  C   UNL     1       8.806   2.622  23.914  0.00  0.00    +0.214 C 
BRANCH  29  33
ATOM     33  C   UNL     1      10.038  -1.408  22.891  0.00  0.00    +0.337 C 
ATOM     34  O   UNL     1      10.157  -2.438  23.537  0.00  0.00    -0.248 OA
BRANCH  33  35
ATOM     35  O   UNL     1      10.136  -1.365  21.536  0.00  0.00    -0.479 OA
ATOM     36  H   UNL     1       9.450  -0.756  21.189  0.00  0.00    +0.295 HD
ENDBRANCH  33  35
ENDBRANCH  29  33
BRANCH  30  37
ATOM     37  O   UNL     1       9.717   1.318  21.429  0.00  0.00    -0.386 OA
ATOM     38  H   UNL     1       8.963   1.916  21.599  0.00  0.00    +0.210 HD
ENDBRANCH  30  37
BRANCH  31  39
ATOM     39  O   UNL     1      10.752   3.468  22.761  0.00  0.00    -0.386 OA
ATOM     40  H   UNL     1      10.986   3.118  21.877  0.00  0.00    +0.210 HD
ENDBRANCH  31  39
BRANCH  32  41
ATOM     41  O   UNL     1       8.750   3.585  24.970  0.00  0.00    -0.383 OA
ATOM     42  H   UNL     1       9.195   4.390  24.639  0.00  0.00    +0.210 HD
ENDBRANCH  32  41
ENDBRANCH  26  27
ENDBRANCH   5  26
TORSDOF 12
ENDMDL
