MODEL 1
REMARK VINA RESULT:      -7.4      0.000      0.000
REMARK  Name = 
REMARK  19 active torsions:
REMARK  status: ('A' for Active; 'I' for Inactive)
REMARK    1  A    between atoms: C_1  and  O_2
REMARK    2  A    between atoms: O_2  and  C_3
REMARK    3  A    between atoms: C_5  and  O_51
REMARK    4  A    between atoms: C_10  and  C_43
REMARK    5  A    between atoms: C_11  and  O_14
REMARK    6  A    between atoms: O_14  and  C_15
REMARK    7  A    between atoms: C_17  and  O_42
REMARK    8  A    between atoms: C_18  and  O_41
REMARK    9  A    between atoms: C_20  and  O_40
REMARK   10  A    between atoms: C_22  and  C_24
REMARK   11  A    between atoms: C_24  and  O_25
REMARK   12  A    between atoms: O_25  and  C_26
REMARK   13  A    between atoms: C_28  and  O_39
REMARK   14  A    between atoms: C_29  and  O_38
REMARK   15  A    between atoms: C_31  and  O_37
REMARK   16  A    between atoms: C_33  and  C_35
REMARK   17  A    between atoms: C_35  and  O_36
REMARK   18  A    between atoms: C_45  and  O_50
REMARK   19  A    between atoms: C_46  and  O_49
REMARK                            x       y       z     vdW  Elec       q    Type
REMARK                         _______ _______ _______ _____ _____    ______ ____
ROOT
ATOM      1  C   UNL     1       7.998  -1.481  23.483  0.00  0.00    +0.340 C 
ATOM      2  O   UNL     1       6.671  -1.920  23.163  0.00  0.00    -0.331 OA
ATOM      3  C   UNL     1       6.270  -3.143  23.795  0.00  0.00    +0.179 C 
ATOM      4  C   UNL     1       7.255  -4.310  23.551  0.00  0.00    +0.177 C 
ATOM      5  C   UNL     1       8.685  -3.886  23.895  0.00  0.00    +0.180 C 
ATOM      6  C   UNL     1       9.036  -2.580  23.180  0.00  0.00    +0.214 C 
ENDROOT
BRANCH   4   7
ATOM      7  O   UNL     1       7.206  -4.726  22.181  0.00  0.00    -0.386 OA
ATOM      8  H   UNL     1       6.422  -4.315  21.773  0.00  0.00    +0.210 HD
ENDBRANCH   4   7
BRANCH   5   9
ATOM      9  O   UNL     1       8.873  -3.762  25.311  0.00  0.00    -0.386 OA
ATOM     10  H   UNL     1       8.699  -2.840  25.581  0.00  0.00    +0.210 HD
ENDBRANCH   5   9
BRANCH   6  11
ATOM     11  O   UNL     1      10.361  -2.165  23.541  0.00  0.00    -0.383 OA
ATOM     12  H   UNL     1      10.393  -1.200  23.405  0.00  0.00    +0.210 HD
ENDBRANCH   6  11
BRANCH   1  13
ATOM     13  O   UNL     1       8.125  -1.046  24.860  0.00  0.00    -0.453 OA
BRANCH  13  19
ATOM     14  C   UNL     1       8.964   5.354  24.865  0.00  0.00    +0.127 A 
ATOM     15  C   UNL     1       8.136   4.521  25.625  0.00  0.00    +0.092 A 
ATOM     16  C   UNL     1       8.195   3.142  25.439  0.00  0.00    +0.147 A 
ATOM     17  O   UNL     1       7.410   2.343  26.224  0.00  0.00    -0.451 OA
ATOM     18  C   UNL     1       7.346   0.972  25.948  0.00  0.00    +0.181 A 
ATOM     19  C   UNL     1       8.214   0.322  25.128  0.00  0.00    +0.214 A 
ATOM     20  C   UNL     1       9.331   1.178  24.616  0.00  0.00    +0.238 A 
ATOM     21  O   UNL     1      10.474   0.772  24.449  0.00  0.00    -0.283 OA
ATOM     22  C   UNL     1       9.075   2.611  24.514  0.00  0.00    +0.109 A 
ATOM     23  C   UNL     1       9.809   3.442  23.671  0.00  0.00    +0.135 A 
ATOM     24  C   UNL     1       9.753   4.822  23.846  0.00  0.00    +0.092 A 
BRANCH  18  25
ATOM     25  C   UNL     1       6.278   0.332  26.765  0.00  0.00    +0.025 A 
ATOM     26  C   UNL     1       6.087   0.684  28.113  0.00  0.00    +0.015 A 
ATOM     27  C   UNL     1       4.968   0.240  28.828  0.00  0.00    +0.050 A 
ATOM     28  C   UNL     1       4.017  -0.536  28.192  0.00  0.00    +0.158 A 
ATOM     29  C   UNL     1       4.187  -0.909  26.860  0.00  0.00    +0.159 A 
ATOM     30  C   UNL     1       5.309  -0.491  26.148  0.00  0.00    +0.060 A 
BRANCH  28  31
ATOM     31  O   UNL     1       2.886  -0.898  28.863  0.00  0.00    -0.503 OA
ATOM     32  H   UNL     1       2.314  -1.313  28.188  0.00  0.00    +0.292 HD
ENDBRANCH  28  31
BRANCH  29  33
ATOM     33  O   UNL     1       3.195  -1.657  26.282  0.00  0.00    -0.503 OA
ATOM     34  H   UNL     1       2.360  -1.467  26.743  0.00  0.00    +0.292 HD
ENDBRANCH  29  33
ENDBRANCH  18  25
BRANCH  14  36
ATOM     35  C   UNL     1      10.146   7.107  25.873  0.00  0.00    +0.277 C 
ATOM     36  O   UNL     1       9.056   6.708  25.041  0.00  0.00    -0.495 OA
ENDBRANCH  14  36
BRANCH  23  37
ATOM     37  O   UNL     1      10.567   2.903  22.672  0.00  0.00    -0.506 OA
ATOM     38  H   UNL     1      11.154   3.577  22.297  0.00  0.00    +0.292 HD
ENDBRANCH  23  37
ENDBRANCH  13  19
ENDBRANCH   1  13
BRANCH   3  39
ATOM     39  C   UNL     1       4.855  -3.515  23.313  0.00  0.00    +0.197 C 
BRANCH  39  40
ATOM     40  O   UNL     1       4.527  -4.809  23.840  0.00  0.00    -0.346 OA
BRANCH  40  41
ATOM     41  C   UNL     1       3.734  -4.730  25.035  0.00  0.00    +0.282 C 
ATOM     42  O   UNL     1       4.563  -4.566  26.189  0.00  0.00    -0.341 OA
ATOM     43  C   UNL     1       5.511  -5.637  26.361  0.00  0.00    +0.178 C 
ATOM     44  C   UNL     1       4.821  -7.014  26.478  0.00  0.00    +0.177 C 
ATOM     45  C   UNL     1       3.836  -7.234  25.320  0.00  0.00    +0.179 C 
ATOM     46  C   UNL     1       2.899  -6.025  25.167  0.00  0.00    +0.201 C 
BRANCH  44  47
ATOM     47  O   UNL     1       4.117  -7.114  27.720  0.00  0.00    -0.386 OA
ATOM     48  H   UNL     1       3.337  -6.532  27.671  0.00  0.00    +0.210 HD
ENDBRANCH  44  47
BRANCH  45  49
ATOM     49  O   UNL     1       4.541  -7.490  24.093  0.00  0.00    -0.386 OA
ATOM     50  H   UNL     1       5.116  -8.269  24.240  0.00  0.00    +0.210 HD
ENDBRANCH  45  49
BRANCH  46  51
ATOM     51  O   UNL     1       2.047  -6.222  24.030  0.00  0.00    -0.384 OA
ATOM     52  H   UNL     1       1.395  -6.903  24.288  0.00  0.00    +0.210 HD
ENDBRANCH  46  51
BRANCH  43  53
ATOM     53  C   UNL     1       6.376  -5.325  27.594  0.00  0.00    +0.190 C 
BRANCH  53  54
ATOM     54  O   UNL     1       7.729  -5.767  27.441  0.00  0.00    -0.392 OA
ATOM     55  H   UNL     1       8.070  -6.036  28.310  0.00  0.00    +0.210 HD
ENDBRANCH  53  54
ENDBRANCH  43  53
ENDBRANCH  40  41
ENDBRANCH  39  40
ENDBRANCH   3  39
TORSDOF 18
ENDMDL
MODEL 2
REMARK VINA RESULT:      -7.3      1.756      4.649
REMARK  Name = 
REMARK  19 active torsions:
REMARK  status: ('A' for Active; 'I' for Inactive)
REMARK    1  A    between atoms: C_1  and  O_2
REMARK    2  A    between atoms: O_2  and  C_3
REMARK    3  A    between atoms: C_5  and  O_51
REMARK    4  A    between atoms: C_10  and  C_43
REMARK    5  A    between atoms: C_11  and  O_14
REMARK    6  A    between atoms: O_14  and  C_15
REMARK    7  A    between atoms: C_17  and  O_42
REMARK    8  A    between atoms: C_18  and  O_41
REMARK    9  A    between atoms: C_20  and  O_40
REMARK   10  A    between atoms: C_22  and  C_24
REMARK   11  A    between atoms: C_24  and  O_25
REMARK   12  A    between atoms: O_25  and  C_26
REMARK   13  A    between atoms: C_28  and  O_39
REMARK   14  A    between atoms: C_29  and  O_38
REMARK   15  A    between atoms: C_31  and  O_37
REMARK   16  A    between atoms: C_33  and  C_35
REMARK   17  A    between atoms: C_35  and  O_36
REMARK   18  A    between atoms: C_45  and  O_50
REMARK   19  A    between atoms: C_46  and  O_49
REMARK                            x       y       z     vdW  Elec       q    Type
REMARK                         _______ _______ _______ _____ _____    ______ ____
ROOT
ATOM      1  C   UNL     1       6.945   1.020  26.567  0.00  0.00    +0.340 C 
ATOM      2  O   UNL     1       7.212  -0.388  26.627  0.00  0.00    -0.331 OA
ATOM      3  C   UNL     1       6.129  -1.227  26.206  0.00  0.00    +0.179 C 
ATOM      4  C   UNL     1       4.805  -0.938  26.950  0.00  0.00    +0.177 C 
ATOM      5  C   UNL     1       4.475   0.555  26.898  0.00  0.00    +0.180 C 
ATOM      6  C   UNL     1       5.675   1.379  27.365  0.00  0.00    +0.214 C 
ENDROOT
BRANCH   4   7
ATOM      7  O   UNL     1       4.903  -1.349  28.319  0.00  0.00    -0.386 OA
ATOM      8  H   UNL     1       5.705  -0.942  28.697  0.00  0.00    +0.210 HD
ENDBRANCH   4   7
BRANCH   5   9
ATOM      9  O   UNL     1       4.055   0.958  25.587  0.00  0.00    -0.386 OA
ATOM     10  H   UNL     1       3.480   0.267  25.206  0.00  0.00    +0.210 HD
ENDBRANCH   5   9
BRANCH   6  11
ATOM     11  O   UNL     1       5.375   2.779  27.271  0.00  0.00    -0.383 OA
ATOM     12  H   UNL     1       4.657   2.862  26.616  0.00  0.00    +0.210 HD
ENDBRANCH   6  11
BRANCH   1  13
ATOM     13  O   UNL     1       6.829   1.508  25.207  0.00  0.00    -0.453 OA
BRANCH  13  19
ATOM     14  C   UNL     1      11.680   5.428  23.544  0.00  0.00    +0.127 A 
ATOM     15  C   UNL     1      11.451   4.071  23.297  0.00  0.00    +0.092 A 
ATOM     16  C   UNL     1      10.272   3.481  23.747  0.00  0.00    +0.147 A 
ATOM     17  O   UNL     1      10.048   2.164  23.456  0.00  0.00    -0.451 OA
ATOM     18  C   UNL     1       8.943   1.521  24.026  0.00  0.00    +0.181 A 
ATOM     19  C   UNL     1       7.917   2.172  24.636  0.00  0.00    +0.214 A 
ATOM     20  C   UNL     1       8.005   3.665  24.554  0.00  0.00    +0.238 A 
ATOM     21  O   UNL     1       7.032   4.394  24.421  0.00  0.00    -0.283 OA
ATOM     22  C   UNL     1       9.338   4.244  24.423  0.00  0.00    +0.109 A 
ATOM     23  C   UNL     1       9.617   5.562  24.778  0.00  0.00    +0.135 A 
ATOM     24  C   UNL     1      10.795   6.158  24.337  0.00  0.00    +0.092 A 
BRANCH  18  25
ATOM     25  C   UNL     1       9.009   0.056  23.764  0.00  0.00    +0.025 A 
ATOM     26  C   UNL     1       9.892  -0.769  24.482  0.00  0.00    +0.015 A 
ATOM     27  C   UNL     1       9.822  -2.165  24.386  0.00  0.00    +0.050 A 
ATOM     28  C   UNL     1       8.849  -2.745  23.593  0.00  0.00    +0.158 A 
ATOM     29  C   UNL     1       7.968  -1.950  22.863  0.00  0.00    +0.159 A 
ATOM     30  C   UNL     1       8.047  -0.561  22.934  0.00  0.00    +0.060 A 
BRANCH  28  31
ATOM     31  O   UNL     1       8.726  -4.103  23.566  0.00  0.00    -0.503 OA
ATOM     32  H   UNL     1       9.612  -4.442  23.803  0.00  0.00    +0.292 HD
ENDBRANCH  28  31
BRANCH  29  33
ATOM     33  O   UNL     1       7.012  -2.588  22.118  0.00  0.00    -0.503 OA
ATOM     34  H   UNL     1       7.284  -3.514  21.995  0.00  0.00    +0.292 HD
ENDBRANCH  29  33
ENDBRANCH  18  25
BRANCH  14  36
ATOM     35  C   UNL     1      13.328   5.551  21.884  0.00  0.00    +0.277 C 
ATOM     36  O   UNL     1      12.755   6.124  23.060  0.00  0.00    -0.495 OA
ENDBRANCH  14  36
BRANCH  23  37
ATOM     37  O   UNL     1       8.744   6.257  25.563  0.00  0.00    -0.506 OA
ATOM     38  H   UNL     1       9.194   6.580  26.359  0.00  0.00    +0.292 HD
ENDBRANCH  23  37
ENDBRANCH  13  19
ENDBRANCH   1  13
BRANCH   3  39
ATOM     39  C   UNL     1       6.541  -2.702  26.380  0.00  0.00    +0.197 C 
BRANCH  39  40
ATOM     40  O   UNL     1       5.741  -3.499  25.495  0.00  0.00    -0.346 OA
BRANCH  40  41
ATOM     41  C   UNL     1       5.990  -4.905  25.649  0.00  0.00    +0.282 C 
ATOM     42  O   UNL     1       6.370  -5.496  24.403  0.00  0.00    -0.341 OA
ATOM     43  C   UNL     1       5.373  -5.337  23.374  0.00  0.00    +0.178 C 
ATOM     44  C   UNL     1       4.012  -5.945  23.781  0.00  0.00    +0.177 C 
ATOM     45  C   UNL     1       3.573  -5.432  25.160  0.00  0.00    +0.179 C 
ATOM     46  C   UNL     1       4.709  -5.585  26.184  0.00  0.00    +0.201 C 
BRANCH  44  47
ATOM     47  O   UNL     1       4.097  -7.373  23.815  0.00  0.00    -0.386 OA
ATOM     48  H   UNL     1       3.579  -7.723  23.067  0.00  0.00    +0.210 HD
ENDBRANCH  44  47
BRANCH  45  49
ATOM     49  O   UNL     1       3.141  -4.062  25.080  0.00  0.00    -0.386 OA
ATOM     50  H   UNL     1       3.817  -3.569  24.570  0.00  0.00    +0.210 HD
ENDBRANCH  45  49
BRANCH  46  51
ATOM     51  O   UNL     1       4.299  -5.024  27.440  0.00  0.00    -0.384 OA
ATOM     52  H   UNL     1       5.107  -4.937  27.980  0.00  0.00    +0.210 HD
ENDBRANCH  46  51
BRANCH  43  53
ATOM     53  C   UNL     1       5.912  -5.960  22.076  0.00  0.00    +0.190 C 
BRANCH  53  54
ATOM     54  O   UNL     1       7.236  -5.514  21.761  0.00  0.00    -0.392 OA
ATOM     55  H   UNL     1       7.182  -4.624  21.376  0.00  0.00    +0.210 HD
ENDBRANCH  53  54
ENDBRANCH  43  53
ENDBRANCH  40  41
ENDBRANCH  39  40
ENDBRANCH   3  39
TORSDOF 18
ENDMDL
MODEL 3
REMARK VINA RESULT:      -7.2      1.688      4.416
REMARK  Name = 
REMARK  19 active torsions:
REMARK  status: ('A' for Active; 'I' for Inactive)
REMARK    1  A    between atoms: C_1  and  O_2
REMARK    2  A    between atoms: O_2  and  C_3
REMARK    3  A    between atoms: C_5  and  O_51
REMARK    4  A    between atoms: C_10  and  C_43
REMARK    5  A    between atoms: C_11  and  O_14
REMARK    6  A    between atoms: O_14  and  C_15
REMARK    7  A    between atoms: C_17  and  O_42
REMARK    8  A    between atoms: C_18  and  O_41
REMARK    9  A    between atoms: C_20  and  O_40
REMARK   10  A    between atoms: C_22  and  C_24
REMARK   11  A    between atoms: C_24  and  O_25
REMARK   12  A    between atoms: O_25  and  C_26
REMARK   13  A    between atoms: C_28  and  O_39
REMARK   14  A    between atoms: C_29  and  O_38
REMARK   15  A    between atoms: C_31  and  O_37
REMARK   16  A    between atoms: C_33  and  C_35
REMARK   17  A    between atoms: C_35  and  O_36
REMARK   18  A    between atoms: C_45  and  O_50
REMARK   19  A    between atoms: C_46  and  O_49
REMARK                            x       y       z     vdW  Elec       q    Type
REMARK                         _______ _______ _______ _____ _____    ______ ____
ROOT
ATOM      1  C   UNL     1       6.662   0.939  26.539  0.00  0.00    +0.340 C 
ATOM      2  O   UNL     1       6.683  -0.487  26.681  0.00  0.00    -0.331 OA
ATOM      3  C   UNL     1       5.460  -1.148  26.331  0.00  0.00    +0.179 C 
ATOM      4  C   UNL     1       4.226  -0.590  27.078  0.00  0.00    +0.177 C 
ATOM      5  C   UNL     1       4.158   0.932  26.938  0.00  0.00    +0.180 C 
ATOM      6  C   UNL     1       5.495   1.560  27.334  0.00  0.00    +0.214 C 
ENDROOT
BRANCH   4   7
ATOM      7  O   UNL     1       4.289  -0.931  28.468  0.00  0.00    -0.386 OA
ATOM      8  H   UNL     1       5.223  -0.887  28.744  0.00  0.00    +0.210 HD
ENDBRANCH   4   7
BRANCH   5   9
ATOM      9  O   UNL     1       3.780   1.325  25.612  0.00  0.00    -0.386 OA
ATOM     10  H   UNL     1       4.230   2.160  25.382  0.00  0.00    +0.210 HD
ENDBRANCH   5   9
BRANCH   6  11
ATOM     11  O   UNL     1       5.439   2.983  27.158  0.00  0.00    -0.383 OA
ATOM     12  H   UNL     1       6.357   3.305  27.236  0.00  0.00    +0.210 HD
ENDBRANCH   6  11
BRANCH   1  13
ATOM     13  O   UNL     1       6.596   1.361  25.153  0.00  0.00    -0.453 OA
BRANCH  13  19
ATOM     14  C   UNL     1      11.465   5.298  23.588  0.00  0.00    +0.127 A 
ATOM     15  C   UNL     1      11.237   3.944  23.320  0.00  0.00    +0.092 A 
ATOM     16  C   UNL     1      10.053   3.350  23.751  0.00  0.00    +0.147 A 
ATOM     17  O   UNL     1       9.830   2.037  23.440  0.00  0.00    -0.451 OA
ATOM     18  C   UNL     1       8.720   1.387  23.991  0.00  0.00    +0.181 A 
ATOM     19  C   UNL     1       7.689   2.031  24.600  0.00  0.00    +0.214 A 
ATOM     20  C   UNL     1       7.779   3.524  24.540  0.00  0.00    +0.238 A 
ATOM     21  O   UNL     1       6.808   4.257  24.408  0.00  0.00    -0.283 OA
ATOM     22  C   UNL     1       9.113   4.104  24.429  0.00  0.00    +0.109 A 
ATOM     23  C   UNL     1       9.391   5.417  24.804  0.00  0.00    +0.135 A 
ATOM     24  C   UNL     1      10.573   6.018  24.382  0.00  0.00    +0.092 A 
BRANCH  18  25
ATOM     25  C   UNL     1       8.787  -0.074  23.710  0.00  0.00    +0.025 A 
ATOM     26  C   UNL     1       9.898  -0.838  24.107  0.00  0.00    +0.015 A 
ATOM     27  C   UNL     1       9.884  -2.236  24.027  0.00  0.00    +0.050 A 
ATOM     28  C   UNL     1       8.748  -2.882  23.576  0.00  0.00    +0.158 A 
ATOM     29  C   UNL     1       7.637  -2.148  23.165  0.00  0.00    +0.159 A 
ATOM     30  C   UNL     1       7.651  -0.756  23.220  0.00  0.00    +0.060 A 
BRANCH  28  31
ATOM     31  O   UNL     1       8.704  -4.244  23.578  0.00  0.00    -0.503 OA
ATOM     32  H   UNL     1       7.800  -4.468  23.279  0.00  0.00    +0.292 HD
ENDBRANCH  28  31
BRANCH  29  33
ATOM     33  O   UNL     1       6.534  -2.849  22.754  0.00  0.00    -0.503 OA
ATOM     34  H   UNL     1       5.843  -2.759  23.432  0.00  0.00    +0.292 HD
ENDBRANCH  29  33
ENDBRANCH  18  25
BRANCH  14  36
ATOM     35  C   UNL     1      13.183   5.393  21.999  0.00  0.00    +0.277 C 
ATOM     36  O   UNL     1      12.544   5.999  23.123  0.00  0.00    -0.495 OA
ENDBRANCH  14  36
BRANCH  23  37
ATOM     37  O   UNL     1       8.511   6.102  25.591  0.00  0.00    -0.506 OA
ATOM     38  H   UNL     1       7.742   6.380  25.070  0.00  0.00    +0.292 HD
ENDBRANCH  23  37
ENDBRANCH  13  19
ENDBRANCH   1  13
BRANCH   3  39
ATOM     39  C   UNL     1       5.616  -2.659  26.589  0.00  0.00    +0.197 C 
BRANCH  39  40
ATOM     40  O   UNL     1       5.293  -3.358  25.377  0.00  0.00    -0.346 OA
BRANCH  40  41
ATOM     41  C   UNL     1       4.012  -4.003  25.441  0.00  0.00    +0.282 C 
ATOM     42  O   UNL     1       3.864  -4.726  26.665  0.00  0.00    -0.341 OA
ATOM     43  C   UNL     1       4.874  -5.737  26.852  0.00  0.00    +0.178 C 
ATOM     44  C   UNL     1       4.886  -6.769  25.702  0.00  0.00    +0.177 C 
ATOM     45  C   UNL     1       4.949  -6.068  24.337  0.00  0.00    +0.179 C 
ATOM     46  C   UNL     1       3.879  -4.969  24.241  0.00  0.00    +0.201 C 
BRANCH  44  47
ATOM     47  O   UNL     1       3.714  -7.587  25.757  0.00  0.00    -0.386 OA
ATOM     48  H   UNL     1       3.021  -7.157  25.225  0.00  0.00    +0.210 HD
ENDBRANCH  44  47
BRANCH  45  49
ATOM     49  O   UNL     1       6.259  -5.524  24.103  0.00  0.00    -0.386 OA
ATOM     50  H   UNL     1       6.735  -5.522  24.960  0.00  0.00    +0.210 HD
ENDBRANCH  45  49
BRANCH  46  51
ATOM     51  O   UNL     1       4.014  -4.278  22.990  0.00  0.00    -0.384 OA
ATOM     52  H   UNL     1       4.236  -4.956  22.323  0.00  0.00    +0.210 HD
ENDBRANCH  46  51
BRANCH  43  53
ATOM     53  C   UNL     1       4.645  -6.406  28.217  0.00  0.00    +0.190 C 
BRANCH  53  54
ATOM     54  O   UNL     1       5.417  -7.601  28.379  0.00  0.00    -0.392 OA
ATOM     55  H   UNL     1       5.168  -8.022  29.219  0.00  0.00    +0.210 HD
ENDBRANCH  53  54
ENDBRANCH  43  53
ENDBRANCH  40  41
ENDBRANCH  39  40
ENDBRANCH   3  39
TORSDOF 18
ENDMDL
MODEL 4
REMARK VINA RESULT:      -7.2      1.963      5.786
REMARK  Name = 
REMARK  19 active torsions:
REMARK  status: ('A' for Active; 'I' for Inactive)
REMARK    1  A    between atoms: C_1  and  O_2
REMARK    2  A    between atoms: O_2  and  C_3
REMARK    3  A    between atoms: C_5  and  O_51
REMARK    4  A    between atoms: C_10  and  C_43
REMARK    5  A    between atoms: C_11  and  O_14
REMARK    6  A    between atoms: O_14  and  C_15
REMARK    7  A    between atoms: C_17  and  O_42
REMARK    8  A    between atoms: C_18  and  O_41
REMARK    9  A    between atoms: C_20  and  O_40
REMARK   10  A    between atoms: C_22  and  C_24
REMARK   11  A    between atoms: C_24  and  O_25
REMARK   12  A    between atoms: O_25  and  C_26
REMARK   13  A    between atoms: C_28  and  O_39
REMARK   14  A    between atoms: C_29  and  O_38
REMARK   15  A    between atoms: C_31  and  O_37
REMARK   16  A    between atoms: C_33  and  C_35
REMARK   17  A    between atoms: C_35  and  O_36
REMARK   18  A    between atoms: C_45  and  O_50
REMARK   19  A    between atoms: C_46  and  O_49
REMARK                            x       y       z     vdW  Elec       q    Type
REMARK                         _______ _______ _______ _____ _____    ______ ____
ROOT
ATOM      1  C   UNL     1       8.019   0.615  23.211  0.00  0.00    +0.340 C 
ATOM      2  O   UNL     1       7.613  -0.692  22.783  0.00  0.00    -0.331 OA
ATOM      3  C   UNL     1       8.456  -1.763  23.229  0.00  0.00    +0.179 C 
ATOM      4  C   UNL     1       9.946  -1.560  22.870  0.00  0.00    +0.177 C 
ATOM      5  C   UNL     1      10.424  -0.179  23.323  0.00  0.00    +0.180 C 
ATOM      6  C   UNL     1       9.478   0.905  22.804  0.00  0.00    +0.214 C 
ENDROOT
BRANCH   4   7
ATOM      7  O   UNL     1      10.139  -1.683  21.456  0.00  0.00    -0.386 OA
ATOM      8  H   UNL     1      10.300  -2.623  21.257  0.00  0.00    +0.210 HD
ENDBRANCH   4   7
BRANCH   5   9
ATOM      9  O   UNL     1      10.554  -0.106  24.749  0.00  0.00    -0.386 OA
ATOM     10  H   UNL     1      10.057   0.666  25.080  0.00  0.00    +0.210 HD
ENDBRANCH   5   9
BRANCH   6  11
ATOM     11  O   UNL     1       9.906   2.192  23.269  0.00  0.00    -0.383 OA
ATOM     12  H   UNL     1       9.105   2.747  23.319  0.00  0.00    +0.210 HD
ENDBRANCH   6  11
BRANCH   1  13
ATOM     13  O   UNL     1       7.854   0.812  24.638  0.00  0.00    -0.453 OA
BRANCH  13  19
ATOM     14  C   UNL     1       2.205   1.571  27.664  0.00  0.00    +0.127 A 
ATOM     15  C   UNL     1       3.038   2.479  27.004  0.00  0.00    +0.092 A 
ATOM     16  C   UNL     1       4.201   2.021  26.390  0.00  0.00    +0.147 A 
ATOM     17  O   UNL     1       4.979   2.917  25.711  0.00  0.00    -0.451 OA
ATOM     18  C   UNL     1       6.222   2.502  25.218  0.00  0.00    +0.181 A 
ATOM     19  C   UNL     1       6.605   1.201  25.123  0.00  0.00    +0.214 A 
ATOM     20  C   UNL     1       5.535   0.220  25.492  0.00  0.00    +0.238 A 
ATOM     21  O   UNL     1       5.379  -0.855  24.929  0.00  0.00    -0.283 OA
ATOM     22  C   UNL     1       4.514   0.674  26.431  0.00  0.00    +0.109 A 
ATOM     23  C   UNL     1       3.752  -0.211  27.191  0.00  0.00    +0.135 A 
ATOM     24  C   UNL     1       2.591   0.239  27.812  0.00  0.00    +0.092 A 
BRANCH  18  25
ATOM     25  C   UNL     1       6.993   3.674  24.717  0.00  0.00    +0.025 A 
ATOM     26  C   UNL     1       8.081   4.189  25.444  0.00  0.00    +0.015 A 
ATOM     27  C   UNL     1       8.930   5.156  24.891  0.00  0.00    +0.050 A 
ATOM     28  C   UNL     1       8.715   5.593  23.597  0.00  0.00    +0.158 A 
ATOM     29  C   UNL     1       7.638   5.107  22.859  0.00  0.00    +0.159 A 
ATOM     30  C   UNL     1       6.774   4.162  23.410  0.00  0.00    +0.060 A 
BRANCH  28  31
ATOM     31  O   UNL     1       9.591   6.469  23.029  0.00  0.00    -0.503 OA
ATOM     32  H   UNL     1      10.461   6.025  23.076  0.00  0.00    +0.292 HD
ENDBRANCH  28  31
BRANCH  29  33
ATOM     33  O   UNL     1       7.496   5.561  21.574  0.00  0.00    -0.503 OA
ATOM     34  H   UNL     1       8.322   5.381  21.092  0.00  0.00    +0.292 HD
ENDBRANCH  29  33
ENDBRANCH  18  25
BRANCH  14  36
ATOM     35  C   UNL     1       0.623   1.084  29.322  0.00  0.00    +0.277 C 
ATOM     36  O   UNL     1       0.994   1.901  28.211  0.00  0.00    -0.495 OA
ENDBRANCH  14  36
BRANCH  23  37
ATOM     37  O   UNL     1       4.153  -1.508  27.333  0.00  0.00    -0.506 OA
ATOM     38  H   UNL     1       3.676  -1.927  28.065  0.00  0.00    +0.292 HD
ENDBRANCH  23  37
ENDBRANCH  13  19
ENDBRANCH   1  13
BRANCH   3  39
ATOM     39  C   UNL     1       7.930  -3.089  22.647  0.00  0.00    +0.197 C 
BRANCH  39  40
ATOM     40  O   UNL     1       6.987  -3.644  23.576  0.00  0.00    -0.346 OA
BRANCH  40  41
ATOM     41  C   UNL     1       7.276  -5.014  23.898  0.00  0.00    +0.282 C 
ATOM     42  O   UNL     1       6.122  -5.838  23.712  0.00  0.00    -0.341 OA
ATOM     43  C   UNL     1       4.997  -5.426  24.514  0.00  0.00    +0.178 C 
ATOM     44  C   UNL     1       5.327  -5.423  26.023  0.00  0.00    +0.177 C 
ATOM     45  C   UNL     1       6.614  -4.633  26.302  0.00  0.00    +0.179 C 
ATOM     46  C   UNL     1       7.746  -5.092  25.369  0.00  0.00    +0.201 C 
BRANCH  44  47
ATOM     47  O   UNL     1       5.485  -6.763  26.500  0.00  0.00    -0.386 OA
ATOM     48  H   UNL     1       6.373  -7.070  26.245  0.00  0.00    +0.210 HD
ENDBRANCH  44  47
BRANCH  45  49
ATOM     49  O   UNL     1       6.385  -3.220  26.165  0.00  0.00    -0.386 OA
ATOM     50  H   UNL     1       7.260  -2.781  26.136  0.00  0.00    +0.210 HD
ENDBRANCH  45  49
BRANCH  46  51
ATOM     51  O   UNL     1       8.910  -4.283  25.595  0.00  0.00    -0.384 OA
ATOM     52  H   UNL     1       8.608  -3.354  25.576  0.00  0.00    +0.210 HD
ENDBRANCH  46  51
BRANCH  43  53
ATOM     53  C   UNL     1       3.809  -6.346  24.191  0.00  0.00    +0.190 C 
BRANCH  53  54
ATOM     54  O   UNL     1       4.197  -7.717  24.053  0.00  0.00    -0.392 OA
ATOM     55  H   UNL     1       4.166  -7.958  23.113  0.00  0.00    +0.210 HD
ENDBRANCH  53  54
ENDBRANCH  43  53
ENDBRANCH  40  41
ENDBRANCH  39  40
ENDBRANCH   3  39
TORSDOF 18
ENDMDL
MODEL 5
REMARK VINA RESULT:      -7.0      1.981      9.342
REMARK  Name = 
REMARK  19 active torsions:
REMARK  status: ('A' for Active; 'I' for Inactive)
REMARK    1  A    between atoms: C_1  and  O_2
REMARK    2  A    between atoms: O_2  and  C_3
REMARK    3  A    between atoms: C_5  and  O_51
REMARK    4  A    between atoms: C_10  and  C_43
REMARK    5  A    between atoms: C_11  and  O_14
REMARK    6  A    between atoms: O_14  and  C_15
REMARK    7  A    between atoms: C_17  and  O_42
REMARK    8  A    between atoms: C_18  and  O_41
REMARK    9  A    between atoms: C_20  and  O_40
REMARK   10  A    between atoms: C_22  and  C_24
REMARK   11  A    between atoms: C_24  and  O_25
REMARK   12  A    between atoms: O_25  and  C_26
REMARK   13  A    between atoms: C_28  and  O_39
REMARK   14  A    between atoms: C_29  and  O_38
REMARK   15  A    between atoms: C_31  and  O_37
REMARK   16  A    between atoms: C_33  and  C_35
REMARK   17  A    between atoms: C_35  and  O_36
REMARK   18  A    between atoms: C_45  and  O_50
REMARK   19  A    between atoms: C_46  and  O_49
REMARK                            x       y       z     vdW  Elec       q    Type
REMARK                         _______ _______ _______ _____ _____    ______ ____
ROOT
ATOM      1  C   UNL     1       5.034  -0.218  26.616  0.00  0.00    +0.340 C 
ATOM      2  O   UNL     1       4.895   0.373  25.317  0.00  0.00    -0.331 OA
ATOM      3  C   UNL     1       5.970   1.238  24.927  0.00  0.00    +0.179 C 
ATOM      4  C   UNL     1       6.260   2.355  25.955  0.00  0.00    +0.177 C 
ATOM      5  C   UNL     1       6.431   1.764  27.356  0.00  0.00    +0.180 C 
ATOM      6  C   UNL     1       5.245   0.861  27.698  0.00  0.00    +0.214 C 
ENDROOT
BRANCH   4   7
ATOM      7  O   UNL     1       5.188   3.306  25.974  0.00  0.00    -0.386 OA
ATOM      8  H   UNL     1       4.573   3.076  25.254  0.00  0.00    +0.210 HD
ENDBRANCH   4   7
BRANCH   5   9
ATOM      9  O   UNL     1       7.669   1.054  27.483  0.00  0.00    -0.386 OA
ATOM     10  H   UNL     1       7.985   0.793  26.596  0.00  0.00    +0.210 HD
ENDBRANCH   5   9
BRANCH   6  11
ATOM     11  O   UNL     1       5.432   0.276  28.994  0.00  0.00    -0.383 OA
ATOM     12  H   UNL     1       5.431  -0.691  28.861  0.00  0.00    +0.210 HD
ENDBRANCH   6  11
BRANCH   1  13
ATOM     13  O   UNL     1       6.107  -1.192  26.674  0.00  0.00    -0.453 OA
BRANCH  13  19
ATOM     14  C   UNL     1       3.655  -6.967  25.159  0.00  0.00    +0.127 A 
ATOM     15  C   UNL     1       4.806  -6.301  24.729  0.00  0.00    +0.092 A 
ATOM     16  C   UNL     1       5.120  -5.056  25.268  0.00  0.00    +0.147 A 
ATOM     17  O   UNL     1       6.274  -4.442  24.866  0.00  0.00    -0.451 OA
ATOM     18  C   UNL     1       6.527  -3.130  25.284  0.00  0.00    +0.181 A 
ATOM     19  C   UNL     1       5.844  -2.506  26.281  0.00  0.00    +0.214 A 
ATOM     20  C   UNL     1       4.855  -3.381  26.986  0.00  0.00    +0.238 A 
ATOM     21  O   UNL     1       4.628  -3.316  28.187  0.00  0.00    -0.283 OA
ATOM     22  C   UNL     1       4.297  -4.496  26.228  0.00  0.00    +0.109 A 
ATOM     23  C   UNL     1       3.087  -5.099  26.567  0.00  0.00    +0.135 A 
ATOM     24  C   UNL     1       2.763  -6.341  26.029  0.00  0.00    +0.092 A 
BRANCH  18  25
ATOM     25  C   UNL     1       7.708  -2.579  24.563  0.00  0.00    +0.025 A 
ATOM     26  C   UNL     1       8.973  -3.180  24.679  0.00  0.00    +0.015 A 
ATOM     27  C   UNL     1      10.039  -2.794  23.856  0.00  0.00    +0.050 A 
ATOM     28  C   UNL     1       9.839  -1.824  22.892  0.00  0.00    +0.158 A 
ATOM     29  C   UNL     1       8.597  -1.204  22.763  0.00  0.00    +0.159 A 
ATOM     30  C   UNL     1       7.538  -1.565  23.593  0.00  0.00    +0.060 A 
BRANCH  28  31
ATOM     31  O   UNL     1      10.851  -1.509  22.035  0.00  0.00    -0.503 OA
ATOM     32  H   UNL     1      10.463  -1.597  21.142  0.00  0.00    +0.292 HD
ENDBRANCH  28  31
BRANCH  29  33
ATOM     33  O   UNL     1       8.457  -0.270  21.770  0.00  0.00    -0.503 OA
ATOM     34  H   UNL     1       8.637  -0.701  20.916  0.00  0.00    +0.292 HD
ENDBRANCH  29  33
ENDBRANCH  18  25
BRANCH  14  36
ATOM     35  C   UNL     1       1.902  -8.462  24.731  0.00  0.00    +0.277 C 
ATOM     36  O   UNL     1       3.311  -8.233  24.769  0.00  0.00    -0.495 OA
ENDBRANCH  14  36
BRANCH  23  37
ATOM     37  O   UNL     1       2.223  -4.465  27.412  0.00  0.00    -0.506 OA
ATOM     38  H   UNL     1       2.164  -4.945  28.252  0.00  0.00    +0.292 HD
ENDBRANCH  23  37
ENDBRANCH  13  19
ENDBRANCH   1  13
BRANCH   3  39
ATOM     39  C   UNL     1       5.652   1.838  23.544  0.00  0.00    +0.197 C 
BRANCH  39  40
ATOM     40  O   UNL     1       6.246   3.143  23.474  0.00  0.00    -0.346 OA
BRANCH  40  41
ATOM     41  C   UNL     1       7.229   3.242  22.431  0.00  0.00    +0.282 C 
ATOM     42  O   UNL     1       8.380   2.451  22.736  0.00  0.00    -0.341 OA
ATOM     43  C   UNL     1       9.014   2.828  23.974  0.00  0.00    +0.178 C 
ATOM     44  C   UNL     1       9.454   4.309  23.977  0.00  0.00    +0.177 C 
ATOM     45  C   UNL     1       8.294   5.227  23.566  0.00  0.00    +0.179 C 
ATOM     46  C   UNL     1       7.638   4.725  22.270  0.00  0.00    +0.201 C 
BRANCH  44  47
ATOM     47  O   UNL     1      10.550   4.503  23.077  0.00  0.00    -0.386 OA
ATOM     48  H   UNL     1      10.184   4.727  22.202  0.00  0.00    +0.210 HD
ENDBRANCH  44  47
BRANCH  45  49
ATOM     49  O   UNL     1       7.323   5.327  24.622  0.00  0.00    -0.386 OA
ATOM     50  H   UNL     1       7.339   4.481  25.117  0.00  0.00    +0.210 HD
ENDBRANCH  45  49
BRANCH  46  51
ATOM     51  O   UNL     1       6.508   5.553  21.954  0.00  0.00    -0.384 OA
ATOM     52  H   UNL     1       6.701   5.966  21.091  0.00  0.00    +0.210 HD
ENDBRANCH  46  51
BRANCH  43  53
ATOM     53  C   UNL     1      10.199   1.879  24.221  0.00  0.00    +0.190 C 
BRANCH  53  54
ATOM     54  O   UNL     1       9.938   0.936  25.266  0.00  0.00    -0.392 OA
ATOM     55  H   UNL     1       9.927   1.406  26.116  0.00  0.00    +0.210 HD
ENDBRANCH  53  54
ENDBRANCH  43  53
ENDBRANCH  40  41
ENDBRANCH  39  40
ENDBRANCH   3  39
TORSDOF 18
ENDMDL
MODEL 6
REMARK VINA RESULT:      -6.9      2.771      8.687
REMARK  Name = 
REMARK  19 active torsions:
REMARK  status: ('A' for Active; 'I' for Inactive)
REMARK    1  A    between atoms: C_1  and  O_2
REMARK    2  A    between atoms: O_2  and  C_3
REMARK    3  A    between atoms: C_5  and  O_51
REMARK    4  A    between atoms: C_10  and  C_43
REMARK    5  A    between atoms: C_11  and  O_14
REMARK    6  A    between atoms: O_14  and  C_15
REMARK    7  A    between atoms: C_17  and  O_42
REMARK    8  A    between atoms: C_18  and  O_41
REMARK    9  A    between atoms: C_20  and  O_40
REMARK   10  A    between atoms: C_22  and  C_24
REMARK   11  A    between atoms: C_24  and  O_25
REMARK   12  A    between atoms: O_25  and  C_26
REMARK   13  A    between atoms: C_28  and  O_39
REMARK   14  A    between atoms: C_29  and  O_38
REMARK   15  A    between atoms: C_31  and  O_37
REMARK   16  A    between atoms: C_33  and  C_35
REMARK   17  A    between atoms: C_35  and  O_36
REMARK   18  A    between atoms: C_45  and  O_50
REMARK   19  A    between atoms: C_46  and  O_49
REMARK                            x       y       z     vdW  Elec       q    Type
REMARK                         _______ _______ _______ _____ _____    ______ ____
ROOT
ATOM      1  C   UNL     1       6.044   0.594  26.714  0.00  0.00    +0.340 C 
ATOM      2  O   UNL     1       6.300   1.780  25.951  0.00  0.00    -0.331 OA
ATOM      3  C   UNL     1       7.196   2.714  26.568  0.00  0.00    +0.179 C 
ATOM      4  C   UNL     1       6.768   3.122  27.997  0.00  0.00    +0.177 C 
ATOM      5  C   UNL     1       6.499   1.881  28.850  0.00  0.00    +0.180 C 
ATOM      6  C   UNL     1       5.533   0.941  28.128  0.00  0.00    +0.214 C 
ENDROOT
BRANCH   4   7
ATOM      7  O   UNL     1       5.584   3.927  27.952  0.00  0.00    -0.386 OA
ATOM      8  H   UNL     1       5.098   3.698  27.138  0.00  0.00    +0.210 HD
ENDBRANCH   4   7
BRANCH   5   9
ATOM      9  O   UNL     1       7.714   1.202  29.195  0.00  0.00    -0.386 OA
ATOM     10  H   UNL     1       7.930   1.382  30.130  0.00  0.00    +0.210 HD
ENDBRANCH   5   9
BRANCH   6  11
ATOM     11  O   UNL     1       5.319  -0.240  28.913  0.00  0.00    -0.383 OA
ATOM     12  H   UNL     1       5.490   0.012  29.840  0.00  0.00    +0.210 HD
ENDBRANCH   6  11
BRANCH   1  13
ATOM     13  O   UNL     1       7.203  -0.272  26.806  0.00  0.00    -0.453 OA
BRANCH  13  19
ATOM     14  C   UNL     1       6.838  -5.277  22.747  0.00  0.00    +0.127 A 
ATOM     15  C   UNL     1       7.551  -4.075  22.684  0.00  0.00    +0.092 A 
ATOM     16  C   UNL     1       7.476  -3.177  23.746  0.00  0.00    +0.147 A 
ATOM     17  O   UNL     1       8.215  -2.029  23.684  0.00  0.00    -0.451 OA
ATOM     18  C   UNL     1       8.036  -1.051  24.670  0.00  0.00    +0.181 A 
ATOM     19  C   UNL     1       7.379  -1.266  25.841  0.00  0.00    +0.214 A 
ATOM     20  C   UNL     1       6.945  -2.684  26.049  0.00  0.00    +0.238 A 
ATOM     21  O   UNL     1       6.949  -3.241  27.138  0.00  0.00    -0.283 OA
ATOM     22  C   UNL     1       6.707  -3.487  24.853  0.00  0.00    +0.109 A 
ATOM     23  C   UNL     1       5.901  -4.623  24.865  0.00  0.00    +0.135 A 
ATOM     24  C   UNL     1       5.965  -5.524  23.806  0.00  0.00    +0.092 A 
BRANCH  18  25
ATOM     25  C   UNL     1       8.761   0.195  24.297  0.00  0.00    +0.025 A 
ATOM     26  C   UNL     1      10.107   0.386  24.656  0.00  0.00    +0.015 A 
ATOM     27  C   UNL     1      10.851   1.456  24.143  0.00  0.00    +0.050 A 
ATOM     28  C   UNL     1      10.262   2.326  23.244  0.00  0.00    +0.158 A 
ATOM     29  C   UNL     1       8.926   2.166  22.880  0.00  0.00    +0.159 A 
ATOM     30  C   UNL     1       8.173   1.118  23.404  0.00  0.00    +0.060 A 
BRANCH  28  31
ATOM     31  O   UNL     1      11.009   3.317  22.680  0.00  0.00    -0.503 OA
ATOM     32  H   UNL     1      11.048   3.094  21.728  0.00  0.00    +0.292 HD
ENDBRANCH  28  31
BRANCH  29  33
ATOM     33  O   UNL     1       8.412   3.046  21.965  0.00  0.00    -0.503 OA
ATOM     34  H   UNL     1       7.485   2.804  21.793  0.00  0.00    +0.292 HD
ENDBRANCH  29  33
ENDBRANCH  18  25
BRANCH  14  36
ATOM     35  C   UNL     1       6.166  -6.005  20.624  0.00  0.00    +0.277 C 
ATOM     36  O   UNL     1       6.924  -6.268  21.806  0.00  0.00    -0.495 OA
ENDBRANCH  14  36
BRANCH  23  37
ATOM     37  O   UNL     1       5.045  -4.841  25.906  0.00  0.00    -0.506 OA
ATOM     38  H   UNL     1       4.420  -4.104  25.984  0.00  0.00    +0.292 HD
ENDBRANCH  23  37
ENDBRANCH  13  19
ENDBRANCH   1  13
BRANCH   3  39
ATOM     39  C   UNL     1       7.327   3.955  25.663  0.00  0.00    +0.197 C 
BRANCH  39  40
ATOM     40  O   UNL     1       6.474   3.771  24.523  0.00  0.00    -0.346 OA
BRANCH  40  41
ATOM     41  C   UNL     1       5.534   4.844  24.364  0.00  0.00    +0.282 C 
ATOM     42  O   UNL     1       4.380   4.640  25.183  0.00  0.00    -0.341 OA
ATOM     43  C   UNL     1       3.692   3.407  24.894  0.00  0.00    +0.178 C 
ATOM     44  C   UNL     1       3.235   3.326  23.420  0.00  0.00    +0.177 C 
ATOM     45  C   UNL     1       4.401   3.628  22.467  0.00  0.00    +0.179 C 
ATOM     46  C   UNL     1       5.115   4.925  22.877  0.00  0.00    +0.201 C 
BRANCH  44  47
ATOM     47  O   UNL     1       2.175   4.256  23.177  0.00  0.00    -0.386 OA
ATOM     48  H   UNL     1       2.575   5.123  22.981  0.00  0.00    +0.210 HD
ENDBRANCH  44  47
BRANCH  45  49
ATOM     49  O   UNL     1       5.326   2.528  22.429  0.00  0.00    -0.386 OA
ATOM     50  H   UNL     1       5.222   2.085  21.561  0.00  0.00    +0.210 HD
ENDBRANCH  45  49
BRANCH  46  51
ATOM     51  O   UNL     1       6.247   5.138  22.021  0.00  0.00    -0.384 OA
ATOM     52  H   UNL     1       6.784   5.837  22.442  0.00  0.00    +0.210 HD
ENDBRANCH  46  51
BRANCH  43  53
ATOM     53  C   UNL     1       2.509   3.273  25.867  0.00  0.00    +0.190 C 
BRANCH  53  54
ATOM     54  O   UNL     1       1.547   2.306  25.432  0.00  0.00    -0.392 OA
ATOM     55  H   UNL     1       1.853   1.421  25.691  0.00  0.00    +0.210 HD
ENDBRANCH  53  54
ENDBRANCH  43  53
ENDBRANCH  40  41
ENDBRANCH  39  40
ENDBRANCH   3  39
TORSDOF 18
ENDMDL
MODEL 7
REMARK VINA RESULT:      -6.8      2.770      4.193
REMARK  Name = 
REMARK  19 active torsions:
REMARK  status: ('A' for Active; 'I' for Inactive)
REMARK    1  A    between atoms: C_1  and  O_2
REMARK    2  A    between atoms: O_2  and  C_3
REMARK    3  A    between atoms: C_5  and  O_51
REMARK    4  A    between atoms: C_10  and  C_43
REMARK    5  A    between atoms: C_11  and  O_14
REMARK    6  A    between atoms: O_14  and  C_15
REMARK    7  A    between atoms: C_17  and  O_42
REMARK    8  A    between atoms: C_18  and  O_41
REMARK    9  A    between atoms: C_20  and  O_40
REMARK   10  A    between atoms: C_22  and  C_24
REMARK   11  A    between atoms: C_24  and  O_25
REMARK   12  A    between atoms: O_25  and  C_26
REMARK   13  A    between atoms: C_28  and  O_39
REMARK   14  A    between atoms: C_29  and  O_38
REMARK   15  A    between atoms: C_31  and  O_37
REMARK   16  A    between atoms: C_33  and  C_35
REMARK   17  A    between atoms: C_35  and  O_36
REMARK   18  A    between atoms: C_45  and  O_50
REMARK   19  A    between atoms: C_46  and  O_49
REMARK                            x       y       z     vdW  Elec       q    Type
REMARK                         _______ _______ _______ _____ _____    ______ ____
ROOT
ATOM      1  C   UNL     1       8.211   1.082  22.540  0.00  0.00    +0.340 C 
ATOM      2  O   UNL     1       7.705  -0.254  22.420  0.00  0.00    -0.331 OA
ATOM      3  C   UNL     1       8.465  -1.253  23.112  0.00  0.00    +0.179 C 
ATOM      4  C   UNL     1       9.964  -1.252  22.735  0.00  0.00    +0.177 C 
ATOM      5  C   UNL     1      10.548   0.156  22.864  0.00  0.00    +0.180 C 
ATOM      6  C   UNL     1       9.686   1.159  22.097  0.00  0.00    +0.214 C 
ENDROOT
BRANCH   4   7
ATOM      7  O   UNL     1      10.140  -1.712  21.390  0.00  0.00    -0.386 OA
ATOM      8  H   UNL     1       9.392  -1.380  20.861  0.00  0.00    +0.210 HD
ENDBRANCH   4   7
BRANCH   5   9
ATOM      9  O   UNL     1      10.691   0.546  24.236  0.00  0.00    -0.386 OA
ATOM     10  H   UNL     1      10.291   1.428  24.365  0.00  0.00    +0.210 HD
ENDBRANCH   5   9
BRANCH   6  11
ATOM     11  O   UNL     1      10.214   2.483  22.258  0.00  0.00    -0.383 OA
ATOM     12  H   UNL     1      10.625   2.509  23.142  0.00  0.00    +0.210 HD
ENDBRANCH   6  11
BRANCH   1  13
ATOM     13  O   UNL     1       8.069   1.615  23.881  0.00  0.00    -0.453 OA
BRANCH  13  19
ATOM     14  C   UNL     1       3.526   6.199  23.852  0.00  0.00    +0.127 A 
ATOM     15  C   UNL     1       3.661   5.025  24.599  0.00  0.00    +0.092 A 
ATOM     16  C   UNL     1       4.790   4.229  24.426  0.00  0.00    +0.147 A 
ATOM     17  O   UNL     1       4.925   3.109  25.199  0.00  0.00    -0.451 OA
ATOM     18  C   UNL     1       5.975   2.222  24.934  0.00  0.00    +0.181 A 
ATOM     19  C   UNL     1       7.037   2.519  24.140  0.00  0.00    +0.214 A 
ATOM     20  C   UNL     1       7.056   3.933  23.647  0.00  0.00    +0.238 A 
ATOM     21  O   UNL     1       8.080   4.590  23.509  0.00  0.00    -0.283 OA
ATOM     22  C   UNL     1       5.769   4.611  23.527  0.00  0.00    +0.109 A 
ATOM     23  C   UNL     1       5.579   5.711  22.693  0.00  0.00    +0.135 A 
ATOM     24  C   UNL     1       4.451   6.511  22.855  0.00  0.00    +0.092 A 
BRANCH  18  25
ATOM     25  C   UNL     1       5.809   0.975  25.731  0.00  0.00    +0.025 A 
ATOM     26  C   UNL     1       5.840   1.003  27.137  0.00  0.00    +0.015 A 
ATOM     27  C   UNL     1       5.488  -0.121  27.894  0.00  0.00    +0.050 A 
ATOM     28  C   UNL     1       5.075  -1.274  27.251  0.00  0.00    +0.158 A 
ATOM     29  C   UNL     1       5.047  -1.333  25.859  0.00  0.00    +0.159 A 
ATOM     30  C   UNL     1       5.417  -0.226  25.098  0.00  0.00    +0.060 A 
BRANCH  28  31
ATOM     31  O   UNL     1       4.652  -2.340  27.988  0.00  0.00    -0.503 OA
ATOM     32  H   UNL     1       4.893  -2.122  28.910  0.00  0.00    +0.292 HD
ENDBRANCH  28  31
BRANCH  29  33
ATOM     33  O   UNL     1       4.603  -2.495  25.285  0.00  0.00    -0.503 OA
ATOM     34  H   UNL     1       3.966  -2.268  24.586  0.00  0.00    +0.292 HD
ENDBRANCH  29  33
ENDBRANCH  18  25
BRANCH  14  36
ATOM     35  C   UNL     1       1.278   6.695  23.418  0.00  0.00    +0.277 C 
ATOM     36  O   UNL     1       2.509   7.100  24.018  0.00  0.00    -0.495 OA
ENDBRANCH  14  36
BRANCH  23  37
ATOM     37  O   UNL     1       6.490   5.993  21.717  0.00  0.00    -0.506 OA
ATOM     38  H   UNL     1       6.744   5.181  21.252  0.00  0.00    +0.292 HD
ENDBRANCH  23  37
ENDBRANCH  13  19
ENDBRANCH   1  13
BRANCH   3  39
ATOM     39  C   UNL     1       7.836  -2.635  22.845  0.00  0.00    +0.197 C 
BRANCH  39  40
ATOM     40  O   UNL     1       7.421  -3.190  24.102  0.00  0.00    -0.346 OA
BRANCH  40  41
ATOM     41  C   UNL     1       7.773  -4.576  24.231  0.00  0.00    +0.282 C 
ATOM     42  O   UNL     1       6.702  -5.323  24.813  0.00  0.00    -0.341 OA
ATOM     43  C   UNL     1       6.319  -4.843  26.117  0.00  0.00    +0.178 C 
ATOM     44  C   UNL     1       7.498  -4.867  27.116  0.00  0.00    +0.177 C 
ATOM     45  C   UNL     1       8.729  -4.162  26.529  0.00  0.00    +0.179 C 
ATOM     46  C   UNL     1       9.035  -4.690  25.118  0.00  0.00    +0.201 C 
BRANCH  44  47
ATOM     47  O   UNL     1       7.841  -6.216  27.448  0.00  0.00    -0.386 OA
ATOM     48  H   UNL     1       8.329  -6.204  28.291  0.00  0.00    +0.210 HD
ENDBRANCH  44  47
BRANCH  45  49
ATOM     49  O   UNL     1       8.539  -2.737  26.508  0.00  0.00    -0.386 OA
ATOM     50  H   UNL     1       7.878  -2.537  25.813  0.00  0.00    +0.210 HD
ENDBRANCH  45  49
BRANCH  46  51
ATOM     51  O   UNL     1      10.138  -3.957  24.563  0.00  0.00    -0.384 OA
ATOM     52  H   UNL     1       9.992  -3.020  24.795  0.00  0.00    +0.210 HD
ENDBRANCH  46  51
BRANCH  43  53
ATOM     53  C   UNL     1       5.132  -5.684  26.615  0.00  0.00    +0.190 C 
BRANCH  53  54
ATOM     54  O   UNL     1       4.569  -5.175  27.828  0.00  0.00    -0.392 OA
ATOM     55  H   UNL     1       4.408  -4.223  27.723  0.00  0.00    +0.210 HD
ENDBRANCH  53  54
ENDBRANCH  43  53
ENDBRANCH  40  41
ENDBRANCH  39  40
ENDBRANCH   3  39
TORSDOF 18
ENDMDL
MODEL 8
REMARK VINA RESULT:      -6.8      2.129      8.945
REMARK  Name = 
REMARK  19 active torsions:
REMARK  status: ('A' for Active; 'I' for Inactive)
REMARK    1  A    between atoms: C_1  and  O_2
REMARK    2  A    between atoms: O_2  and  C_3
REMARK    3  A    between atoms: C_5  and  O_51
REMARK    4  A    between atoms: C_10  and  C_43
REMARK    5  A    between atoms: C_11  and  O_14
REMARK    6  A    between atoms: O_14  and  C_15
REMARK    7  A    between atoms: C_17  and  O_42
REMARK    8  A    between atoms: C_18  and  O_41
REMARK    9  A    between atoms: C_20  and  O_40
REMARK   10  A    between atoms: C_22  and  C_24
REMARK   11  A    between atoms: C_24  and  O_25
REMARK   12  A    between atoms: O_25  and  C_26
REMARK   13  A    between atoms: C_28  and  O_39
REMARK   14  A    between atoms: C_29  and  O_38
REMARK   15  A    between atoms: C_31  and  O_37
REMARK   16  A    between atoms: C_33  and  C_35
REMARK   17  A    between atoms: C_35  and  O_36
REMARK   18  A    between atoms: C_45  and  O_50
REMARK   19  A    between atoms: C_46  and  O_49
REMARK                            x       y       z     vdW  Elec       q    Type
REMARK                         _______ _______ _______ _____ _____    ______ ____
ROOT
ATOM      1  C   UNL     1       8.808  -0.465  23.613  0.00  0.00    +0.340 C 
ATOM      2  O   UNL     1       8.809   0.589  24.585  0.00  0.00    -0.331 OA
ATOM      3  C   UNL     1       8.621   1.906  24.050  0.00  0.00    +0.179 C 
ATOM      4  C   UNL     1       9.625   2.260  22.928  0.00  0.00    +0.177 C 
ATOM      5  C   UNL     1       9.643   1.164  21.860  0.00  0.00    +0.180 C 
ATOM      6  C   UNL     1       9.852  -0.204  22.509  0.00  0.00    +0.214 C 
ENDROOT
BRANCH   4   7
ATOM      7  O   UNL     1      10.943   2.411  23.468  0.00  0.00    -0.386 OA
ATOM      8  H   UNL     1      11.520   1.757  23.033  0.00  0.00    +0.210 HD
ENDBRANCH   4   7
BRANCH   5   9
ATOM      9  O   UNL     1       8.449   1.179  21.067  0.00  0.00    -0.386 OA
ATOM     10  H   UNL     1       8.480   1.935  20.451  0.00  0.00    +0.210 HD
ENDBRANCH   5   9
BRANCH   6  11
ATOM     11  O   UNL     1       9.825  -1.231  21.508  0.00  0.00    -0.383 OA
ATOM     12  H   UNL     1       8.939  -1.192  21.100  0.00  0.00    +0.210 HD
ENDBRANCH   6  11
BRANCH   1  13
ATOM     13  O   UNL     1       7.502  -0.674  23.019  0.00  0.00    -0.453 OA
BRANCH  13  19
ATOM     14  C   UNL     1       4.870  -6.434  24.267  0.00  0.00    +0.127 A 
ATOM     15  C   UNL     1       4.814  -5.215  24.950  0.00  0.00    +0.092 A 
ATOM     16  C   UNL     1       5.454  -4.100  24.417  0.00  0.00    +0.147 A 
ATOM     17  O   UNL     1       5.350  -2.907  25.078  0.00  0.00    -0.451 OA
ATOM     18  C   UNL     1       6.108  -1.816  24.636  0.00  0.00    +0.181 A 
ATOM     19  C   UNL     1       6.742  -1.769  23.434  0.00  0.00    +0.214 A 
ATOM     20  C   UNL     1       6.473  -2.950  22.554  0.00  0.00    +0.238 A 
ATOM     21  O   UNL     1       6.357  -2.877  21.338  0.00  0.00    -0.283 OA
ATOM     22  C   UNL     1       6.130  -4.206  23.214  0.00  0.00    +0.109 A 
ATOM     23  C   UNL     1       6.292  -5.444  22.596  0.00  0.00    +0.135 A 
ATOM     24  C   UNL     1       5.659  -6.565  23.124  0.00  0.00    +0.092 A 
BRANCH  18  25
ATOM     25  C   UNL     1       6.018  -0.698  25.615  0.00  0.00    +0.025 A 
ATOM     26  C   UNL     1       6.783  -0.705  26.796  0.00  0.00    +0.015 A 
ATOM     27  C   UNL     1       6.856   0.425  27.620  0.00  0.00    +0.050 A 
ATOM     28  C   UNL     1       6.189   1.580  27.255  0.00  0.00    +0.158 A 
ATOM     29  C   UNL     1       5.416   1.610  26.096  0.00  0.00    +0.159 A 
ATOM     30  C   UNL     1       5.318   0.483  25.282  0.00  0.00    +0.060 A 
BRANCH  28  31
ATOM     31  O   UNL     1       6.329   2.704  28.011  0.00  0.00    -0.503 OA
ATOM     32  H   UNL     1       6.205   2.406  28.934  0.00  0.00    +0.292 HD
ENDBRANCH  28  31
BRANCH  29  33
ATOM     33  O   UNL     1       4.802   2.793  25.777  0.00  0.00    -0.503 OA
ATOM     34  H   UNL     1       3.859   2.615  25.615  0.00  0.00    +0.292 HD
ENDBRANCH  29  33
ENDBRANCH  18  25
BRANCH  14  36
ATOM     35  C   UNL     1       2.795  -7.517  24.364  0.00  0.00    +0.277 C 
ATOM     36  O   UNL     1       4.193  -7.560  24.652  0.00  0.00    -0.495 OA
ENDBRANCH  14  36
BRANCH  23  37
ATOM     37  O   UNL     1       7.078  -5.554  21.485  0.00  0.00    -0.506 OA
ATOM     38  H   UNL     1       6.545  -5.832  20.725  0.00  0.00    +0.292 HD
ENDBRANCH  23  37
ENDBRANCH  13  19
ENDBRANCH   1  13
BRANCH   3  39
ATOM     39  C   UNL     1       8.704   2.930  25.198  0.00  0.00    +0.197 C 
BRANCH  39  40
ATOM     40  O   UNL     1       8.744   4.245  24.625  0.00  0.00    -0.346 OA
BRANCH  40  41
ATOM     41  C   UNL     1       7.665   5.075  25.083  0.00  0.00    +0.282 C 
ATOM     42  O   UNL     1       6.419   4.647  24.529  0.00  0.00    -0.341 OA
ATOM     43  C   UNL     1       6.405   4.664  23.088  0.00  0.00    +0.178 C 
ATOM     44  C   UNL     1       6.708   6.067  22.518  0.00  0.00    +0.177 C 
ATOM     45  C   UNL     1       7.989   6.645  23.136  0.00  0.00    +0.179 C 
ATOM     46  C   UNL     1       7.950   6.538  24.669  0.00  0.00    +0.201 C 
BRANCH  44  47
ATOM     47  O   UNL     1       5.617   6.956  22.780  0.00  0.00    -0.386 OA
ATOM     48  H   UNL     1       5.570   7.598  22.048  0.00  0.00    +0.210 HD
ENDBRANCH  44  47
BRANCH  45  49
ATOM     49  O   UNL     1       9.153   5.983  22.610  0.00  0.00    -0.386 OA
ATOM     50  H   UNL     1       9.633   6.630  22.052  0.00  0.00    +0.210 HD
ENDBRANCH  45  49
BRANCH  46  51
ATOM     51  O   UNL     1       9.191   7.009  25.213  0.00  0.00    -0.384 OA
ATOM     52  H   UNL     1       9.027   7.190  26.159  0.00  0.00    +0.210 HD
ENDBRANCH  46  51
BRANCH  43  53
ATOM     53  C   UNL     1       5.042   4.135  22.610  0.00  0.00    +0.190 C 
BRANCH  53  54
ATOM     54  O   UNL     1       4.953   2.708  22.676  0.00  0.00    -0.392 OA
ATOM     55  H   UNL     1       5.748   2.326  22.268  0.00  0.00    +0.210 HD
ENDBRANCH  53  54
ENDBRANCH  43  53
ENDBRANCH  40  41
ENDBRANCH  39  40
ENDBRANCH   3  39
TORSDOF 18
ENDMDL
MODEL 9
REMARK VINA RESULT:      -6.8      3.198      6.198
REMARK  Name = 
REMARK  19 active torsions:
REMARK  status: ('A' for Active; 'I' for Inactive)
REMARK    1  A    between atoms: C_1  and  O_2
REMARK    2  A    between atoms: O_2  and  C_3
REMARK    3  A    between atoms: C_5  and  O_51
REMARK    4  A    between atoms: C_10  and  C_43
REMARK    5  A    between atoms: C_11  and  O_14
REMARK    6  A    between atoms: O_14  and  C_15
REMARK    7  A    between atoms: C_17  and  O_42
REMARK    8  A    between atoms: C_18  and  O_41
REMARK    9  A    between atoms: C_20  and  O_40
REMARK   10  A    between atoms: C_22  and  C_24
REMARK   11  A    between atoms: C_24  and  O_25
REMARK   12  A    between atoms: O_25  and  C_26
REMARK   13  A    between atoms: C_28  and  O_39
REMARK   14  A    between atoms: C_29  and  O_38
REMARK   15  A    between atoms: C_31  and  O_37
REMARK   16  A    between atoms: C_33  and  C_35
REMARK   17  A    between atoms: C_35  and  O_36
REMARK   18  A    between atoms: C_45  and  O_50
REMARK   19  A    between atoms: C_46  and  O_49
REMARK                            x       y       z     vdW  Elec       q    Type
REMARK                         _______ _______ _______ _____ _____    ______ ____
ROOT
ATOM      1  C   UNL     1       8.286   1.292  23.299  0.00  0.00    +0.340 C 
ATOM      2  O   UNL     1       7.979   0.306  24.293  0.00  0.00    -0.331 OA
ATOM      3  C   UNL     1       9.015   0.076  25.257  0.00  0.00    +0.179 C 
ATOM      4  C   UNL     1      10.380  -0.269  24.618  0.00  0.00    +0.177 C 
ATOM      5  C   UNL     1      10.753   0.770  23.558  0.00  0.00    +0.180 C 
ATOM      6  C   UNL     1       9.602   0.954  22.569  0.00  0.00    +0.214 C 
ENDROOT
BRANCH   4   7
ATOM      7  O   UNL     1      10.332  -1.564  24.009  0.00  0.00    -0.386 OA
ATOM      8  H   UNL     1      10.195  -2.222  24.715  0.00  0.00    +0.210 HD
ENDBRANCH   4   7
BRANCH   5   9
ATOM      9  O   UNL     1      11.124   2.021  24.152  0.00  0.00    -0.386 OA
ATOM     10  H   UNL     1      10.362   2.630  24.124  0.00  0.00    +0.210 HD
ENDBRANCH   5   9
BRANCH   6  11
ATOM     11  O   UNL     1       9.941   1.961  21.604  0.00  0.00    -0.383 OA
ATOM     12  H   UNL     1       9.098   2.355  21.312  0.00  0.00    +0.210 HD
ENDBRANCH   6  11
BRANCH   1  13
ATOM     13  O   UNL     1       8.354   2.634  23.845  0.00  0.00    -0.453 OA
BRANCH  13  19
ATOM     14  C   UNL     1       3.204   6.195  22.278  0.00  0.00    +0.127 A 
ATOM     15  C   UNL     1       4.535   6.541  22.534  0.00  0.00    +0.092 A 
ATOM     16  C   UNL     1       5.463   5.540  22.811  0.00  0.00    +0.147 A 
ATOM     17  O   UNL     1       6.767   5.897  23.014  0.00  0.00    -0.451 OA
ATOM     18  C   UNL     1       7.679   4.923  23.438  0.00  0.00    +0.181 A 
ATOM     19  C   UNL     1       7.433   3.586  23.407  0.00  0.00    +0.214 A 
ATOM     20  C   UNL     1       6.128   3.220  22.770  0.00  0.00    +0.238 A 
ATOM     21  O   UNL     1       5.968   2.224  22.076  0.00  0.00    -0.283 OA
ATOM     22  C   UNL     1       5.063   4.216  22.819  0.00  0.00    +0.109 A 
ATOM     23  C   UNL     1       3.717   3.878  22.687  0.00  0.00    +0.135 A 
ATOM     24  C   UNL     1       2.782   4.873  22.415  0.00  0.00    +0.092 A 
BRANCH  18  25
ATOM     25  C   UNL     1       8.974   5.559  23.812  0.00  0.00    +0.025 A 
ATOM     26  C   UNL     1       9.085   6.349  24.969  0.00  0.00    +0.015 A 
ATOM     27  C   UNL     1      10.333   6.784  25.433  0.00  0.00    +0.050 A 
ATOM     28  C   UNL     1      11.480   6.408  24.760  0.00  0.00    +0.158 A 
ATOM     29  C   UNL     1      11.397   5.634  23.604  0.00  0.00    +0.159 A 
ATOM     30  C   UNL     1      10.158   5.217  23.122  0.00  0.00    +0.060 A 
BRANCH  28  31
ATOM     31  O   UNL     1      12.699   6.759  25.259  0.00  0.00    -0.503 OA
ATOM     32  H   UNL     1      13.121   7.284  24.551  0.00  0.00    +0.292 HD
ENDBRANCH  28  31
BRANCH  29  33
ATOM     33  O   UNL     1      12.572   5.274  22.999  0.00  0.00    -0.503 OA
ATOM     34  H   UNL     1      12.963   4.538  23.503  0.00  0.00    +0.292 HD
ENDBRANCH  29  33
ENDBRANCH  18  25
BRANCH  14  36
ATOM     35  C   UNL     1       1.755   6.883  20.571  0.00  0.00    +0.277 C 
ATOM     36  O   UNL     1       2.240   7.089  21.898  0.00  0.00    -0.495 OA
ENDBRANCH  14  36
BRANCH  23  37
ATOM     37  O   UNL     1       3.322   2.581  22.836  0.00  0.00    -0.506 OA
ATOM     38  H   UNL     1       3.774   2.178  23.593  0.00  0.00    +0.292 HD
ENDBRANCH  23  37
ENDBRANCH  13  19
ENDBRANCH   1  13
BRANCH   3  39
ATOM     39  C   UNL     1       8.565  -1.042  26.218  0.00  0.00    +0.197 C 
BRANCH  39  40
ATOM     40  O   UNL     1       8.337  -2.231  25.448  0.00  0.00    -0.346 OA
BRANCH  40  41
ATOM     41  C   UNL     1       6.968  -2.359  25.031  0.00  0.00    +0.282 C 
ATOM     42  O   UNL     1       6.227  -3.166  25.949  0.00  0.00    -0.341 OA
ATOM     43  C   UNL     1       6.766  -4.494  26.100  0.00  0.00    +0.178 C 
ATOM     44  C   UNL     1       6.825  -5.255  24.757  0.00  0.00    +0.177 C 
ATOM     45  C   UNL     1       7.527  -4.415  23.680  0.00  0.00    +0.179 C 
ATOM     46  C   UNL     1       6.933  -2.999  23.623  0.00  0.00    +0.201 C 
BRANCH  44  47
ATOM     47  O   UNL     1       5.504  -5.581  24.313  0.00  0.00    -0.386 OA
ATOM     48  H   UNL     1       5.440  -5.351  23.368  0.00  0.00    +0.210 HD
ENDBRANCH  44  47
BRANCH  45  49
ATOM     49  O   UNL     1       8.945  -4.362  23.919  0.00  0.00    -0.386 OA
ATOM     50  H   UNL     1       9.115  -3.606  24.518  0.00  0.00    +0.210 HD
ENDBRANCH  45  49
BRANCH  46  51
ATOM     51  O   UNL     1       7.661  -2.213  22.668  0.00  0.00    -0.384 OA
ATOM     52  H   UNL     1       8.141  -1.533  23.178  0.00  0.00    +0.210 HD
ENDBRANCH  46  51
BRANCH  43  53
ATOM     53  C   UNL     1       5.925  -5.244  27.146  0.00  0.00    +0.190 C 
BRANCH  53  54
ATOM     54  O   UNL     1       5.637  -6.590  26.756  0.00  0.00    -0.392 OA
ATOM     55  H   UNL     1       4.992  -6.965  27.378  0.00  0.00    +0.210 HD
ENDBRANCH  53  54
ENDBRANCH  43  53
ENDBRANCH  40  41
ENDBRANCH  39  40
ENDBRANCH   3  39
TORSDOF 18
ENDMDL
