MODEL 1
REMARK VINA RESULT:      -7.6      0.000      0.000
REMARK  Name = 
REMARK  14 active torsions:
REMARK  status: ('A' for Active; 'I' for Inactive)
REMARK    1  A    between atoms: C_1  and  O_2
REMARK    2  A    between atoms: O_2  and  C_3
REMARK    3  A    between atoms: C_5  and  O_24
REMARK    4  A    between atoms: C_11  and  O_22
REMARK    5  A    between atoms: C_12  and  C_14
REMARK    6  A    between atoms: C_16  and  O_21
REMARK    7  A    between atoms: C_17  and  O_20
REMARK    8  A    between atoms: O_22  and  C_23
REMARK    9  A    between atoms: O_24  and  C_25
REMARK   10  A    between atoms: C_27  and  O_38
REMARK   11  A    between atoms: C_28  and  O_37
REMARK   12  A    between atoms: C_30  and  O_36
REMARK   13  A    between atoms: C_32  and  C_34
REMARK   14  A    between atoms: C_34  and  O_35
REMARK                            x       y       z     vdW  Elec       q    Type
REMARK                         _______ _______ _______ _____ _____    ______ ____
ROOT
ATOM      1  C   UNL     1       8.924   0.170  23.791  0.00  0.00    +0.138 A 
ATOM      2  C   UNL     1       8.316  -1.077  23.998  0.00  0.00    +0.109 A 
ATOM      3  C   UNL     1       9.080  -2.328  23.900  0.00  0.00    +0.238 A 
ATOM      4  C   UNL     1       8.386  -3.590  24.284  0.00  0.00    +0.211 A 
ATOM      5  C   UNL     1       7.074  -3.524  24.612  0.00  0.00    +0.181 A 
ATOM      6  O   UNL     1       6.322  -2.345  24.578  0.00  0.00    -0.451 OA
ATOM      7  O   UNL     1      10.235  -2.341  23.491  0.00  0.00    -0.283 OA
ATOM      8  C   UNL     1       6.950  -1.153  24.279  0.00  0.00    +0.147 A 
ATOM      9  C   UNL     1       6.167   0.018  24.271  0.00  0.00    +0.093 A 
ATOM     10  C   UNL     1       6.756   1.263  24.008  0.00  0.00    +0.131 A 
ATOM     11  C   UNL     1       8.133   1.317  23.787  0.00  0.00    +0.092 A 
ENDROOT
BRANCH   5  12
ATOM     12  C   UNL     1       6.283  -4.756  24.942  0.00  0.00    +0.025 A 
ATOM     13  C   UNL     1       6.162  -5.215  26.267  0.00  0.00    +0.015 A 
ATOM     14  C   UNL     1       5.289  -6.265  26.596  0.00  0.00    +0.050 A 
ATOM     15  C   UNL     1       4.513  -6.846  25.604  0.00  0.00    +0.158 A 
ATOM     16  C   UNL     1       4.657  -6.447  24.283  0.00  0.00    +0.159 A 
ATOM     17  C   UNL     1       5.574  -5.464  23.947  0.00  0.00    +0.060 A 
BRANCH  15  18
ATOM     18  O   UNL     1       3.580  -7.786  25.935  0.00  0.00    -0.503 OA
ATOM     19  H   UNL     1       2.726  -7.313  25.884  0.00  0.00    +0.292 HD
ENDBRANCH  15  18
BRANCH  16  20
ATOM     20  O   UNL     1       3.833  -7.015  23.348  0.00  0.00    -0.503 OA
ATOM     21  H   UNL     1       4.009  -7.973  23.350  0.00  0.00    +0.292 HD
ENDBRANCH  16  20
ENDBRANCH   5  12
BRANCH   1  23
ATOM     22  C   UNL     1      11.086   0.842  24.557  0.00  0.00    +0.277 C 
ATOM     23  O   UNL     1      10.273   0.227  23.562  0.00  0.00    -0.494 OA
ENDBRANCH   1  23
BRANCH   4  24
ATOM     24  O   UNL     1       9.055  -4.807  24.218  0.00  0.00    -0.488 OA
ATOM     25  C   UNL     1       9.799  -5.214  25.363  0.00  0.00    +0.277 C 
ENDBRANCH   4  24
BRANCH  10  26
ATOM     26  O   UNL     1       5.943   2.376  24.002  0.00  0.00    -0.461 OA
BRANCH  26  27
ATOM     27  C   UNL     1       5.630   2.928  22.692  0.00  0.00    +0.339 C 
ATOM     28  O   UNL     1       6.570   3.932  22.286  0.00  0.00    -0.331 OA
ATOM     29  C   UNL     1       6.601   5.085  23.147  0.00  0.00    +0.179 C 
ATOM     30  C   UNL     1       5.222   5.774  23.190  0.00  0.00    +0.177 C 
ATOM     31  C   UNL     1       4.129   4.760  23.565  0.00  0.00    +0.180 C 
ATOM     32  C   UNL     1       4.210   3.527  22.658  0.00  0.00    +0.214 C 
BRANCH  30  33
ATOM     33  O   UNL     1       4.929   6.342  21.908  0.00  0.00    -0.386 OA
ATOM     34  H   UNL     1       5.233   5.723  21.219  0.00  0.00    +0.210 HD
ENDBRANCH  30  33
BRANCH  31  35
ATOM     35  O   UNL     1       4.219   4.381  24.945  0.00  0.00    -0.386 OA
ATOM     36  H   UNL     1       5.118   4.585  25.273  0.00  0.00    +0.210 HD
ENDBRANCH  31  35
BRANCH  32  37
ATOM     37  O   UNL     1       3.214   2.567  23.018  0.00  0.00    -0.383 OA
ATOM     38  H   UNL     1       3.598   1.686  22.866  0.00  0.00    +0.210 HD
ENDBRANCH  32  37
BRANCH  29  39
ATOM     39  C   UNL     1       7.698   6.033  22.634  0.00  0.00    +0.190 C 
BRANCH  39  40
ATOM     40  O   UNL     1       7.565   6.286  21.230  0.00  0.00    -0.392 OA
ATOM     41  H   UNL     1       8.439   6.198  20.820  0.00  0.00    +0.210 HD
ENDBRANCH  39  40
ENDBRANCH  29  39
ENDBRANCH  26  27
ENDBRANCH  10  26
TORSDOF 12
ENDMDL
MODEL 2
REMARK VINA RESULT:      -7.2      0.977      2.267
REMARK  Name = 
REMARK  14 active torsions:
REMARK  status: ('A' for Active; 'I' for Inactive)
REMARK    1  A    between atoms: C_1  and  O_2
REMARK    2  A    between atoms: O_2  and  C_3
REMARK    3  A    between atoms: C_5  and  O_24
REMARK    4  A    between atoms: C_11  and  O_22
REMARK    5  A    between atoms: C_12  and  C_14
REMARK    6  A    between atoms: C_16  and  O_21
REMARK    7  A    between atoms: C_17  and  O_20
REMARK    8  A    between atoms: O_22  and  C_23
REMARK    9  A    between atoms: O_24  and  C_25
REMARK   10  A    between atoms: C_27  and  O_38
REMARK   11  A    between atoms: C_28  and  O_37
REMARK   12  A    between atoms: C_30  and  O_36
REMARK   13  A    between atoms: C_32  and  C_34
REMARK   14  A    between atoms: C_34  and  O_35
REMARK                            x       y       z     vdW  Elec       q    Type
REMARK                         _______ _______ _______ _____ _____    ______ ____
ROOT
ATOM      1  C   UNL     1       9.178  -0.151  23.393  0.00  0.00    +0.138 A 
ATOM      2  C   UNL     1       8.523  -1.373  23.608  0.00  0.00    +0.109 A 
ATOM      3  C   UNL     1       9.271  -2.626  23.773  0.00  0.00    +0.238 A 
ATOM      4  C   UNL     1       8.500  -3.844  24.148  0.00  0.00    +0.211 A 
ATOM      5  C   UNL     1       7.151  -3.749  24.224  0.00  0.00    +0.181 A 
ATOM      6  O   UNL     1       6.436  -2.580  23.940  0.00  0.00    -0.451 OA
ATOM      7  O   UNL     1      10.481  -2.677  23.582  0.00  0.00    -0.283 OA
ATOM      8  C   UNL     1       7.128  -1.423  23.644  0.00  0.00    +0.147 A 
ATOM      9  C   UNL     1       6.377  -0.260  23.380  0.00  0.00    +0.093 A 
ATOM     10  C   UNL     1       7.024   0.953  23.107  0.00  0.00    +0.131 A 
ATOM     11  C   UNL     1       8.419   0.988  23.134  0.00  0.00    +0.092 A 
ENDROOT
BRANCH   5  12
ATOM     12  C   UNL     1       6.294  -4.943  24.526  0.00  0.00    +0.025 A 
ATOM     13  C   UNL     1       6.225  -5.487  25.822  0.00  0.00    +0.015 A 
ATOM     14  C   UNL     1       5.300  -6.494  26.141  0.00  0.00    +0.050 A 
ATOM     15  C   UNL     1       4.420  -6.948  25.168  0.00  0.00    +0.158 A 
ATOM     16  C   UNL     1       4.508  -6.465  23.870  0.00  0.00    +0.159 A 
ATOM     17  C   UNL     1       5.472  -5.527  23.538  0.00  0.00    +0.060 A 
BRANCH  15  18
ATOM     18  O   UNL     1       3.443  -7.842  25.500  0.00  0.00    -0.503 OA
ATOM     19  H   UNL     1       3.700  -8.169  26.385  0.00  0.00    +0.292 HD
ENDBRANCH  15  18
BRANCH  16  20
ATOM     20  O   UNL     1       3.586  -6.906  22.959  0.00  0.00    -0.503 OA
ATOM     21  H   UNL     1       3.098  -7.642  23.372  0.00  0.00    +0.292 HD
ENDBRANCH  16  20
ENDBRANCH   5  12
BRANCH   1  23
ATOM     22  C   UNL     1      11.175   0.703  24.390  0.00  0.00    +0.277 C 
ATOM     23  O   UNL     1      10.547  -0.115  23.407  0.00  0.00    -0.494 OA
ENDBRANCH   1  23
BRANCH   4  24
ATOM     24  O   UNL     1       9.149  -5.061  24.323  0.00  0.00    -0.488 OA
ATOM     25  C   UNL     1       9.820  -5.279  25.562  0.00  0.00    +0.277 C 
ENDBRANCH   4  24
BRANCH  10  26
ATOM     26  O   UNL     1       6.243   2.059  22.845  0.00  0.00    -0.461 OA
BRANCH  26  27
ATOM     27  C   UNL     1       5.469   2.571  23.965  0.00  0.00    +0.339 C 
ATOM     28  O   UNL     1       4.057   2.530  23.713  0.00  0.00    -0.331 OA
ATOM     29  C   UNL     1       3.638   3.346  22.604  0.00  0.00    +0.179 C 
ATOM     30  C   UNL     1       3.993   4.827  22.848  0.00  0.00    +0.177 C 
ATOM     31  C   UNL     1       5.486   4.970  23.183  0.00  0.00    +0.180 C 
ATOM     32  C   UNL     1       5.874   4.016  24.317  0.00  0.00    +0.214 C 
BRANCH  30  33
ATOM     33  O   UNL     1       3.208   5.336  23.932  0.00  0.00    -0.386 OA
ATOM     34  H   UNL     1       2.268   5.297  23.679  0.00  0.00    +0.210 HD
ENDBRANCH  30  33
BRANCH  31  35
ATOM     35  O   UNL     1       6.305   4.745  22.028  0.00  0.00    -0.386 OA
ATOM     36  H   UNL     1       6.498   3.788  21.957  0.00  0.00    +0.210 HD
ENDBRANCH  31  35
BRANCH  32  37
ATOM     37  O   UNL     1       7.268   4.124  24.617  0.00  0.00    -0.383 OA
ATOM     38  H   UNL     1       7.606   4.898  24.133  0.00  0.00    +0.210 HD
ENDBRANCH  32  37
BRANCH  29  39
ATOM     39  C   UNL     1       2.126   3.145  22.410  0.00  0.00    +0.190 C 
BRANCH  39  40
ATOM     40  O   UNL     1       1.477   2.792  23.638  0.00  0.00    -0.392 OA
ATOM     41  H   UNL     1       1.317   1.835  23.634  0.00  0.00    +0.210 HD
ENDBRANCH  39  40
ENDBRANCH  29  39
ENDBRANCH  26  27
ENDBRANCH  10  26
TORSDOF 12
ENDMDL
MODEL 3
REMARK VINA RESULT:      -6.9      1.685      8.976
REMARK  Name = 
REMARK  14 active torsions:
REMARK  status: ('A' for Active; 'I' for Inactive)
REMARK    1  A    between atoms: C_1  and  O_2
REMARK    2  A    between atoms: O_2  and  C_3
REMARK    3  A    between atoms: C_5  and  O_24
REMARK    4  A    between atoms: C_11  and  O_22
REMARK    5  A    between atoms: C_12  and  C_14
REMARK    6  A    between atoms: C_16  and  O_21
REMARK    7  A    between atoms: C_17  and  O_20
REMARK    8  A    between atoms: O_22  and  C_23
REMARK    9  A    between atoms: O_24  and  C_25
REMARK   10  A    between atoms: C_27  and  O_38
REMARK   11  A    between atoms: C_28  and  O_37
REMARK   12  A    between atoms: C_30  and  O_36
REMARK   13  A    between atoms: C_32  and  C_34
REMARK   14  A    between atoms: C_34  and  O_35
REMARK                            x       y       z     vdW  Elec       q    Type
REMARK                         _______ _______ _______ _____ _____    ______ ____
ROOT
ATOM      1  C   UNL     1       8.372  -3.329  24.210  0.00  0.00    +0.138 A 
ATOM      2  C   UNL     1       8.051  -1.964  24.205  0.00  0.00    +0.109 A 
ATOM      3  C   UNL     1       9.066  -0.937  24.478  0.00  0.00    +0.238 A 
ATOM      4  C   UNL     1       8.668   0.487  24.301  0.00  0.00    +0.211 A 
ATOM      5  C   UNL     1       7.377   0.757  23.992  0.00  0.00    +0.181 A 
ATOM      6  O   UNL     1       6.387  -0.222  23.861  0.00  0.00    -0.451 OA
ATOM      7  O   UNL     1      10.191  -1.237  24.862  0.00  0.00    -0.283 OA
ATOM      8  C   UNL     1       6.739  -1.553  23.965  0.00  0.00    +0.147 A 
ATOM      9  C   UNL     1       5.720  -2.514  23.810  0.00  0.00    +0.093 A 
ATOM     10  C   UNL     1       6.022  -3.882  23.870  0.00  0.00    +0.131 A 
ATOM     11  C   UNL     1       7.350  -4.265  24.055  0.00  0.00    +0.092 A 
ENDROOT
BRANCH   5  12
ATOM     12  C   UNL     1       6.878   2.167  23.867  0.00  0.00    +0.025 A 
ATOM     13  C   UNL     1       6.212   2.806  24.930  0.00  0.00    +0.015 A 
ATOM     14  C   UNL     1       5.895   4.172  24.875  0.00  0.00    +0.050 A 
ATOM     15  C   UNL     1       6.265   4.915  23.763  0.00  0.00    +0.158 A 
ATOM     16  C   UNL     1       6.872   4.295  22.680  0.00  0.00    +0.159 A 
ATOM     17  C   UNL     1       7.115   2.931  22.704  0.00  0.00    +0.060 A 
BRANCH  15  18
ATOM     18  O   UNL     1       6.064   6.266  23.751  0.00  0.00    -0.503 OA
ATOM     19  H   UNL     1       6.457   6.580  24.589  0.00  0.00    +0.292 HD
ENDBRANCH  15  18
BRANCH  16  20
ATOM     20  O   UNL     1       7.262   5.079  21.628  0.00  0.00    -0.503 OA
ATOM     21  H   UNL     1       6.700   4.848  20.868  0.00  0.00    +0.292 HD
ENDBRANCH  16  20
ENDBRANCH   5  12
BRANCH   1  23
ATOM     22  C   UNL     1       9.911  -4.856  25.216  0.00  0.00    +0.277 C 
ATOM     23  O   UNL     1       9.672  -3.711  24.402  0.00  0.00    -0.494 OA
ENDBRANCH   1  23
BRANCH   4  24
ATOM     24  O   UNL     1       9.584   1.507  24.538  0.00  0.00    -0.488 OA
ATOM     25  C   UNL     1      10.503   1.824  23.497  0.00  0.00    +0.277 C 
ENDBRANCH   4  24
BRANCH  10  26
ATOM     26  O   UNL     1       4.987  -4.781  23.723  0.00  0.00    -0.461 OA
BRANCH  26  27
ATOM     27  C   UNL     1       3.897  -4.660  24.680  0.00  0.00    +0.339 C 
ATOM     28  O   UNL     1       4.337  -4.852  26.031  0.00  0.00    -0.331 OA
ATOM     29  C   UNL     1       4.877  -6.161  26.289  0.00  0.00    +0.179 C 
ATOM     30  C   UNL     1       3.821  -7.252  26.015  0.00  0.00    +0.177 C 
ATOM     31  C   UNL     1       3.244  -7.096  24.599  0.00  0.00    +0.180 C 
ATOM     32  C   UNL     1       2.764  -5.658  24.373  0.00  0.00    +0.214 C 
BRANCH  30  33
ATOM     33  O   UNL     1       2.765  -7.149  26.977  0.00  0.00    -0.386 OA
ATOM     34  H   UNL     1       3.011  -7.666  27.765  0.00  0.00    +0.210 HD
ENDBRANCH  30  33
BRANCH  31  35
ATOM     35  O   UNL     1       4.202  -7.474  23.600  0.00  0.00    -0.386 OA
ATOM     36  H   UNL     1       4.866  -8.066  24.006  0.00  0.00    +0.210 HD
ENDBRANCH  31  35
BRANCH  32  37
ATOM     37  O   UNL     1       2.251  -5.497  23.049  0.00  0.00    -0.383 OA
ATOM     38  H   UNL     1       2.770  -6.080  22.468  0.00  0.00    +0.210 HD
ENDBRANCH  32  37
BRANCH  29  39
ATOM     39  C   UNL     1       5.370  -6.195  27.745  0.00  0.00    +0.190 C 
BRANCH  39  40
ATOM     40  O   UNL     1       5.374  -7.526  28.272  0.00  0.00    -0.392 OA
ATOM     41  H   UNL     1       4.707  -8.046  27.796  0.00  0.00    +0.210 HD
ENDBRANCH  39  40
ENDBRANCH  29  39
ENDBRANCH  26  27
ENDBRANCH  10  26
TORSDOF 12
ENDMDL
MODEL 4
REMARK VINA RESULT:      -6.7      1.494      2.191
REMARK  Name = 
REMARK  14 active torsions:
REMARK  status: ('A' for Active; 'I' for Inactive)
REMARK    1  A    between atoms: C_1  and  O_2
REMARK    2  A    between atoms: O_2  and  C_3
REMARK    3  A    between atoms: C_5  and  O_24
REMARK    4  A    between atoms: C_11  and  O_22
REMARK    5  A    between atoms: C_12  and  C_14
REMARK    6  A    between atoms: C_16  and  O_21
REMARK    7  A    between atoms: C_17  and  O_20
REMARK    8  A    between atoms: O_22  and  C_23
REMARK    9  A    between atoms: O_24  and  C_25
REMARK   10  A    between atoms: C_27  and  O_38
REMARK   11  A    between atoms: C_28  and  O_37
REMARK   12  A    between atoms: C_30  and  O_36
REMARK   13  A    between atoms: C_32  and  C_34
REMARK   14  A    between atoms: C_34  and  O_35
REMARK                            x       y       z     vdW  Elec       q    Type
REMARK                         _______ _______ _______ _____ _____    ______ ____
ROOT
ATOM      1  C   UNL     1       9.153  -0.173  24.069  0.00  0.00    +0.138 A 
ATOM      2  C   UNL     1       8.370  -1.332  24.169  0.00  0.00    +0.109 A 
ATOM      3  C   UNL     1       8.960  -2.670  24.034  0.00  0.00    +0.238 A 
ATOM      4  C   UNL     1       8.080  -3.841  24.306  0.00  0.00    +0.211 A 
ATOM      5  C   UNL     1       6.772  -3.610  24.570  0.00  0.00    +0.181 A 
ATOM      6  O   UNL     1       6.191  -2.338  24.570  0.00  0.00    -0.451 OA
ATOM      7  O   UNL     1      10.125  -2.822  23.684  0.00  0.00    -0.283 OA
ATOM      8  C   UNL     1       6.992  -1.231  24.376  0.00  0.00    +0.147 A 
ATOM      9  C   UNL     1       6.378   0.036  24.399  0.00  0.00    +0.093 A 
ATOM     10  C   UNL     1       7.146   1.199  24.242  0.00  0.00    +0.131 A 
ATOM     11  C   UNL     1       8.527   1.072  24.095  0.00  0.00    +0.092 A 
ENDROOT
BRANCH   5  12
ATOM     12  C   UNL     1       5.803  -4.736  24.784  0.00  0.00    +0.025 A 
ATOM     13  C   UNL     1       5.011  -5.232  23.732  0.00  0.00    +0.015 A 
ATOM     14  C   UNL     1       4.232  -6.389  23.890  0.00  0.00    +0.050 A 
ATOM     15  C   UNL     1       4.259  -7.072  25.097  0.00  0.00    +0.158 A 
ATOM     16  C   UNL     1       4.989  -6.571  26.165  0.00  0.00    +0.159 A 
ATOM     17  C   UNL     1       5.696  -5.387  26.033  0.00  0.00    +0.060 A 
BRANCH  15  18
ATOM     18  O   UNL     1       3.596  -8.260  25.221  0.00  0.00    -0.503 OA
ATOM     19  H   UNL     1       3.482  -8.378  26.185  0.00  0.00    +0.292 HD
ENDBRANCH  15  18
BRANCH  16  20
ATOM     20  O   UNL     1       5.024  -7.307  27.319  0.00  0.00    -0.503 OA
ATOM     21  H   UNL     1       4.593  -6.779  28.015  0.00  0.00    +0.292 HD
ENDBRANCH  16  20
ENDBRANCH   5  12
BRANCH   1  23
ATOM     22  C   UNL     1      11.324   0.779  24.379  0.00  0.00    +0.277 C 
ATOM     23  O   UNL     1      10.508  -0.292  23.913  0.00  0.00    -0.494 OA
ENDBRANCH   1  23
BRANCH   4  24
ATOM     24  O   UNL     1       8.579  -5.135  24.200  0.00  0.00    -0.488 OA
ATOM     25  C   UNL     1       9.386  -5.620  25.269  0.00  0.00    +0.277 C 
ENDBRANCH   4  24
BRANCH  10  26
ATOM     26  O   UNL     1       6.493   2.414  24.263  0.00  0.00    -0.461 OA
BRANCH  26  27
ATOM     27  C   UNL     1       7.308   3.578  23.951  0.00  0.00    +0.339 C 
ATOM     28  O   UNL     1       7.570   4.383  25.109  0.00  0.00    -0.331 OA
ATOM     29  C   UNL     1       6.388   4.941  25.712  0.00  0.00    +0.179 C 
ATOM     30  C   UNL     1       5.639   5.847  24.713  0.00  0.00    +0.177 C 
ATOM     31  C   UNL     1       5.359   5.086  23.407  0.00  0.00    +0.180 C 
ATOM     32  C   UNL     1       6.648   4.455  22.869  0.00  0.00    +0.214 C 
BRANCH  30  33
ATOM     33  O   UNL     1       6.431   7.007  24.431  0.00  0.00    -0.386 OA
ATOM     34  H   UNL     1       6.998   6.816  23.663  0.00  0.00    +0.210 HD
ENDBRANCH  30  33
BRANCH  31  35
ATOM     35  O   UNL     1       4.344   4.090  23.590  0.00  0.00    -0.386 OA
ATOM     36  H   UNL     1       4.737   3.315  24.039  0.00  0.00    +0.210 HD
ENDBRANCH  31  35
BRANCH  32  37
ATOM     37  O   UNL     1       6.391   3.722  21.668  0.00  0.00    -0.383 OA
ATOM     38  H   UNL     1       5.460   3.879  21.432  0.00  0.00    +0.210 HD
ENDBRANCH  32  37
BRANCH  29  39
ATOM     39  C   UNL     1       6.815   5.711  26.973  0.00  0.00    +0.190 C 
BRANCH  39  40
ATOM     40  O   UNL     1       7.541   4.876  27.882  0.00  0.00    -0.392 OA
ATOM     41  H   UNL     1       7.858   5.427  28.615  0.00  0.00    +0.210 HD
ENDBRANCH  39  40
ENDBRANCH  29  39
ENDBRANCH  26  27
ENDBRANCH  10  26
TORSDOF 12
ENDMDL
MODEL 5
REMARK VINA RESULT:      -6.7      1.719      9.141
REMARK  Name = 
REMARK  14 active torsions:
REMARK  status: ('A' for Active; 'I' for Inactive)
REMARK    1  A    between atoms: C_1  and  O_2
REMARK    2  A    between atoms: O_2  and  C_3
REMARK    3  A    between atoms: C_5  and  O_24
REMARK    4  A    between atoms: C_11  and  O_22
REMARK    5  A    between atoms: C_12  and  C_14
REMARK    6  A    between atoms: C_16  and  O_21
REMARK    7  A    between atoms: C_17  and  O_20
REMARK    8  A    between atoms: O_22  and  C_23
REMARK    9  A    between atoms: O_24  and  C_25
REMARK   10  A    between atoms: C_27  and  O_38
REMARK   11  A    between atoms: C_28  and  O_37
REMARK   12  A    between atoms: C_30  and  O_36
REMARK   13  A    between atoms: C_32  and  C_34
REMARK   14  A    between atoms: C_34  and  O_35
REMARK                            x       y       z     vdW  Elec       q    Type
REMARK                         _______ _______ _______ _____ _____    ______ ____
ROOT
ATOM      1  C   UNL     1       7.852  -4.240  24.136  0.00  0.00    +0.138 A 
ATOM      2  C   UNL     1       7.794  -2.848  23.971  0.00  0.00    +0.109 A 
ATOM      3  C   UNL     1       9.015  -2.036  23.879  0.00  0.00    +0.238 A 
ATOM      4  C   UNL     1       8.857  -0.591  23.553  0.00  0.00    +0.211 A 
ATOM      5  C   UNL     1       7.603  -0.092  23.451  0.00  0.00    +0.181 A 
ATOM      6  O   UNL     1       6.445  -0.847  23.666  0.00  0.00    -0.451 OA
ATOM      7  O   UNL     1      10.121  -2.520  24.091  0.00  0.00    -0.283 OA
ATOM      8  C   UNL     1       6.559  -2.199  23.916  0.00  0.00    +0.147 A 
ATOM      9  C   UNL     1       5.373  -2.932  24.112  0.00  0.00    +0.093 A 
ATOM     10  C   UNL     1       5.424  -4.316  24.336  0.00  0.00    +0.131 A 
ATOM     11  C   UNL     1       6.667  -4.948  24.328  0.00  0.00    +0.092 A 
ENDROOT
BRANCH   5  12
ATOM     12  C   UNL     1       7.355   1.366  23.195  0.00  0.00    +0.025 A 
ATOM     13  C   UNL     1       7.473   1.914  21.903  0.00  0.00    +0.015 A 
ATOM     14  C   UNL     1       7.080   3.235  21.634  0.00  0.00    +0.050 A 
ATOM     15  C   UNL     1       6.544   4.010  22.652  0.00  0.00    +0.158 A 
ATOM     16  C   UNL     1       6.470   3.509  23.945  0.00  0.00    +0.159 A 
ATOM     17  C   UNL     1       6.929   2.232  24.226  0.00  0.00    +0.060 A 
BRANCH  15  18
ATOM     18  O   UNL     1       6.053   5.253  22.374  0.00  0.00    -0.503 OA
ATOM     19  H   UNL     1       6.661   5.865  22.835  0.00  0.00    +0.292 HD
ENDBRANCH  15  18
BRANCH  16  20
ATOM     20  O   UNL     1       5.887   4.293  24.904  0.00  0.00    -0.503 OA
ATOM     21  H   UNL     1       5.333   3.713  25.456  0.00  0.00    +0.292 HD
ENDBRANCH  16  20
ENDBRANCH   5  12
BRANCH   1  23
ATOM     22  C   UNL     1       9.444  -5.574  25.318  0.00  0.00    +0.277 C 
ATOM     23  O   UNL     1       9.070  -4.864  24.141  0.00  0.00    -0.494 OA
ENDBRANCH   1  23
BRANCH   4  24
ATOM     24  O   UNL     1       9.974   0.231  23.447  0.00  0.00    -0.488 OA
ATOM     25  C   UNL     1      10.522   0.758  24.651  0.00  0.00    +0.277 C 
ENDBRANCH   4  24
BRANCH  10  26
ATOM     26  O   UNL     1       4.234  -4.985  24.531  0.00  0.00    -0.461 OA
BRANCH  26  27
ATOM     27  C   UNL     1       4.261  -6.418  24.282  0.00  0.00    +0.339 C 
ATOM     28  O   UNL     1       3.339  -6.808  23.255  0.00  0.00    -0.331 OA
ATOM     29  C   UNL     1       1.961  -6.541  23.576  0.00  0.00    +0.179 C 
ATOM     30  C   UNL     1       1.539  -7.299  24.851  0.00  0.00    +0.177 C 
ATOM     31  C   UNL     1       2.507  -6.988  26.004  0.00  0.00    +0.180 C 
ATOM     32  C   UNL     1       3.956  -7.220  25.562  0.00  0.00    +0.214 C 
BRANCH  30  33
ATOM     33  O   UNL     1       1.538  -8.708  24.594  0.00  0.00    -0.386 OA
ATOM     34  H   UNL     1       1.740  -9.175  25.424  0.00  0.00    +0.210 HD
ENDBRANCH  30  33
BRANCH  31  35
ATOM     35  O   UNL     1       2.331  -5.649  26.487  0.00  0.00    -0.386 OA
ATOM     36  H   UNL     1       1.669  -5.194  25.927  0.00  0.00    +0.210 HD
ENDBRANCH  31  35
BRANCH  32  37
ATOM     37  O   UNL     1       4.865  -6.906  26.620  0.00  0.00    -0.383 OA
ATOM     38  H   UNL     1       5.539  -6.309  26.251  0.00  0.00    +0.210 HD
ENDBRANCH  32  37
BRANCH  29  39
ATOM     39  C   UNL     1       1.104  -6.941  22.363  0.00  0.00    +0.190 C 
BRANCH  39  40
ATOM     40  O   UNL     1       1.598  -8.128  21.733  0.00  0.00    -0.392 OA
ATOM     41  H   UNL     1       2.544  -8.208  21.932  0.00  0.00    +0.210 HD
ENDBRANCH  39  40
ENDBRANCH  29  39
ENDBRANCH  26  27
ENDBRANCH  10  26
TORSDOF 12
ENDMDL
MODEL 6
REMARK VINA RESULT:      -6.5      1.652      9.198
REMARK  Name = 
REMARK  14 active torsions:
REMARK  status: ('A' for Active; 'I' for Inactive)
REMARK    1  A    between atoms: C_1  and  O_2
REMARK    2  A    between atoms: O_2  and  C_3
REMARK    3  A    between atoms: C_5  and  O_24
REMARK    4  A    between atoms: C_11  and  O_22
REMARK    5  A    between atoms: C_12  and  C_14
REMARK    6  A    between atoms: C_16  and  O_21
REMARK    7  A    between atoms: C_17  and  O_20
REMARK    8  A    between atoms: O_22  and  C_23
REMARK    9  A    between atoms: O_24  and  C_25
REMARK   10  A    between atoms: C_27  and  O_38
REMARK   11  A    between atoms: C_28  and  O_37
REMARK   12  A    between atoms: C_30  and  O_36
REMARK   13  A    between atoms: C_32  and  C_34
REMARK   14  A    between atoms: C_34  and  O_35
REMARK                            x       y       z     vdW  Elec       q    Type
REMARK                         _______ _______ _______ _____ _____    ______ ____
ROOT
ATOM      1  C   UNL     1       8.103  -3.279  24.282  0.00  0.00    +0.138 A 
ATOM      2  C   UNL     1       7.853  -1.899  24.245  0.00  0.00    +0.109 A 
ATOM      3  C   UNL     1       8.946  -0.923  24.151  0.00  0.00    +0.238 A 
ATOM      4  C   UNL     1       8.578   0.508  23.963  0.00  0.00    +0.211 A 
ATOM      5  C   UNL     1       7.264   0.838  23.982  0.00  0.00    +0.181 A 
ATOM      6  O   UNL     1       6.234  -0.083  24.201  0.00  0.00    -0.451 OA
ATOM      7  O   UNL     1      10.119  -1.266  24.251  0.00  0.00    -0.283 OA
ATOM      8  C   UNL     1       6.542  -1.423  24.323  0.00  0.00    +0.147 A 
ATOM      9  C   UNL     1       5.479  -2.324  24.525  0.00  0.00    +0.093 A 
ATOM     10  C   UNL     1       5.727  -3.701  24.622  0.00  0.00    +0.131 A 
ATOM     11  C   UNL     1       7.039  -4.155  24.483  0.00  0.00    +0.092 A 
ENDROOT
BRANCH   5  12
ATOM     12  C   UNL     1       6.810   2.264  23.872  0.00  0.00    +0.025 A 
ATOM     13  C   UNL     1       6.231   2.936  24.965  0.00  0.00    +0.015 A 
ATOM     14  C   UNL     1       5.963   4.313  24.914  0.00  0.00    +0.050 A 
ATOM     15  C   UNL     1       6.293   5.032  23.775  0.00  0.00    +0.158 A 
ATOM     16  C   UNL     1       6.813   4.381  22.665  0.00  0.00    +0.159 A 
ATOM     17  C   UNL     1       7.006   3.009  22.688  0.00  0.00    +0.060 A 
BRANCH  15  18
ATOM     18  O   UNL     1       6.142   6.389  23.760  0.00  0.00    -0.503 OA
ATOM     19  H   UNL     1       6.169   6.629  22.812  0.00  0.00    +0.292 HD
ENDBRANCH  15  18
BRANCH  16  20
ATOM     20  O   UNL     1       7.169   5.141  21.584  0.00  0.00    -0.503 OA
ATOM     21  H   UNL     1       7.360   4.531  20.849  0.00  0.00    +0.292 HD
ENDBRANCH  16  20
ENDBRANCH   5  12
BRANCH   1  23
ATOM     22  C   UNL     1       9.817  -4.762  25.041  0.00  0.00    +0.277 C 
ATOM     23  O   UNL     1       9.391  -3.729  24.158  0.00  0.00    -0.494 OA
ENDBRANCH   1  23
BRANCH   4  24
ATOM     24  O   UNL     1       9.566   1.481  23.862  0.00  0.00    -0.488 OA
ATOM     25  C   UNL     1      10.172   1.677  22.588  0.00  0.00    +0.277 C 
ENDBRANCH   4  24
BRANCH  10  26
ATOM     26  O   UNL     1       4.652  -4.540  24.830  0.00  0.00    -0.461 OA
BRANCH  26  27
ATOM     27  C   UNL     1       4.874  -5.946  24.526  0.00  0.00    +0.339 C 
ATOM     28  O   UNL     1       3.888  -6.469  23.625  0.00  0.00    -0.331 OA
ATOM     29  C   UNL     1       2.547  -6.437  24.146  0.00  0.00    +0.179 C 
ATOM     30  C   UNL     1       2.441  -7.272  25.439  0.00  0.00    +0.177 C 
ATOM     31  C   UNL     1       3.503  -6.820  26.455  0.00  0.00    +0.180 C 
ATOM     32  C   UNL     1       4.891  -6.804  25.806  0.00  0.00    +0.214 C 
BRANCH  30  33
ATOM     33  O   UNL     1       2.631  -8.657  25.132  0.00  0.00    -0.386 OA
ATOM     34  H   UNL     1       1.756  -9.080  25.052  0.00  0.00    +0.210 HD
ENDBRANCH  30  33
BRANCH  31  35
ATOM     35  O   UNL     1       3.185  -5.535  27.007  0.00  0.00    -0.386 OA
ATOM     36  H   UNL     1       2.710  -5.662  27.853  0.00  0.00    +0.210 HD
ENDBRANCH  31  35
BRANCH  32  37
ATOM     37  O   UNL     1       5.881  -6.359  26.737  0.00  0.00    -0.383 OA
ATOM     38  H   UNL     1       5.459  -6.336  27.614  0.00  0.00    +0.210 HD
ENDBRANCH  32  37
BRANCH  29  39
ATOM     39  C   UNL     1       1.599  -6.956  23.052  0.00  0.00    +0.190 C 
BRANCH  39  40
ATOM     40  O   UNL     1       2.036  -8.214  22.525  0.00  0.00    -0.392 OA
ATOM     41  H   UNL     1       2.653  -8.042  21.797  0.00  0.00    +0.210 HD
ENDBRANCH  39  40
ENDBRANCH  29  39
ENDBRANCH  26  27
ENDBRANCH  10  26
TORSDOF 12
ENDMDL
MODEL 7
REMARK VINA RESULT:      -6.4      2.277      9.378
REMARK  Name = 
REMARK  14 active torsions:
REMARK  status: ('A' for Active; 'I' for Inactive)
REMARK    1  A    between atoms: C_1  and  O_2
REMARK    2  A    between atoms: O_2  and  C_3
REMARK    3  A    between atoms: C_5  and  O_24
REMARK    4  A    between atoms: C_11  and  O_22
REMARK    5  A    between atoms: C_12  and  C_14
REMARK    6  A    between atoms: C_16  and  O_21
REMARK    7  A    between atoms: C_17  and  O_20
REMARK    8  A    between atoms: O_22  and  C_23
REMARK    9  A    between atoms: O_24  and  C_25
REMARK   10  A    between atoms: C_27  and  O_38
REMARK   11  A    between atoms: C_28  and  O_37
REMARK   12  A    between atoms: C_30  and  O_36
REMARK   13  A    between atoms: C_32  and  C_34
REMARK   14  A    between atoms: C_34  and  O_35
REMARK                            x       y       z     vdW  Elec       q    Type
REMARK                         _______ _______ _______ _____ _____    ______ ____
ROOT
ATOM      1  C   UNL     1       7.264  -3.484  23.555  0.00  0.00    +0.138 A 
ATOM      2  C   UNL     1       7.399  -2.089  23.609  0.00  0.00    +0.109 A 
ATOM      3  C   UNL     1       8.118  -1.347  22.565  0.00  0.00    +0.238 A 
ATOM      4  C   UNL     1       8.080   0.141  22.627  0.00  0.00    +0.211 A 
ATOM      5  C   UNL     1       7.466   0.721  23.686  0.00  0.00    +0.181 A 
ATOM      6  O   UNL     1       6.894   0.004  24.743  0.00  0.00    -0.451 OA
ATOM      7  O   UNL     1       8.751  -1.927  21.690  0.00  0.00    -0.283 OA
ATOM      8  C   UNL     1       6.868  -1.374  24.685  0.00  0.00    +0.147 A 
ATOM      9  C   UNL     1       6.269  -2.064  25.757  0.00  0.00    +0.093 A 
ATOM     10  C   UNL     1       6.182  -3.464  25.739  0.00  0.00    +0.131 A 
ATOM     11  C   UNL     1       6.670  -4.148  24.625  0.00  0.00    +0.092 A 
ENDROOT
BRANCH   5  12
ATOM     12  C   UNL     1       7.443   2.212  23.862  0.00  0.00    +0.025 A 
ATOM     13  C   UNL     1       8.246   2.848  24.829  0.00  0.00    +0.015 A 
ATOM     14  C   UNL     1       8.351   4.247  24.880  0.00  0.00    +0.050 A 
ATOM     15  C   UNL     1       7.672   5.019  23.949  0.00  0.00    +0.158 A 
ATOM     16  C   UNL     1       6.833   4.416  23.023  0.00  0.00    +0.159 A 
ATOM     17  C   UNL     1       6.669   3.040  23.021  0.00  0.00    +0.060 A 
BRANCH  15  18
ATOM     18  O   UNL     1       7.861   6.371  23.920  0.00  0.00    -0.503 OA
ATOM     19  H   UNL     1       7.551   6.643  23.033  0.00  0.00    +0.292 HD
ENDBRANCH  15  18
BRANCH  16  20
ATOM     20  O   UNL     1       6.224   5.216  22.093  0.00  0.00    -0.503 OA
ATOM     21  H   UNL     1       6.029   6.067  22.525  0.00  0.00    +0.292 HD
ENDBRANCH  16  20
ENDBRANCH   5  12
BRANCH   1  23
ATOM     22  C   UNL     1       6.951  -5.210  21.932  0.00  0.00    +0.277 C 
ATOM     23  O   UNL     1       7.752  -4.162  22.470  0.00  0.00    -0.494 OA
ENDBRANCH   1  23
BRANCH   4  24
ATOM     24  O   UNL     1       8.736   0.903  21.666  0.00  0.00    -0.488 OA
ATOM     25  C   UNL     1      10.063   1.332  21.958  0.00  0.00    +0.277 C 
ENDBRANCH   4  24
BRANCH  10  26
ATOM     26  O   UNL     1       5.596  -4.091  26.818  0.00  0.00    -0.461 OA
BRANCH  26  27
ATOM     27  C   UNL     1       5.417  -5.530  26.698  0.00  0.00    +0.339 C 
ATOM     28  O   UNL     1       4.033  -5.907  26.693  0.00  0.00    -0.331 OA
ATOM     29  C   UNL     1       3.333  -5.573  27.906  0.00  0.00    +0.179 C 
ATOM     30  C   UNL     1       3.972  -6.279  29.119  0.00  0.00    +0.177 C 
ATOM     31  C   UNL     1       5.479  -5.980  29.180  0.00  0.00    +0.180 C 
ATOM     32  C   UNL     1       6.139  -6.284  27.831  0.00  0.00    +0.214 C 
BRANCH  30  33
ATOM     33  O   UNL     1       3.769  -7.693  29.013  0.00  0.00    -0.386 OA
ATOM     34  H   UNL     1       4.456  -8.062  28.429  0.00  0.00    +0.210 HD
ENDBRANCH  30  33
BRANCH  31  35
ATOM     35  O   UNL     1       5.726  -4.623  29.572  0.00  0.00    -0.386 OA
ATOM     36  H   UNL     1       5.342  -4.023  28.900  0.00  0.00    +0.210 HD
ENDBRANCH  31  35
BRANCH  32  37
ATOM     37  O   UNL     1       7.537  -5.983  27.871  0.00  0.00    -0.383 OA
ATOM     38  H   UNL     1       7.634  -5.045  27.628  0.00  0.00    +0.210 HD
ENDBRANCH  32  37
BRANCH  29  39
ATOM     39  C   UNL     1       1.857  -5.967  27.727  0.00  0.00    +0.190 C 
BRANCH  39  40
ATOM     40  O   UNL     1       1.719  -7.163  26.951  0.00  0.00    -0.392 OA
ATOM     41  H   UNL     1       2.207  -7.047  26.121  0.00  0.00    +0.210 HD
ENDBRANCH  39  40
ENDBRANCH  29  39
ENDBRANCH  26  27
ENDBRANCH  10  26
TORSDOF 12
ENDMDL
MODEL 8
REMARK VINA RESULT:      -6.2      2.838      5.467
REMARK  Name = 
REMARK  14 active torsions:
REMARK  status: ('A' for Active; 'I' for Inactive)
REMARK    1  A    between atoms: C_1  and  O_2
REMARK    2  A    between atoms: O_2  and  C_3
REMARK    3  A    between atoms: C_5  and  O_24
REMARK    4  A    between atoms: C_11  and  O_22
REMARK    5  A    between atoms: C_12  and  C_14
REMARK    6  A    between atoms: C_16  and  O_21
REMARK    7  A    between atoms: C_17  and  O_20
REMARK    8  A    between atoms: O_22  and  C_23
REMARK    9  A    between atoms: O_24  and  C_25
REMARK   10  A    between atoms: C_27  and  O_38
REMARK   11  A    between atoms: C_28  and  O_37
REMARK   12  A    between atoms: C_30  and  O_36
REMARK   13  A    between atoms: C_32  and  C_34
REMARK   14  A    between atoms: C_34  and  O_35
REMARK                            x       y       z     vdW  Elec       q    Type
REMARK                         _______ _______ _______ _____ _____    ______ ____
ROOT
ATOM      1  C   UNL     1       5.312  -1.579  26.279  0.00  0.00    +0.138 A 
ATOM      2  C   UNL     1       4.573  -2.693  25.855  0.00  0.00    +0.109 A 
ATOM      3  C   UNL     1       3.653  -3.393  26.761  0.00  0.00    +0.238 A 
ATOM      4  C   UNL     1       2.800  -4.468  26.180  0.00  0.00    +0.211 A 
ATOM      5  C   UNL     1       2.986  -4.799  24.880  0.00  0.00    +0.181 A 
ATOM      6  O   UNL     1       3.955  -4.214  24.059  0.00  0.00    -0.451 OA
ATOM      7  O   UNL     1       3.606  -3.124  27.956  0.00  0.00    -0.283 OA
ATOM      8  C   UNL     1       4.722  -3.178  24.554  0.00  0.00    +0.147 A 
ATOM      9  C   UNL     1       5.676  -2.600  23.695  0.00  0.00    +0.093 A 
ATOM     10  C   UNL     1       6.461  -1.523  24.131  0.00  0.00    +0.131 A 
ATOM     11  C   UNL     1       6.252  -1.021  25.415  0.00  0.00    +0.092 A 
ENDROOT
BRANCH   5  12
ATOM     12  C   UNL     1       2.219  -5.918  24.237  0.00  0.00    +0.025 A 
ATOM     13  C   UNL     1       1.480  -5.715  23.056  0.00  0.00    +0.015 A 
ATOM     14  C   UNL     1       0.904  -6.792  22.365  0.00  0.00    +0.050 A 
ATOM     15  C   UNL     1       1.083  -8.084  22.838  0.00  0.00    +0.158 A 
ATOM     16  C   UNL     1       1.760  -8.301  24.030  0.00  0.00    +0.159 A 
ATOM     17  C   UNL     1       2.263  -7.232  24.752  0.00  0.00    +0.060 A 
BRANCH  15  18
ATOM     18  O   UNL     1       0.625  -9.145  22.111  0.00  0.00    -0.503 OA
ATOM     19  H   UNL     1       1.045  -9.925  22.524  0.00  0.00    +0.292 HD
ENDBRANCH  15  18
BRANCH  16  20
ATOM     20  O   UNL     1       1.955  -9.597  24.429  0.00  0.00    -0.503 OA
ATOM     21  H   UNL     1       2.496 -10.033  23.747  0.00  0.00    +0.292 HD
ENDBRANCH  16  20
ENDBRANCH   5  12
BRANCH   1  23
ATOM     22  C   UNL     1       5.692   0.176  27.856  0.00  0.00    +0.277 C 
ATOM     23  O   UNL     1       5.119  -1.090  27.544  0.00  0.00    -0.494 OA
ENDBRANCH   1  23
BRANCH   4  24
ATOM     24  O   UNL     1       1.904  -5.165  26.984  0.00  0.00    -0.488 OA
ATOM     25  C   UNL     1       0.608  -4.603  27.169  0.00  0.00    +0.277 C 
ENDBRANCH   4  24
BRANCH  10  26
ATOM     26  O   UNL     1       7.388  -1.000  23.254  0.00  0.00    -0.461 OA
BRANCH  26  27
ATOM     27  C   UNL     1       8.264   0.029  23.792  0.00  0.00    +0.339 C 
ATOM     28  O   UNL     1       7.873   1.346  23.380  0.00  0.00    -0.331 OA
ATOM     29  C   UNL     1       7.933   1.554  21.957  0.00  0.00    +0.179 C 
ATOM     30  C   UNL     1       9.368   1.342  21.432  0.00  0.00    +0.177 C 
ATOM     31  C   UNL     1       9.901  -0.030  21.874  0.00  0.00    +0.180 C 
ATOM     32  C   UNL     1       9.731  -0.209  23.386  0.00  0.00    +0.214 C 
BRANCH  30  33
ATOM     33  O   UNL     1      10.222   2.373  21.941  0.00  0.00    -0.386 OA
ATOM     34  H   UNL     1      10.348   3.043  21.245  0.00  0.00    +0.210 HD
ENDBRANCH  30  33
BRANCH  31  35
ATOM     35  O   UNL     1       9.257  -1.095  21.161  0.00  0.00    -0.386 OA
ATOM     36  H   UNL     1       9.883  -1.461  20.503  0.00  0.00    +0.210 HD
ENDBRANCH  31  35
BRANCH  32  37
ATOM     37  O   UNL     1      10.200  -1.495  23.801  0.00  0.00    -0.383 OA
ATOM     38  H   UNL     1      10.690  -1.876  23.051  0.00  0.00    +0.210 HD
ENDBRANCH  32  37
BRANCH  29  39
ATOM     39  C   UNL     1       7.420   2.973  21.661  0.00  0.00    +0.190 C 
BRANCH  39  40
ATOM     40  O   UNL     1       8.091   3.956  22.459  0.00  0.00    -0.392 OA
ATOM     41  H   UNL     1       8.590   4.541  21.867  0.00  0.00    +0.210 HD
ENDBRANCH  39  40
ENDBRANCH  29  39
ENDBRANCH  26  27
ENDBRANCH  10  26
TORSDOF 12
ENDMDL
MODEL 9
REMARK VINA RESULT:      -6.2      2.380      9.301
REMARK  Name = 
REMARK  14 active torsions:
REMARK  status: ('A' for Active; 'I' for Inactive)
REMARK    1  A    between atoms: C_1  and  O_2
REMARK    2  A    between atoms: O_2  and  C_3
REMARK    3  A    between atoms: C_5  and  O_24
REMARK    4  A    between atoms: C_11  and  O_22
REMARK    5  A    between atoms: C_12  and  C_14
REMARK    6  A    between atoms: C_16  and  O_21
REMARK    7  A    between atoms: C_17  and  O_20
REMARK    8  A    between atoms: O_22  and  C_23
REMARK    9  A    between atoms: O_24  and  C_25
REMARK   10  A    between atoms: C_27  and  O_38
REMARK   11  A    between atoms: C_28  and  O_37
REMARK   12  A    between atoms: C_30  and  O_36
REMARK   13  A    between atoms: C_32  and  C_34
REMARK   14  A    between atoms: C_34  and  O_35
REMARK                            x       y       z     vdW  Elec       q    Type
REMARK                         _______ _______ _______ _____ _____    ______ ____
ROOT
ATOM      1  C   UNL     1       8.386  -4.043  25.301  0.00  0.00    +0.138 A 
ATOM      2  C   UNL     1       8.348  -2.664  25.045  0.00  0.00    +0.109 A 
ATOM      3  C   UNL     1       9.310  -2.026  24.136  0.00  0.00    +0.238 A 
ATOM      4  C   UNL     1       9.098  -0.588  23.809  0.00  0.00    +0.211 A 
ATOM      5  C   UNL     1       8.092   0.069  24.435  0.00  0.00    +0.181 A 
ATOM      6  O   UNL     1       7.261  -0.516  25.396  0.00  0.00    -0.451 OA
ATOM      7  O   UNL     1      10.268  -2.643  23.685  0.00  0.00    -0.283 OA
ATOM      8  C   UNL     1       7.399  -1.860  25.679  0.00  0.00    +0.147 A 
ATOM      9  C   UNL     1       6.534  -2.420  26.639  0.00  0.00    +0.093 A 
ATOM     10  C   UNL     1       6.604  -3.787  26.944  0.00  0.00    +0.131 A 
ATOM     11  C   UNL     1       7.522  -4.578  26.254  0.00  0.00    +0.092 A 
ENDROOT
BRANCH   5  12
ATOM     12  C   UNL     1       7.855   1.534  24.216  0.00  0.00    +0.025 A 
ATOM     13  C   UNL     1       6.974   1.993  23.219  0.00  0.00    +0.015 A 
ATOM     14  C   UNL     1       6.623   3.349  23.125  0.00  0.00    +0.050 A 
ATOM     15  C   UNL     1       7.135   4.253  24.045  0.00  0.00    +0.158 A 
ATOM     16  C   UNL     1       8.049   3.833  25.001  0.00  0.00    +0.159 A 
ATOM     17  C   UNL     1       8.453   2.508  25.045  0.00  0.00    +0.060 A 
BRANCH  15  18
ATOM     18  O   UNL     1       6.710   5.551  24.031  0.00  0.00    -0.503 OA
ATOM     19  H   UNL     1       6.660   5.783  23.083  0.00  0.00    +0.292 HD
ENDBRANCH  15  18
BRANCH  16  20
ATOM     20  O   UNL     1       8.486   4.751  25.917  0.00  0.00    -0.503 OA
ATOM     21  H   UNL     1       8.467   5.625  25.485  0.00  0.00    +0.292 HD
ENDBRANCH  16  20
ENDBRANCH   5  12
BRANCH   1  23
ATOM     22  C   UNL     1      10.175  -5.624  25.417  0.00  0.00    +0.277 C 
ATOM     23  O   UNL     1       9.294  -4.823  24.635  0.00  0.00    -0.494 OA
ENDBRANCH   1  23
BRANCH   4  24
ATOM     24  O   UNL     1       9.970   0.073  22.951  0.00  0.00    -0.488 OA
ATOM     25  C   UNL     1       9.692   0.017  21.555  0.00  0.00    +0.277 C 
ENDBRANCH   4  24
BRANCH  10  26
ATOM     26  O   UNL     1       5.742  -4.283  27.899  0.00  0.00    -0.461 OA
BRANCH  26  27
ATOM     27  C   UNL     1       5.760  -5.726  28.085  0.00  0.00    +0.339 C 
ATOM     28  O   UNL     1       4.868  -6.401  27.187  0.00  0.00    -0.331 OA
ATOM     29  C   UNL     1       3.483  -6.048  27.366  0.00  0.00    +0.179 C 
ATOM     30  C   UNL     1       3.009  -6.395  28.792  0.00  0.00    +0.177 C 
ATOM     31  C   UNL     1       3.943  -5.758  29.835  0.00  0.00    +0.180 C 
ATOM     32  C   UNL     1       5.402  -6.113  29.533  0.00  0.00    +0.214 C 
BRANCH  30  33
ATOM     33  O   UNL     1       3.001  -7.817  28.962  0.00  0.00    -0.386 OA
ATOM     34  H   UNL     1       3.304  -8.230  28.133  0.00  0.00    +0.210 HD
ENDBRANCH  30  33
BRANCH  31  35
ATOM     35  O   UNL     1       3.767  -4.336  29.894  0.00  0.00    -0.386 OA
ATOM     36  H   UNL     1       2.888  -4.109  29.529  0.00  0.00    +0.210 HD
ENDBRANCH  31  35
BRANCH  32  37
ATOM     37  O   UNL     1       6.279  -5.502  30.483  0.00  0.00    -0.383 OA
ATOM     38  H   UNL     1       6.782  -4.817  30.009  0.00  0.00    +0.210 HD
ENDBRANCH  32  37
BRANCH  29  39
ATOM     39  C   UNL     1       2.663  -6.787  26.295  0.00  0.00    +0.190 C 
BRANCH  39  40
ATOM     40  O   UNL     1       3.342  -7.954  25.818  0.00  0.00    -0.392 OA
ATOM     41  H   UNL     1       3.298  -7.958  24.849  0.00  0.00    +0.210 HD
ENDBRANCH  39  40
ENDBRANCH  29  39
ENDBRANCH  26  27
ENDBRANCH  10  26
TORSDOF 12
ENDMDL
