MODEL 1
REMARK VINA RESULT:      -6.3      0.000      0.000
REMARK  Name = 
REMARK  22 active torsions:
REMARK  status: ('A' for Active; 'I' for Inactive)
REMARK    1  A    between atoms: C_1  and  C_2
REMARK    2  A    between atoms: C_2  and  C_3
REMARK    3  A    between atoms: C_3  and  C_4
REMARK    4  A    between atoms: C_4  and  C_5
REMARK    5  A    between atoms: C_5  and  C_6
REMARK    6  A    between atoms: C_6  and  C_7
REMARK    7  A    between atoms: C_7  and  C_8
REMARK    8  A    between atoms: C_8  and  C_9
REMARK    9  A    between atoms: C_9  and  C_10
REMARK   10  A    between atoms: C_10  and  C_11
REMARK   11  A    between atoms: C_11  and  C_12
REMARK   12  A    between atoms: C_12  and  C_13
REMARK   13  A    between atoms: C_13  and  C_14
REMARK   14  A    between atoms: C_14  and  C_15
REMARK   15  A    between atoms: C_15  and  C_16
REMARK   16  A    between atoms: C_16  and  O_18
REMARK   17  A    between atoms: O_18  and  C_19
REMARK   18  A    between atoms: C_20  and  C_32
REMARK   19  A    between atoms: C_24  and  O_31
REMARK   20  A    between atoms: C_26  and  O_30
REMARK   21  A    between atoms: C_34  and  O_39
REMARK   22  A    between atoms: C_35  and  O_38
REMARK                            x       y       z     vdW  Elec       q    Type
REMARK                         _______ _______ _______ _____ _____    ______ ____
ROOT
ATOM      1  C   UNL     1       7.253  -3.480  25.655  0.00  0.00    +0.221 A 
ATOM      2  C   UNL     1       6.525  -4.474  26.486  0.00  0.00    +0.239 A 
ATOM      3  O   UNL     1       6.593  -4.419  27.709  0.00  0.00    -0.283 OA
ATOM      4  C   UNL     1       5.671  -5.428  25.762  0.00  0.00    +0.109 A 
ATOM      5  C   UNL     1       5.345  -5.126  24.437  0.00  0.00    +0.147 A 
ATOM      6  C   UNL     1       4.443  -5.934  23.737  0.00  0.00    +0.092 A 
ATOM      7  C   UNL     1       3.897  -7.054  24.366  0.00  0.00    +0.124 A 
ATOM      8  C   UNL     1       4.254  -7.393  25.664  0.00  0.00    +0.091 A 
ATOM      9  O   UNL     1       5.865  -4.042  23.764  0.00  0.00    -0.451 OA
ATOM     10  C   UNL     1       5.145  -6.580  26.363  0.00  0.00    +0.135 A 
ATOM     11  C   UNL     1       6.860  -3.280  24.380  0.00  0.00    +0.182 A 
ENDROOT
BRANCH  11  12
ATOM     12  C   UNL     1       7.440  -2.223  23.496  0.00  0.00    +0.025 A 
ATOM     13  C   UNL     1       6.747  -1.026  23.220  0.00  0.00    +0.015 A 
ATOM     14  C   UNL     1       7.301  -0.019  22.424  0.00  0.00    +0.050 A 
ATOM     15  C   UNL     1       8.547  -0.213  21.861  0.00  0.00    +0.158 A 
ATOM     16  C   UNL     1       9.242  -1.399  22.080  0.00  0.00    +0.159 A 
ATOM     17  C   UNL     1       8.702  -2.402  22.890  0.00  0.00    +0.060 A 
BRANCH  16  18
ATOM     18  O   UNL     1      10.461  -1.529  21.472  0.00  0.00    -0.503 OA
ATOM     19  H   UNL     1      10.895  -2.325  21.820  0.00  0.00    +0.292 HD
ENDBRANCH  16  18
BRANCH  15  20
ATOM     20  O   UNL     1       9.085   0.771  21.084  0.00  0.00    -0.503 OA
ATOM     21  H   UNL     1       9.895   0.374  20.706  0.00  0.00    +0.292 HD
ENDBRANCH  15  20
ENDBRANCH  11  12
BRANCH  10  22
ATOM     22  O   UNL     1       5.509  -6.936  27.629  0.00  0.00    -0.506 OA
ATOM     23  H   UNL     1       4.726  -7.106  28.176  0.00  0.00    +0.292 HD
ENDBRANCH  10  22
BRANCH   7  24
ATOM     24  O   UNL     1       2.992  -7.856  23.737  0.00  0.00    -0.507 OA
ATOM     25  H   UNL     1       3.328  -8.767  23.711  0.00  0.00    +0.292 HD
ENDBRANCH   7  24
BRANCH   1  26
ATOM     26  O   UNL     1       8.241  -2.709  26.289  0.00  0.00    -0.418 OA
BRANCH  26  27
ATOM     27  C   UNL     1       7.803  -1.479  26.701  0.00  0.00    +0.313 C 
ATOM     28  O   UNL     1       6.649  -1.157  26.958  0.00  0.00    -0.250 OA
BRANCH  27  29
ATOM     29  C   UNL     1       8.992  -0.567  26.878  0.00  0.00    +0.121 C 
BRANCH  29  30
ATOM     30  C   UNL     1       9.708  -0.297  25.563  0.00  0.00    +0.011 C 
BRANCH  30  31
ATOM     31  C   UNL     1       9.392   1.115  25.065  0.00  0.00    +0.001 C 
BRANCH  31  32
ATOM     32  C   UNL     1      10.524   1.669  24.204  0.00  0.00    +0.000 C 
BRANCH  32  33
ATOM     33  C   UNL     1      10.115   2.979  23.532  0.00  0.00    +0.000 C 
BRANCH  33  34
ATOM     34  C   UNL     1      11.315   3.909  23.388  0.00  0.00    +0.000 C 
BRANCH  34  35
ATOM     35  C   UNL     1      11.067   5.239  24.092  0.00  0.00    -0.000 C 
BRANCH  35  36
ATOM     36  C   UNL     1      10.093   6.101  23.294  0.00  0.00    -0.000 C 
BRANCH  36  37
ATOM     37  C   UNL     1       8.981   6.634  24.192  0.00  0.00    -0.000 C 
BRANCH  37  38
ATOM     38  C   UNL     1       7.791   7.107  23.364  0.00  0.00    -0.000 C 
BRANCH  38  39
ATOM     39  C   UNL     1       7.515   6.145  22.213  0.00  0.00    -0.000 C 
BRANCH  39  40
ATOM     40  C   UNL     1       6.325   5.243  22.529  0.00  0.00    -0.000 C 
BRANCH  40  41
ATOM     41  C   UNL     1       6.764   3.785  22.646  0.00  0.00    -0.000 C 
BRANCH  41  43
ATOM     42  C   UNL     1       6.898   3.764  25.155  0.00  0.00    +0.004 C 
ATOM     43  C   UNL     1       6.237   3.153  23.932  0.00  0.00    -0.003 C 
ENDBRANCH  41  43
ENDBRANCH  40  41
ENDBRANCH  39  40
ENDBRANCH  38  39
ENDBRANCH  37  38
ENDBRANCH  36  37
ENDBRANCH  35  36
ENDBRANCH  34  35
ENDBRANCH  33  34
ENDBRANCH  32  33
ENDBRANCH  31  32
ENDBRANCH  30  31
ENDBRANCH  29  30
ENDBRANCH  27  29
ENDBRANCH  26  27
ENDBRANCH   1  26
TORSDOF 21
ENDMDL
MODEL 2
REMARK VINA RESULT:      -6.3      2.083      4.220
REMARK  Name = 
REMARK  22 active torsions:
REMARK  status: ('A' for Active; 'I' for Inactive)
REMARK    1  A    between atoms: C_1  and  C_2
REMARK    2  A    between atoms: C_2  and  C_3
REMARK    3  A    between atoms: C_3  and  C_4
REMARK    4  A    between atoms: C_4  and  C_5
REMARK    5  A    between atoms: C_5  and  C_6
REMARK    6  A    between atoms: C_6  and  C_7
REMARK    7  A    between atoms: C_7  and  C_8
REMARK    8  A    between atoms: C_8  and  C_9
REMARK    9  A    between atoms: C_9  and  C_10
REMARK   10  A    between atoms: C_10  and  C_11
REMARK   11  A    between atoms: C_11  and  C_12
REMARK   12  A    between atoms: C_12  and  C_13
REMARK   13  A    between atoms: C_13  and  C_14
REMARK   14  A    between atoms: C_14  and  C_15
REMARK   15  A    between atoms: C_15  and  C_16
REMARK   16  A    between atoms: C_16  and  O_18
REMARK   17  A    between atoms: O_18  and  C_19
REMARK   18  A    between atoms: C_20  and  C_32
REMARK   19  A    between atoms: C_24  and  O_31
REMARK   20  A    between atoms: C_26  and  O_30
REMARK   21  A    between atoms: C_34  and  O_39
REMARK   22  A    between atoms: C_35  and  O_38
REMARK                            x       y       z     vdW  Elec       q    Type
REMARK                         _______ _______ _______ _____ _____    ______ ____
ROOT
ATOM      1  C   UNL     1       8.291  -2.356  24.864  0.00  0.00    +0.221 A 
ATOM      2  C   UNL     1       8.392  -3.740  24.333  0.00  0.00    +0.239 A 
ATOM      3  O   UNL     1       9.438  -4.369  24.452  0.00  0.00    -0.283 OA
ATOM      4  C   UNL     1       7.160  -4.311  23.764  0.00  0.00    +0.109 A 
ATOM      5  C   UNL     1       5.954  -3.674  24.068  0.00  0.00    +0.147 A 
ATOM      6  C   UNL     1       4.742  -4.238  23.654  0.00  0.00    +0.092 A 
ATOM      7  C   UNL     1       4.755  -5.422  22.916  0.00  0.00    +0.124 A 
ATOM      8  C   UNL     1       5.951  -6.035  22.565  0.00  0.00    +0.091 A 
ATOM      9  O   UNL     1       5.885  -2.497  24.780  0.00  0.00    -0.451 OA
ATOM     10  C   UNL     1       7.156  -5.477  22.987  0.00  0.00    +0.135 A 
ATOM     11  C   UNL     1       7.070  -1.836  25.107  0.00  0.00    +0.182 A 
ENDROOT
BRANCH  11  12
ATOM     12  C   UNL     1       6.856  -0.505  25.753  0.00  0.00    +0.025 A 
ATOM     13  C   UNL     1       6.176   0.539  25.093  0.00  0.00    +0.015 A 
ATOM     14  C   UNL     1       5.941   1.773  25.707  0.00  0.00    +0.050 A 
ATOM     15  C   UNL     1       6.420   1.992  26.984  0.00  0.00    +0.158 A 
ATOM     16  C   UNL     1       7.131   0.999  27.649  0.00  0.00    +0.159 A 
ATOM     17  C   UNL     1       7.353  -0.244  27.049  0.00  0.00    +0.060 A 
BRANCH  16  18
ATOM     18  O   UNL     1       7.594   1.296  28.903  0.00  0.00    -0.503 OA
ATOM     19  H   UNL     1       7.552   2.258  29.027  0.00  0.00    +0.292 HD
ENDBRANCH  16  18
BRANCH  15  20
ATOM     20  O   UNL     1       6.192   3.198  27.581  0.00  0.00    -0.503 OA
ATOM     21  H   UNL     1       6.558   3.103  28.482  0.00  0.00    +0.292 HD
ENDBRANCH  15  20
ENDBRANCH  11  12
BRANCH  10  22
ATOM     22  O   UNL     1       8.326  -6.073  22.614  0.00  0.00    -0.506 OA
ATOM     23  H   UNL     1       8.266  -7.037  22.710  0.00  0.00    +0.292 HD
ENDBRANCH  10  22
BRANCH   7  24
ATOM     24  O   UNL     1       3.602  -6.027  22.515  0.00  0.00    -0.507 OA
ATOM     25  H   UNL     1       3.785  -6.950  22.272  0.00  0.00    +0.292 HD
ENDBRANCH   7  24
BRANCH   1  26
ATOM     26  O   UNL     1       9.489  -1.706  25.203  0.00  0.00    -0.418 OA
BRANCH  26  27
ATOM     27  C   UNL     1      10.000  -0.928  24.198  0.00  0.00    +0.313 C 
ATOM     28  O   UNL     1       9.970  -1.166  22.997  0.00  0.00    -0.250 OA
BRANCH  27  29
ATOM     29  C   UNL     1      10.551   0.343  24.792  0.00  0.00    +0.121 C 
BRANCH  29  30
ATOM     30  C   UNL     1       9.658   1.543  24.510  0.00  0.00    +0.011 C 
BRANCH  30  31
ATOM     31  C   UNL     1      10.265   2.411  23.406  0.00  0.00    +0.001 C 
BRANCH  31  32
ATOM     32  C   UNL     1       9.550   2.202  22.075  0.00  0.00    +0.000 C 
BRANCH  32  33
ATOM     33  C   UNL     1       8.121   1.706  22.289  0.00  0.00    +0.000 C 
BRANCH  33  34
ATOM     34  C   UNL     1       7.111   2.766  21.859  0.00  0.00    +0.000 C 
BRANCH  34  35
ATOM     35  C   UNL     1       6.976   3.856  22.916  0.00  0.00    -0.000 C 
BRANCH  35  36
ATOM     36  C   UNL     1       6.846   5.229  22.265  0.00  0.00    -0.000 C 
BRANCH  36  37
ATOM     37  C   UNL     1       8.089   6.073  22.528  0.00  0.00    -0.000 C 
BRANCH  37  38
ATOM     38  C   UNL     1       8.679   5.762  23.900  0.00  0.00    -0.000 C 
BRANCH  38  39
ATOM     39  C   UNL     1       9.865   6.672  24.199  0.00  0.00    -0.000 C 
BRANCH  39  40
ATOM     40  C   UNL     1      11.003   5.891  24.848  0.00  0.00    -0.000 C 
BRANCH  40  41
ATOM     41  C   UNL     1      12.337   6.216  24.180  0.00  0.00    -0.000 C 
BRANCH  41  43
ATOM     42  C   UNL     1      13.250   5.597  21.922  0.00  0.00    +0.004 C 
ATOM     43  C   UNL     1      12.792   5.075  23.273  0.00  0.00    -0.003 C 
ENDBRANCH  41  43
ENDBRANCH  40  41
ENDBRANCH  39  40
ENDBRANCH  38  39
ENDBRANCH  37  38
ENDBRANCH  36  37
ENDBRANCH  35  36
ENDBRANCH  34  35
ENDBRANCH  33  34
ENDBRANCH  32  33
ENDBRANCH  31  32
ENDBRANCH  30  31
ENDBRANCH  29  30
ENDBRANCH  27  29
ENDBRANCH  26  27
ENDBRANCH   1  26
TORSDOF 21
ENDMDL
MODEL 3
REMARK VINA RESULT:      -6.2      1.174      2.207
REMARK  Name = 
REMARK  22 active torsions:
REMARK  status: ('A' for Active; 'I' for Inactive)
REMARK    1  A    between atoms: C_1  and  C_2
REMARK    2  A    between atoms: C_2  and  C_3
REMARK    3  A    between atoms: C_3  and  C_4
REMARK    4  A    between atoms: C_4  and  C_5
REMARK    5  A    between atoms: C_5  and  C_6
REMARK    6  A    between atoms: C_6  and  C_7
REMARK    7  A    between atoms: C_7  and  C_8
REMARK    8  A    between atoms: C_8  and  C_9
REMARK    9  A    between atoms: C_9  and  C_10
REMARK   10  A    between atoms: C_10  and  C_11
REMARK   11  A    between atoms: C_11  and  C_12
REMARK   12  A    between atoms: C_12  and  C_13
REMARK   13  A    between atoms: C_13  and  C_14
REMARK   14  A    between atoms: C_14  and  C_15
REMARK   15  A    between atoms: C_15  and  C_16
REMARK   16  A    between atoms: C_16  and  O_18
REMARK   17  A    between atoms: O_18  and  C_19
REMARK   18  A    between atoms: C_20  and  C_32
REMARK   19  A    between atoms: C_24  and  O_31
REMARK   20  A    between atoms: C_26  and  O_30
REMARK   21  A    between atoms: C_34  and  O_39
REMARK   22  A    between atoms: C_35  and  O_38
REMARK                            x       y       z     vdW  Elec       q    Type
REMARK                         _______ _______ _______ _____ _____    ______ ____
ROOT
ATOM      1  C   UNL     1       7.009  -3.698  25.550  0.00  0.00    +0.221 A 
ATOM      2  C   UNL     1       6.222  -4.694  26.321  0.00  0.00    +0.239 A 
ATOM      3  O   UNL     1       6.277  -4.705  27.546  0.00  0.00    -0.283 OA
ATOM      4  C   UNL     1       5.333  -5.568  25.540  0.00  0.00    +0.109 A 
ATOM      5  C   UNL     1       5.039  -5.183  24.229  0.00  0.00    +0.147 A 
ATOM      6  C   UNL     1       4.107  -5.909  23.478  0.00  0.00    +0.092 A 
ATOM      7  C   UNL     1       3.500  -7.031  24.043  0.00  0.00    +0.124 A 
ATOM      8  C   UNL     1       3.823  -7.452  25.327  0.00  0.00    +0.091 A 
ATOM      9  O   UNL     1       5.620  -4.094  23.618  0.00  0.00    -0.451 OA
ATOM     10  C   UNL     1       4.743  -6.721  26.076  0.00  0.00    +0.135 A 
ATOM     11  C   UNL     1       6.643  -3.414  24.282  0.00  0.00    +0.182 A 
ENDROOT
BRANCH  11  12
ATOM     12  C   UNL     1       7.286  -2.343  23.460  0.00  0.00    +0.025 A 
ATOM     13  C   UNL     1       6.646  -1.111  23.217  0.00  0.00    +0.015 A 
ATOM     14  C   UNL     1       7.258  -0.092  22.480  0.00  0.00    +0.050 A 
ATOM     15  C   UNL     1       8.511  -0.310  21.942  0.00  0.00    +0.158 A 
ATOM     16  C   UNL     1       9.154  -1.530  22.127  0.00  0.00    +0.159 A 
ATOM     17  C   UNL     1       8.557  -2.545  22.879  0.00  0.00    +0.060 A 
BRANCH  16  18
ATOM     18  O   UNL     1      10.384  -1.681  21.545  0.00  0.00    -0.503 OA
ATOM     19  H   UNL     1      10.914  -0.889  21.736  0.00  0.00    +0.292 HD
ENDBRANCH  16  18
BRANCH  15  20
ATOM     20  O   UNL     1       9.106   0.684  21.221  0.00  0.00    -0.503 OA
ATOM     21  H   UNL     1       8.686   1.507  21.539  0.00  0.00    +0.292 HD
ENDBRANCH  15  20
ENDBRANCH  11  12
BRANCH  10  22
ATOM     22  O   UNL     1       5.073  -7.158  27.326  0.00  0.00    -0.506 OA
ATOM     23  H   UNL     1       4.629  -6.624  28.004  0.00  0.00    +0.292 HD
ENDBRANCH  10  22
BRANCH   7  24
ATOM     24  O   UNL     1       2.565  -7.755  23.365  0.00  0.00    -0.507 OA
ATOM     25  H   UNL     1       1.973  -7.153  22.884  0.00  0.00    +0.292 HD
ENDBRANCH   7  24
BRANCH   1  26
ATOM     26  O   UNL     1       8.026  -3.009  26.232  0.00  0.00    -0.418 OA
BRANCH  26  27
ATOM     27  C   UNL     1       7.656  -1.763  26.664  0.00  0.00    +0.313 C 
ATOM     28  O   UNL     1       6.532  -1.401  26.990  0.00  0.00    -0.250 OA
BRANCH  27  29
ATOM     29  C   UNL     1       8.884  -0.892  26.760  0.00  0.00    +0.121 C 
BRANCH  29  30
ATOM     30  C   UNL     1       8.914   0.178  25.680  0.00  0.00    +0.011 C 
BRANCH  30  31
ATOM     31  C   UNL     1      10.320   0.298  25.088  0.00  0.00    +0.001 C 
BRANCH  31  32
ATOM     32  C   UNL     1      10.485   1.591  24.295  0.00  0.00    +0.000 C 
BRANCH  32  33
ATOM     33  C   UNL     1       9.256   2.488  24.443  0.00  0.00    +0.000 C 
BRANCH  33  34
ATOM     34  C   UNL     1       9.229   3.550  23.347  0.00  0.00    +0.000 C 
BRANCH  34  35
ATOM     35  C   UNL     1       7.861   4.219  23.266  0.00  0.00    -0.000 C 
BRANCH  35  36
ATOM     36  C   UNL     1       7.018   3.597  22.157  0.00  0.00    -0.000 C 
BRANCH  36  37
ATOM     37  C   UNL     1       5.623   3.252  22.665  0.00  0.00    -0.000 C 
BRANCH  37  38
ATOM     38  C   UNL     1       5.554   3.360  24.185  0.00  0.00    -0.000 C 
BRANCH  38  39
ATOM     39  C   UNL     1       5.448   1.978  24.822  0.00  0.00    -0.000 C 
BRANCH  39  40
ATOM     40  C   UNL     1       4.931   2.076  26.255  0.00  0.00    -0.000 C 
BRANCH  40  41
ATOM     41  C   UNL     1       5.620   3.213  27.005  0.00  0.00    -0.000 C 
BRANCH  41  43
ATOM     42  C   UNL     1       6.917   1.757  28.589  0.00  0.00    +0.004 C 
ATOM     43  C   UNL     1       7.008   2.795  27.484  0.00  0.00    -0.003 C 
ENDBRANCH  41  43
ENDBRANCH  40  41
ENDBRANCH  39  40
ENDBRANCH  38  39
ENDBRANCH  37  38
ENDBRANCH  36  37
ENDBRANCH  35  36
ENDBRANCH  34  35
ENDBRANCH  33  34
ENDBRANCH  32  33
ENDBRANCH  31  32
ENDBRANCH  30  31
ENDBRANCH  29  30
ENDBRANCH  27  29
ENDBRANCH  26  27
ENDBRANCH   1  26
TORSDOF 21
ENDMDL
MODEL 4
REMARK VINA RESULT:      -6.1      1.951      3.848
REMARK  Name = 
REMARK  22 active torsions:
REMARK  status: ('A' for Active; 'I' for Inactive)
REMARK    1  A    between atoms: C_1  and  C_2
REMARK    2  A    between atoms: C_2  and  C_3
REMARK    3  A    between atoms: C_3  and  C_4
REMARK    4  A    between atoms: C_4  and  C_5
REMARK    5  A    between atoms: C_5  and  C_6
REMARK    6  A    between atoms: C_6  and  C_7
REMARK    7  A    between atoms: C_7  and  C_8
REMARK    8  A    between atoms: C_8  and  C_9
REMARK    9  A    between atoms: C_9  and  C_10
REMARK   10  A    between atoms: C_10  and  C_11
REMARK   11  A    between atoms: C_11  and  C_12
REMARK   12  A    between atoms: C_12  and  C_13
REMARK   13  A    between atoms: C_13  and  C_14
REMARK   14  A    between atoms: C_14  and  C_15
REMARK   15  A    between atoms: C_15  and  C_16
REMARK   16  A    between atoms: C_16  and  O_18
REMARK   17  A    between atoms: O_18  and  C_19
REMARK   18  A    between atoms: C_20  and  C_32
REMARK   19  A    between atoms: C_24  and  O_31
REMARK   20  A    between atoms: C_26  and  O_30
REMARK   21  A    between atoms: C_34  and  O_39
REMARK   22  A    between atoms: C_35  and  O_38
REMARK                            x       y       z     vdW  Elec       q    Type
REMARK                         _______ _______ _______ _____ _____    ______ ____
ROOT
ATOM      1  C   UNL     1       6.025  -4.010  24.062  0.00  0.00    +0.221 A 
ATOM      2  C   UNL     1       5.470  -5.384  23.953  0.00  0.00    +0.239 A 
ATOM      3  O   UNL     1       5.899  -6.153  23.099  0.00  0.00    -0.283 OA
ATOM      4  C   UNL     1       4.478  -5.768  24.969  0.00  0.00    +0.109 A 
ATOM      5  C   UNL     1       4.391  -4.978  26.118  0.00  0.00    +0.147 A 
ATOM      6  C   UNL     1       3.551  -5.361  27.170  0.00  0.00    +0.092 A 
ATOM      7  C   UNL     1       2.786  -6.521  27.046  0.00  0.00    +0.124 A 
ATOM      8  C   UNL     1       2.825  -7.286  25.887  0.00  0.00    +0.091 A 
ATOM      9  O   UNL     1       5.113  -3.817  26.287  0.00  0.00    -0.451 OA
ATOM     10  C   UNL     1       3.671  -6.908  24.846  0.00  0.00    +0.135 A 
ATOM     11  C   UNL     1       5.869  -3.331  25.218  0.00  0.00    +0.182 A 
ENDROOT
BRANCH  11  12
ATOM     12  C   UNL     1       6.489  -1.996  25.478  0.00  0.00    +0.025 A 
ATOM     13  C   UNL     1       6.067  -0.837  24.796  0.00  0.00    +0.015 A 
ATOM     14  C   UNL     1       6.619   0.420  25.062  0.00  0.00    +0.050 A 
ATOM     15  C   UNL     1       7.632   0.527  25.994  0.00  0.00    +0.158 A 
ATOM     16  C   UNL     1       8.101  -0.602  26.657  0.00  0.00    +0.159 A 
ATOM     17  C   UNL     1       7.541  -1.859  26.410  0.00  0.00    +0.060 A 
BRANCH  16  18
ATOM     18  O   UNL     1       9.123  -0.422  27.551  0.00  0.00    -0.503 OA
ATOM     19  H   UNL     1       8.740  -0.205  28.417  0.00  0.00    +0.292 HD
ENDBRANCH  16  18
BRANCH  15  20
ATOM     20  O   UNL     1       8.171   1.754  26.252  0.00  0.00    -0.503 OA
ATOM     21  H   UNL     1       7.429   2.282  26.607  0.00  0.00    +0.292 HD
ENDBRANCH  15  20
ENDBRANCH  11  12
BRANCH  10  22
ATOM     22  O   UNL     1       3.683  -7.652  23.702  0.00  0.00    -0.506 OA
ATOM     23  H   UNL     1       4.499  -8.173  23.640  0.00  0.00    +0.292 HD
ENDBRANCH  10  22
BRANCH   7  24
ATOM     24  O   UNL     1       1.974  -6.953  28.052  0.00  0.00    -0.507 OA
ATOM     25  H   UNL     1       1.951  -7.924  28.057  0.00  0.00    +0.292 HD
ENDBRANCH   7  24
BRANCH   1  26
ATOM     26  O   UNL     1       6.796  -3.538  22.987  0.00  0.00    -0.418 OA
BRANCH  26  27
ATOM     27  C   UNL     1       8.145  -3.548  23.228  0.00  0.00    +0.313 C 
ATOM     28  O   UNL     1       8.787  -4.435  23.776  0.00  0.00    -0.250 OA
BRANCH  27  29
ATOM     29  C   UNL     1       8.760  -2.307  22.630  0.00  0.00    +0.121 C 
BRANCH  29  30
ATOM     30  C   UNL     1       9.963  -1.823  23.426  0.00  0.00    +0.011 C 
BRANCH  30  31
ATOM     31  C   UNL     1      10.088  -0.301  23.327  0.00  0.00    +0.001 C 
BRANCH  31  32
ATOM     32  C   UNL     1       9.795   0.194  21.914  0.00  0.00    +0.000 C 
BRANCH  32  33
ATOM     33  C   UNL     1       9.381   1.664  21.920  0.00  0.00    +0.000 C 
BRANCH  33  34
ATOM     34  C   UNL     1       7.864   1.798  21.823  0.00  0.00    +0.000 C 
BRANCH  34  35
ATOM     35  C   UNL     1       7.416   3.217  22.157  0.00  0.00    -0.000 C 
BRANCH  35  36
ATOM     36  C   UNL     1       8.501   3.959  22.932  0.00  0.00    -0.000 C 
BRANCH  36  37
ATOM     37  C   UNL     1       7.926   4.596  24.193  0.00  0.00    -0.000 C 
BRANCH  37  38
ATOM     38  C   UNL     1       8.246   6.087  24.245  0.00  0.00    -0.000 C 
BRANCH  38  39
ATOM     39  C   UNL     1       9.655   6.357  23.727  0.00  0.00    -0.000 C 
BRANCH  39  40
ATOM     40  C   UNL     1      10.649   6.465  24.880  0.00  0.00    -0.000 C 
BRANCH  40  41
ATOM     41  C   UNL     1      12.084   6.320  24.375  0.00  0.00    -0.000 C 
BRANCH  41  43
ATOM     42  C   UNL     1      13.237   5.485  22.305  0.00  0.00    +0.004 C 
ATOM     43  C   UNL     1      12.203   5.174  23.373  0.00  0.00    -0.003 C 
ENDBRANCH  41  43
ENDBRANCH  40  41
ENDBRANCH  39  40
ENDBRANCH  38  39
ENDBRANCH  37  38
ENDBRANCH  36  37
ENDBRANCH  35  36
ENDBRANCH  34  35
ENDBRANCH  33  34
ENDBRANCH  32  33
ENDBRANCH  31  32
ENDBRANCH  30  31
ENDBRANCH  29  30
ENDBRANCH  27  29
ENDBRANCH  26  27
ENDBRANCH   1  26
TORSDOF 21
ENDMDL
MODEL 5
REMARK VINA RESULT:      -6.1      2.116      6.108
REMARK  Name = 
REMARK  22 active torsions:
REMARK  status: ('A' for Active; 'I' for Inactive)
REMARK    1  A    between atoms: C_1  and  C_2
REMARK    2  A    between atoms: C_2  and  C_3
REMARK    3  A    between atoms: C_3  and  C_4
REMARK    4  A    between atoms: C_4  and  C_5
REMARK    5  A    between atoms: C_5  and  C_6
REMARK    6  A    between atoms: C_6  and  C_7
REMARK    7  A    between atoms: C_7  and  C_8
REMARK    8  A    between atoms: C_8  and  C_9
REMARK    9  A    between atoms: C_9  and  C_10
REMARK   10  A    between atoms: C_10  and  C_11
REMARK   11  A    between atoms: C_11  and  C_12
REMARK   12  A    between atoms: C_12  and  C_13
REMARK   13  A    between atoms: C_13  and  C_14
REMARK   14  A    between atoms: C_14  and  C_15
REMARK   15  A    between atoms: C_15  and  C_16
REMARK   16  A    between atoms: C_16  and  O_18
REMARK   17  A    between atoms: O_18  and  C_19
REMARK   18  A    between atoms: C_20  and  C_32
REMARK   19  A    between atoms: C_24  and  O_31
REMARK   20  A    between atoms: C_26  and  O_30
REMARK   21  A    between atoms: C_34  and  O_39
REMARK   22  A    between atoms: C_35  and  O_38
REMARK                            x       y       z     vdW  Elec       q    Type
REMARK                         _______ _______ _______ _____ _____    ______ ____
ROOT
ATOM      1  C   UNL     1       8.627  -2.038  23.676  0.00  0.00    +0.221 A 
ATOM      2  C   UNL     1       9.577  -0.898  23.615  0.00  0.00    +0.239 A 
ATOM      3  O   UNL     1      10.774  -1.085  23.800  0.00  0.00    -0.283 OA
ATOM      4  C   UNL     1       9.007   0.404  23.232  0.00  0.00    +0.109 A 
ATOM      5  C   UNL     1       7.742   0.406  22.640  0.00  0.00    +0.147 A 
ATOM      6  C   UNL     1       7.200   1.600  22.149  0.00  0.00    +0.092 A 
ATOM      7  C   UNL     1       7.925   2.784  22.281  0.00  0.00    +0.124 A 
ATOM      8  C   UNL     1       9.161   2.802  22.914  0.00  0.00    +0.091 A 
ATOM      9  O   UNL     1       6.978  -0.732  22.496  0.00  0.00    -0.451 OA
ATOM     10  C   UNL     1       9.702   1.610  23.393  0.00  0.00    +0.135 A 
ATOM     11  C   UNL     1       7.422  -1.920  23.080  0.00  0.00    +0.182 A 
ENDROOT
BRANCH  11  12
ATOM     12  C   UNL     1       6.441  -3.043  22.975  0.00  0.00    +0.025 A 
ATOM     13  C   UNL     1       5.251  -3.061  23.731  0.00  0.00    +0.015 A 
ATOM     14  C   UNL     1       4.313  -4.091  23.610  0.00  0.00    +0.050 A 
ATOM     15  C   UNL     1       4.574  -5.142  22.752  0.00  0.00    +0.158 A 
ATOM     16  C   UNL     1       5.757  -5.177  22.022  0.00  0.00    +0.159 A 
ATOM     17  C   UNL     1       6.690  -4.142  22.123  0.00  0.00    +0.060 A 
BRANCH  16  18
ATOM     18  O   UNL     1       5.957  -6.261  21.210  0.00  0.00    -0.503 OA
ATOM     19  H   UNL     1       5.093  -6.653  21.001  0.00  0.00    +0.292 HD
ENDBRANCH  16  18
BRANCH  15  20
ATOM     20  O   UNL     1       3.659  -6.147  22.637  0.00  0.00    -0.503 OA
ATOM     21  H   UNL     1       3.986  -6.852  23.229  0.00  0.00    +0.292 HD
ENDBRANCH  15  20
ENDBRANCH  11  12
BRANCH  10  22
ATOM     22  O   UNL     1      10.905   1.644  24.037  0.00  0.00    -0.506 OA
ATOM     23  H   UNL     1      11.054   2.513  24.440  0.00  0.00    +0.292 HD
ENDBRANCH  10  22
BRANCH   7  24
ATOM     24  O   UNL     1       7.456   3.967  21.794  0.00  0.00    -0.507 OA
ATOM     25  H   UNL     1       7.183   4.538  22.531  0.00  0.00    +0.292 HD
ENDBRANCH   7  24
BRANCH   1  26
ATOM     26  O   UNL     1       9.089  -3.233  24.251  0.00  0.00    -0.418 OA
BRANCH  26  27
ATOM     27  C   UNL     1       8.462  -3.561  25.424  0.00  0.00    +0.313 C 
ATOM     28  O   UNL     1       7.960  -4.641  25.713  0.00  0.00    -0.250 OA
BRANCH  27  29
ATOM     29  C   UNL     1       8.549  -2.391  26.372  0.00  0.00    +0.121 C 
BRANCH  29  30
ATOM     30  C   UNL     1       7.178  -1.824  26.710  0.00  0.00    +0.011 C 
BRANCH  30  31
ATOM     31  C   UNL     1       7.184  -0.300  26.572  0.00  0.00    +0.001 C 
BRANCH  31  32
ATOM     32  C   UNL     1       5.926   0.202  25.871  0.00  0.00    +0.000 C 
BRANCH  32  33
ATOM     33  C   UNL     1       5.977   1.715  25.663  0.00  0.00    +0.000 C 
BRANCH  33  34
ATOM     34  C   UNL     1       7.357   2.262  26.014  0.00  0.00    +0.000 C 
BRANCH  34  35
ATOM     35  C   UNL     1       7.247   3.581  26.773  0.00  0.00    -0.000 C 
BRANCH  35  36
ATOM     36  C   UNL     1       7.020   4.742  25.810  0.00  0.00    -0.000 C 
BRANCH  36  37
ATOM     37  C   UNL     1       8.300   5.551  25.626  0.00  0.00    -0.000 C 
BRANCH  37  38
ATOM     38  C   UNL     1       8.328   6.222  24.256  0.00  0.00    -0.000 C 
BRANCH  38  39
ATOM     39  C   UNL     1       9.757   6.337  23.737  0.00  0.00    -0.000 C 
BRANCH  39  40
ATOM     40  C   UNL     1      10.731   6.619  24.878  0.00  0.00    -0.000 C 
BRANCH  40  41
ATOM     41  C   UNL     1      12.158   6.253  24.477  0.00  0.00    -0.000 C 
BRANCH  41  43
ATOM     42  C   UNL     1      13.232   5.490  22.338  0.00  0.00    +0.004 C 
ATOM     43  C   UNL     1      12.167   5.192  23.379  0.00  0.00    -0.003 C 
ENDBRANCH  41  43
ENDBRANCH  40  41
ENDBRANCH  39  40
ENDBRANCH  38  39
ENDBRANCH  37  38
ENDBRANCH  36  37
ENDBRANCH  35  36
ENDBRANCH  34  35
ENDBRANCH  33  34
ENDBRANCH  32  33
ENDBRANCH  31  32
ENDBRANCH  30  31
ENDBRANCH  29  30
ENDBRANCH  27  29
ENDBRANCH  26  27
ENDBRANCH   1  26
TORSDOF 21
ENDMDL
MODEL 6
REMARK VINA RESULT:      -5.9      2.150      3.628
REMARK  Name = 
REMARK  22 active torsions:
REMARK  status: ('A' for Active; 'I' for Inactive)
REMARK    1  A    between atoms: C_1  and  C_2
REMARK    2  A    between atoms: C_2  and  C_3
REMARK    3  A    between atoms: C_3  and  C_4
REMARK    4  A    between atoms: C_4  and  C_5
REMARK    5  A    between atoms: C_5  and  C_6
REMARK    6  A    between atoms: C_6  and  C_7
REMARK    7  A    between atoms: C_7  and  C_8
REMARK    8  A    between atoms: C_8  and  C_9
REMARK    9  A    between atoms: C_9  and  C_10
REMARK   10  A    between atoms: C_10  and  C_11
REMARK   11  A    between atoms: C_11  and  C_12
REMARK   12  A    between atoms: C_12  and  C_13
REMARK   13  A    between atoms: C_13  and  C_14
REMARK   14  A    between atoms: C_14  and  C_15
REMARK   15  A    between atoms: C_15  and  C_16
REMARK   16  A    between atoms: C_16  and  O_18
REMARK   17  A    between atoms: O_18  and  C_19
REMARK   18  A    between atoms: C_20  and  C_32
REMARK   19  A    between atoms: C_24  and  O_31
REMARK   20  A    between atoms: C_26  and  O_30
REMARK   21  A    between atoms: C_34  and  O_39
REMARK   22  A    between atoms: C_35  and  O_38
REMARK                            x       y       z     vdW  Elec       q    Type
REMARK                         _______ _______ _______ _____ _____    ______ ____
ROOT
ATOM      1  C   UNL     1       8.305  -2.327  24.672  0.00  0.00    +0.221 A 
ATOM      2  C   UNL     1       8.258  -3.698  24.100  0.00  0.00    +0.239 A 
ATOM      3  O   UNL     1       9.261  -4.402  24.109  0.00  0.00    -0.283 OA
ATOM      4  C   UNL     1       6.943  -4.162  23.630  0.00  0.00    +0.109 A 
ATOM      5  C   UNL     1       5.818  -3.451  24.056  0.00  0.00    +0.147 A 
ATOM      6  C   UNL     1       4.536  -3.915  23.739  0.00  0.00    +0.092 A 
ATOM      7  C   UNL     1       4.398  -5.074  22.975  0.00  0.00    +0.124 A 
ATOM      8  C   UNL     1       5.509  -5.759  22.502  0.00  0.00    +0.091 A 
ATOM      9  O   UNL     1       5.897  -2.295  24.800  0.00  0.00    -0.451 OA
ATOM     10  C   UNL     1       6.785  -5.301  22.829  0.00  0.00    +0.135 A 
ATOM     11  C   UNL     1       7.152  -1.729  25.035  0.00  0.00    +0.182 A 
ENDROOT
BRANCH  11  12
ATOM     12  C   UNL     1       7.094  -0.407  25.731  0.00  0.00    +0.025 A 
ATOM     13  C   UNL     1       6.674   0.763  25.064  0.00  0.00    +0.015 A 
ATOM     14  C   UNL     1       6.582   1.995  25.720  0.00  0.00    +0.050 A 
ATOM     15  C   UNL     1       6.948   2.080  27.049  0.00  0.00    +0.158 A 
ATOM     16  C   UNL     1       7.406   0.954  27.726  0.00  0.00    +0.159 A 
ATOM     17  C   UNL     1       7.482  -0.285  27.083  0.00  0.00    +0.060 A 
BRANCH  16  18
ATOM     18  O   UNL     1       7.772   1.119  29.035  0.00  0.00    -0.503 OA
ATOM     19  H   UNL     1       7.290   1.881  29.396  0.00  0.00    +0.292 HD
ENDBRANCH  16  18
BRANCH  15  20
ATOM     20  O   UNL     1       6.860   3.282  27.686  0.00  0.00    -0.503 OA
ATOM     21  H   UNL     1       6.233   3.130  28.420  0.00  0.00    +0.292 HD
ENDBRANCH  15  20
ENDBRANCH  11  12
BRANCH  10  22
ATOM     22  O   UNL     1       7.871  -5.967  22.338  0.00  0.00    -0.506 OA
ATOM     23  H   UNL     1       7.595  -6.668  21.727  0.00  0.00    +0.292 HD
ENDBRANCH  10  22
BRANCH   7  24
ATOM     24  O   UNL     1       3.172  -5.583  22.663  0.00  0.00    -0.507 OA
ATOM     25  H   UNL     1       3.269  -6.498  22.353  0.00  0.00    +0.292 HD
ENDBRANCH   7  24
BRANCH   1  26
ATOM     26  O   UNL     1       9.573  -1.774  24.918  0.00  0.00    -0.418 OA
BRANCH  26  27
ATOM     27  C   UNL     1       9.960  -0.843  23.990  0.00  0.00    +0.313 C 
ATOM     28  O   UNL     1       9.742  -0.872  22.785  0.00  0.00    -0.250 OA
BRANCH  27  29
ATOM     29  C   UNL     1      10.645   0.299  24.697  0.00  0.00    +0.121 C 
BRANCH  29  30
ATOM     30  C   UNL     1      10.081   1.651  24.283  0.00  0.00    +0.011 C 
BRANCH  30  31
ATOM     31  C   UNL     1      11.093   2.410  23.423  0.00  0.00    +0.001 C 
BRANCH  31  32
ATOM     32  C   UNL     1      10.758   3.897  23.348  0.00  0.00    +0.000 C 
BRANCH  32  33
ATOM     33  C   UNL     1      12.026   4.750  23.376  0.00  0.00    +0.000 C 
BRANCH  33  34
ATOM     34  C   UNL     1      11.831   5.976  24.262  0.00  0.00    +0.000 C 
BRANCH  34  35
ATOM     35  C   UNL     1      10.404   6.505  24.161  0.00  0.00    -0.000 C 
BRANCH  35  36
ATOM     36  C   UNL     1       9.761   6.597  25.541  0.00  0.00    -0.000 C 
BRANCH  36  37
ATOM     37  C   UNL     1       8.440   5.836  25.575  0.00  0.00    -0.000 C 
BRANCH  37  38
ATOM     38  C   UNL     1       7.478   6.366  24.516  0.00  0.00    -0.000 C 
BRANCH  38  39
ATOM     39  C   UNL     1       6.306   5.411  24.321  0.00  0.00    -0.000 C 
BRANCH  39  40
ATOM     40  C   UNL     1       6.164   5.011  22.856  0.00  0.00    -0.000 C 
BRANCH  40  41
ATOM     41  C   UNL     1       7.319   4.109  22.425  0.00  0.00    -0.000 C 
BRANCH  41  43
ATOM     42  C   UNL     1       7.954   1.865  21.489  0.00  0.00    +0.004 C 
ATOM     43  C   UNL     1       6.812   2.740  21.978  0.00  0.00    -0.003 C 
ENDBRANCH  41  43
ENDBRANCH  40  41
ENDBRANCH  39  40
ENDBRANCH  38  39
ENDBRANCH  37  38
ENDBRANCH  36  37
ENDBRANCH  35  36
ENDBRANCH  34  35
ENDBRANCH  33  34
ENDBRANCH  32  33
ENDBRANCH  31  32
ENDBRANCH  30  31
ENDBRANCH  29  30
ENDBRANCH  27  29
ENDBRANCH  26  27
ENDBRANCH   1  26
TORSDOF 21
ENDMDL
MODEL 7
REMARK VINA RESULT:      -5.9      2.397      7.860
REMARK  Name = 
REMARK  22 active torsions:
REMARK  status: ('A' for Active; 'I' for Inactive)
REMARK    1  A    between atoms: C_1  and  C_2
REMARK    2  A    between atoms: C_2  and  C_3
REMARK    3  A    between atoms: C_3  and  C_4
REMARK    4  A    between atoms: C_4  and  C_5
REMARK    5  A    between atoms: C_5  and  C_6
REMARK    6  A    between atoms: C_6  and  C_7
REMARK    7  A    between atoms: C_7  and  C_8
REMARK    8  A    between atoms: C_8  and  C_9
REMARK    9  A    between atoms: C_9  and  C_10
REMARK   10  A    between atoms: C_10  and  C_11
REMARK   11  A    between atoms: C_11  and  C_12
REMARK   12  A    between atoms: C_12  and  C_13
REMARK   13  A    between atoms: C_13  and  C_14
REMARK   14  A    between atoms: C_14  and  C_15
REMARK   15  A    between atoms: C_15  and  C_16
REMARK   16  A    between atoms: C_16  and  O_18
REMARK   17  A    between atoms: O_18  and  C_19
REMARK   18  A    between atoms: C_20  and  C_32
REMARK   19  A    between atoms: C_24  and  O_31
REMARK   20  A    between atoms: C_26  and  O_30
REMARK   21  A    between atoms: C_34  and  O_39
REMARK   22  A    between atoms: C_35  and  O_38
REMARK                            x       y       z     vdW  Elec       q    Type
REMARK                         _______ _______ _______ _____ _____    ______ ____
ROOT
ATOM      1  C   UNL     1       6.131  -1.095  25.159  0.00  0.00    +0.221 A 
ATOM      2  C   UNL     1       6.511   0.242  25.683  0.00  0.00    +0.239 A 
ATOM      3  O   UNL     1       6.709   0.398  26.883  0.00  0.00    -0.283 OA
ATOM      4  C   UNL     1       6.719   1.299  24.680  0.00  0.00    +0.109 A 
ATOM      5  C   UNL     1       6.881   0.904  23.350  0.00  0.00    +0.147 A 
ATOM      6  C   UNL     1       7.200   1.853  22.372  0.00  0.00    +0.092 A 
ATOM      7  C   UNL     1       7.326   3.194  22.735  0.00  0.00    +0.124 A 
ATOM      8  C   UNL     1       7.115   3.605  24.045  0.00  0.00    +0.091 A 
ATOM      9  O   UNL     1       6.755  -0.403  22.934  0.00  0.00    -0.451 OA
ATOM     10  C   UNL     1       6.809   2.656  25.019  0.00  0.00    +0.135 A 
ATOM     11  C   UNL     1       6.318  -1.363  23.850  0.00  0.00    +0.182 A 
ENDROOT
BRANCH  11  12
ATOM     12  C   UNL     1       6.086  -2.710  23.244  0.00  0.00    +0.025 A 
ATOM     13  C   UNL     1       7.094  -3.381  22.521  0.00  0.00    +0.015 A 
ATOM     14  C   UNL     1       6.894  -4.657  21.984  0.00  0.00    +0.050 A 
ATOM     15  C   UNL     1       5.663  -5.265  22.133  0.00  0.00    +0.158 A 
ATOM     16  C   UNL     1       4.633  -4.614  22.805  0.00  0.00    +0.159 A 
ATOM     17  C   UNL     1       4.832  -3.347  23.361  0.00  0.00    +0.060 A 
BRANCH  16  18
ATOM     18  O   UNL     1       3.434  -5.269  22.893  0.00  0.00    -0.503 OA
ATOM     19  H   UNL     1       3.507  -6.110  22.414  0.00  0.00    +0.292 HD
ENDBRANCH  16  18
BRANCH  15  20
ATOM     20  O   UNL     1       5.469  -6.508  21.607  0.00  0.00    -0.503 OA
ATOM     21  H   UNL     1       4.499  -6.626  21.598  0.00  0.00    +0.292 HD
ENDBRANCH  15  20
ENDBRANCH  11  12
BRANCH  10  22
ATOM     22  O   UNL     1       6.579   3.074  26.298  0.00  0.00    -0.506 OA
ATOM     23  H   UNL     1       7.397   3.404  26.704  0.00  0.00    +0.292 HD
ENDBRANCH  10  22
BRANCH   7  24
ATOM     24  O   UNL     1       7.663   4.152  21.827  0.00  0.00    -0.507 OA
ATOM     25  H   UNL     1       8.321   3.796  21.207  0.00  0.00    +0.292 HD
ENDBRANCH   7  24
BRANCH   1  26
ATOM     26  O   UNL     1       5.708  -2.057  26.091  0.00  0.00    -0.418 OA
BRANCH  26  27
ATOM     27  C   UNL     1       4.457  -1.822  26.599  0.00  0.00    +0.313 C 
ATOM     28  O   UNL     1       3.445  -1.553  25.965  0.00  0.00    -0.250 OA
BRANCH  27  29
ATOM     29  C   UNL     1       4.488  -2.028  28.093  0.00  0.00    +0.121 C 
BRANCH  29  30
ATOM     30  C   UNL     1       4.712  -3.486  28.467  0.00  0.00    +0.011 C 
BRANCH  30  31
ATOM     31  C   UNL     1       3.421  -4.287  28.287  0.00  0.00    +0.001 C 
BRANCH  31  32
ATOM     32  C   UNL     1       3.676  -5.599  27.552  0.00  0.00    +0.000 C 
BRANCH  32  33
ATOM     33  C   UNL     1       5.173  -5.882  27.431  0.00  0.00    +0.000 C 
BRANCH  33  34
ATOM     34  C   UNL     1       5.550  -6.183  25.984  0.00  0.00    +0.000 C 
BRANCH  34  35
ATOM     35  C   UNL     1       6.874  -5.524  25.614  0.00  0.00    -0.000 C 
BRANCH  35  36
ATOM     36  C   UNL     1       7.554  -4.943  26.850  0.00  0.00    -0.000 C 
BRANCH  36  37
ATOM     37  C   UNL     1       8.631  -3.937  26.455  0.00  0.00    -0.000 C 
BRANCH  37  38
ATOM     38  C   UNL     1       9.427  -4.436  25.253  0.00  0.00    -0.000 C 
BRANCH  38  39
ATOM     39  C   UNL     1       9.775  -3.284  24.317  0.00  0.00    -0.000 C 
BRANCH  39  40
ATOM     40  C   UNL     1       9.552  -1.938  25.001  0.00  0.00    -0.000 C 
BRANCH  40  41
ATOM     41  C   UNL     1      10.008  -0.790  24.103  0.00  0.00    -0.000 C 
BRANCH  41  43
ATOM     42  C   UNL     1      10.584   1.654  24.023  0.00  0.00    +0.004 C 
ATOM     43  C   UNL     1      10.326   0.458  24.923  0.00  0.00    -0.003 C 
ENDBRANCH  41  43
ENDBRANCH  40  41
ENDBRANCH  39  40
ENDBRANCH  38  39
ENDBRANCH  37  38
ENDBRANCH  36  37
ENDBRANCH  35  36
ENDBRANCH  34  35
ENDBRANCH  33  34
ENDBRANCH  32  33
ENDBRANCH  31  32
ENDBRANCH  30  31
ENDBRANCH  29  30
ENDBRANCH  27  29
ENDBRANCH  26  27
ENDBRANCH   1  26
TORSDOF 21
ENDMDL
MODEL 8
REMARK VINA RESULT:      -5.9      2.460      8.875
REMARK  Name = 
REMARK  22 active torsions:
REMARK  status: ('A' for Active; 'I' for Inactive)
REMARK    1  A    between atoms: C_1  and  C_2
REMARK    2  A    between atoms: C_2  and  C_3
REMARK    3  A    between atoms: C_3  and  C_4
REMARK    4  A    between atoms: C_4  and  C_5
REMARK    5  A    between atoms: C_5  and  C_6
REMARK    6  A    between atoms: C_6  and  C_7
REMARK    7  A    between atoms: C_7  and  C_8
REMARK    8  A    between atoms: C_8  and  C_9
REMARK    9  A    between atoms: C_9  and  C_10
REMARK   10  A    between atoms: C_10  and  C_11
REMARK   11  A    between atoms: C_11  and  C_12
REMARK   12  A    between atoms: C_12  and  C_13
REMARK   13  A    between atoms: C_13  and  C_14
REMARK   14  A    between atoms: C_14  and  C_15
REMARK   15  A    between atoms: C_15  and  C_16
REMARK   16  A    between atoms: C_16  and  O_18
REMARK   17  A    between atoms: O_18  and  C_19
REMARK   18  A    between atoms: C_20  and  C_32
REMARK   19  A    between atoms: C_24  and  O_31
REMARK   20  A    between atoms: C_26  and  O_30
REMARK   21  A    between atoms: C_34  and  O_39
REMARK   22  A    between atoms: C_35  and  O_38
REMARK                            x       y       z     vdW  Elec       q    Type
REMARK                         _______ _______ _______ _____ _____    ______ ____
ROOT
ATOM      1  C   UNL     1       7.674   0.350  25.856  0.00  0.00    +0.221 A 
ATOM      2  C   UNL     1       7.687   1.836  25.891  0.00  0.00    +0.239 A 
ATOM      3  O   UNL     1       6.976   2.438  26.689  0.00  0.00    -0.283 OA
ATOM      4  C   UNL     1       8.652   2.499  25.000  0.00  0.00    +0.109 A 
ATOM      5  C   UNL     1       9.682   1.718  24.469  0.00  0.00    +0.147 A 
ATOM      6  C   UNL     1      10.695   2.318  23.711  0.00  0.00    +0.092 A 
ATOM      7  C   UNL     1      10.649   3.692  23.474  0.00  0.00    +0.124 A 
ATOM      8  C   UNL     1       9.602   4.468  23.953  0.00  0.00    +0.091 A 
ATOM      9  O   UNL     1       9.768   0.357  24.661  0.00  0.00    -0.451 OA
ATOM     10  C   UNL     1       8.600   3.871  24.716  0.00  0.00    +0.135 A 
ATOM     11  C   UNL     1       8.718  -0.301  25.303  0.00  0.00    +0.182 A 
ENDROOT
BRANCH  11  12
ATOM     12  C   UNL     1       8.864  -1.789  25.324  0.00  0.00    +0.025 A 
ATOM     13  C   UNL     1       9.553  -2.480  24.306  0.00  0.00    +0.015 A 
ATOM     14  C   UNL     1       9.724  -3.867  24.340  0.00  0.00    +0.050 A 
ATOM     15  C   UNL     1       9.174  -4.589  25.381  0.00  0.00    +0.158 A 
ATOM     16  C   UNL     1       8.453  -3.944  26.382  0.00  0.00    +0.159 A 
ATOM     17  C   UNL     1       8.294  -2.555  26.364  0.00  0.00    +0.060 A 
BRANCH  16  18
ATOM     18  O   UNL     1       7.918  -4.727  27.369  0.00  0.00    -0.503 OA
ATOM     19  H   UNL     1       7.153  -4.264  27.748  0.00  0.00    +0.292 HD
ENDBRANCH  16  18
BRANCH  15  20
ATOM     20  O   UNL     1       9.341  -5.943  25.412  0.00  0.00    -0.503 OA
ATOM     21  H   UNL     1       9.733  -6.125  26.288  0.00  0.00    +0.292 HD
ENDBRANCH  15  20
ENDBRANCH  11  12
BRANCH  10  22
ATOM     22  O   UNL     1       7.563   4.638  25.161  0.00  0.00    -0.506 OA
ATOM     23  H   UNL     1       7.530   5.481  24.682  0.00  0.00    +0.292 HD
ENDBRANCH  10  22
BRANCH   7  24
ATOM     24  O   UNL     1      11.626   4.328  22.767  0.00  0.00    -0.507 OA
ATOM     25  H   UNL     1      11.724   3.908  21.897  0.00  0.00    +0.292 HD
ENDBRANCH   7  24
BRANCH   1  26
ATOM     26  O   UNL     1       6.620  -0.301  26.519  0.00  0.00    -0.418 OA
BRANCH  26  27
ATOM     27  C   UNL     1       5.448  -0.317  25.812  0.00  0.00    +0.313 C 
ATOM     28  O   UNL     1       5.271   0.094  24.672  0.00  0.00    -0.250 OA
BRANCH  27  29
ATOM     29  C   UNL     1       4.388  -1.008  26.633  0.00  0.00    +0.121 C 
BRANCH  29  30
ATOM     30  C   UNL     1       4.987  -1.948  27.669  0.00  0.00    +0.011 C 
BRANCH  30  31
ATOM     31  C   UNL     1       4.142  -3.218  27.788  0.00  0.00    +0.001 C 
BRANCH  31  32
ATOM     32  C   UNL     1       4.793  -4.236  28.719  0.00  0.00    +0.000 C 
BRANCH  32  33
ATOM     33  C   UNL     1       3.998  -5.541  28.752  0.00  0.00    +0.000 C 
BRANCH  33  34
ATOM     34  C   UNL     1       3.691  -6.021  27.337  0.00  0.00    +0.000 C 
BRANCH  34  35
ATOM     35  C   UNL     1       4.924  -6.644  26.689  0.00  0.00    -0.000 C 
BRANCH  35  36
ATOM     36  C   UNL     1       5.200  -6.009  25.329  0.00  0.00    -0.000 C 
BRANCH  36  37
ATOM     37  C   UNL     1       3.899  -5.599  24.648  0.00  0.00    -0.000 C 
BRANCH  37  38
ATOM     38  C   UNL     1       4.094  -4.336  23.815  0.00  0.00    -0.000 C 
BRANCH  38  39
ATOM     39  C   UNL     1       5.335  -3.574  24.269  0.00  0.00    -0.000 C 
BRANCH  39  40
ATOM     40  C   UNL     1       6.060  -2.952  23.079  0.00  0.00    -0.000 C 
BRANCH  40  41
ATOM     41  C   UNL     1       6.038  -3.893  21.877  0.00  0.00    -0.000 C 
BRANCH  41  43
ATOM     42  C   UNL     1       6.667  -6.325  21.949  0.00  0.00    +0.004 C 
ATOM     43  C   UNL     1       7.187  -4.897  21.943  0.00  0.00    -0.003 C 
ENDBRANCH  41  43
ENDBRANCH  40  41
ENDBRANCH  39  40
ENDBRANCH  38  39
ENDBRANCH  37  38
ENDBRANCH  36  37
ENDBRANCH  35  36
ENDBRANCH  34  35
ENDBRANCH  33  34
ENDBRANCH  32  33
ENDBRANCH  31  32
ENDBRANCH  30  31
ENDBRANCH  29  30
ENDBRANCH  27  29
ENDBRANCH  26  27
ENDBRANCH   1  26
TORSDOF 21
ENDMDL
MODEL 9
REMARK VINA RESULT:      -5.9      2.385      7.750
REMARK  Name = 
REMARK  22 active torsions:
REMARK  status: ('A' for Active; 'I' for Inactive)
REMARK    1  A    between atoms: C_1  and  C_2
REMARK    2  A    between atoms: C_2  and  C_3
REMARK    3  A    between atoms: C_3  and  C_4
REMARK    4  A    between atoms: C_4  and  C_5
REMARK    5  A    between atoms: C_5  and  C_6
REMARK    6  A    between atoms: C_6  and  C_7
REMARK    7  A    between atoms: C_7  and  C_8
REMARK    8  A    between atoms: C_8  and  C_9
REMARK    9  A    between atoms: C_9  and  C_10
REMARK   10  A    between atoms: C_10  and  C_11
REMARK   11  A    between atoms: C_11  and  C_12
REMARK   12  A    between atoms: C_12  and  C_13
REMARK   13  A    between atoms: C_13  and  C_14
REMARK   14  A    between atoms: C_14  and  C_15
REMARK   15  A    between atoms: C_15  and  C_16
REMARK   16  A    between atoms: C_16  and  O_18
REMARK   17  A    between atoms: O_18  and  C_19
REMARK   18  A    between atoms: C_20  and  C_32
REMARK   19  A    between atoms: C_24  and  O_31
REMARK   20  A    between atoms: C_26  and  O_30
REMARK   21  A    between atoms: C_34  and  O_39
REMARK   22  A    between atoms: C_35  and  O_38
REMARK                            x       y       z     vdW  Elec       q    Type
REMARK                         _______ _______ _______ _____ _____    ______ ____
ROOT
ATOM      1  C   UNL     1       8.149  -1.307  24.384  0.00  0.00    +0.221 A 
ATOM      2  C   UNL     1       8.974  -0.075  24.476  0.00  0.00    +0.239 A 
ATOM      3  O   UNL     1      10.063  -0.105  25.037  0.00  0.00    -0.283 OA
ATOM      4  C   UNL     1       8.449   1.112  23.783  0.00  0.00    +0.109 A 
ATOM      5  C   UNL     1       7.438   0.915  22.839  0.00  0.00    +0.147 A 
ATOM      6  C   UNL     1       6.982   1.989  22.066  0.00  0.00    +0.092 A 
ATOM      7  C   UNL     1       7.529   3.256  22.266  0.00  0.00    +0.124 A 
ATOM      8  C   UNL     1       8.498   3.474  23.238  0.00  0.00    +0.091 A 
ATOM      9  O   UNL     1       6.854  -0.312  22.611  0.00  0.00    -0.451 OA
ATOM     10  C   UNL     1       8.957   2.401  24.000  0.00  0.00    +0.135 A 
ATOM     11  C   UNL     1       7.187  -1.383  23.441  0.00  0.00    +0.182 A 
ENDROOT
BRANCH  11  12
ATOM     12  C   UNL     1       6.385  -2.617  23.181  0.00  0.00    +0.025 A 
ATOM     13  C   UNL     1       5.216  -2.909  23.914  0.00  0.00    +0.015 A 
ATOM     14  C   UNL     1       4.441  -4.043  23.651  0.00  0.00    +0.050 A 
ATOM     15  C   UNL     1       4.849  -4.924  22.669  0.00  0.00    +0.158 A 
ATOM     16  C   UNL     1       6.020  -4.689  21.954  0.00  0.00    +0.159 A 
ATOM     17  C   UNL     1       6.788  -3.547  22.199  0.00  0.00    +0.060 A 
BRANCH  16  18
ATOM     18  O   UNL     1       6.372  -5.617  21.012  0.00  0.00    -0.503 OA
ATOM     19  H   UNL     1       7.183  -6.063  21.308  0.00  0.00    +0.292 HD
ENDBRANCH  16  18
BRANCH  15  20
ATOM     20  O   UNL     1       4.094  -6.031  22.414  0.00  0.00    -0.503 OA
ATOM     21  H   UNL     1       4.709  -6.782  22.520  0.00  0.00    +0.292 HD
ENDBRANCH  15  20
ENDBRANCH  11  12
BRANCH  10  22
ATOM     22  O   UNL     1       9.890   2.631  24.969  0.00  0.00    -0.506 OA
ATOM     23  H   UNL     1       9.538   2.403  25.844  0.00  0.00    +0.292 HD
ENDBRANCH  10  22
BRANCH   7  24
ATOM     24  O   UNL     1       7.142   4.328  21.520  0.00  0.00    -0.507 OA
ATOM     25  H   UNL     1       7.915   4.880  21.316  0.00  0.00    +0.292 HD
ENDBRANCH   7  24
BRANCH   1  26
ATOM     26  O   UNL     1       8.504  -2.384  25.214  0.00  0.00    -0.418 OA
BRANCH  26  27
ATOM     27  C   UNL     1       9.278  -3.329  24.593  0.00  0.00    +0.313 C 
ATOM     28  O   UNL     1      10.218  -3.127  23.835  0.00  0.00    -0.250 OA
BRANCH  27  29
ATOM     29  C   UNL     1       8.844  -4.698  25.054  0.00  0.00    +0.121 C 
BRANCH  29  30
ATOM     30  C   UNL     1       8.875  -4.830  26.569  0.00  0.00    +0.011 C 
BRANCH  30  31
ATOM     31  C   UNL     1       7.494  -5.224  27.098  0.00  0.00    +0.001 C 
BRANCH  31  32
ATOM     32  C   UNL     1       6.544  -5.588  25.961  0.00  0.00    +0.000 C 
BRANCH  32  33
ATOM     33  C   UNL     1       5.370  -6.423  26.470  0.00  0.00    +0.000 C 
BRANCH  33  34
ATOM     34  C   UNL     1       4.204  -5.525  26.874  0.00  0.00    +0.000 C 
BRANCH  34  35
ATOM     35  C   UNL     1       4.113  -5.393  28.391  0.00  0.00    -0.000 C 
BRANCH  35  36
ATOM     36  C   UNL     1       4.084  -3.926  28.806  0.00  0.00    -0.000 C 
BRANCH  36  37
ATOM     37  C   UNL     1       4.206  -3.016  27.588  0.00  0.00    -0.000 C 
BRANCH  37  38
ATOM     38  C   UNL     1       4.707  -1.632  27.990  0.00  0.00    -0.000 C 
BRANCH  38  39
ATOM     39  C   UNL     1       5.643  -1.064  26.928  0.00  0.00    -0.000 C 
BRANCH  39  40
ATOM     40  C   UNL     1       6.462   0.095  27.485  0.00  0.00    -0.000 C 
BRANCH  40  41
ATOM     41  C   UNL     1       6.166   1.386  26.724  0.00  0.00    -0.000 C 
BRANCH  41  43
ATOM     42  C   UNL     1       4.707   2.446  24.975  0.00  0.00    +0.004 C 
ATOM     43  C   UNL     1       5.186   1.138  25.580  0.00  0.00    -0.003 C 
ENDBRANCH  41  43
ENDBRANCH  40  41
ENDBRANCH  39  40
ENDBRANCH  38  39
ENDBRANCH  37  38
ENDBRANCH  36  37
ENDBRANCH  35  36
ENDBRANCH  34  35
ENDBRANCH  33  34
ENDBRANCH  32  33
ENDBRANCH  31  32
ENDBRANCH  30  31
ENDBRANCH  29  30
ENDBRANCH  27  29
ENDBRANCH  26  27
ENDBRANCH   1  26
TORSDOF 21
ENDMDL
