MODEL 1
REMARK VINA RESULT:      -7.4      0.000      0.000
REMARK  Name = 
REMARK  18 active torsions:
REMARK  status: ('A' for Active; 'I' for Inactive)
REMARK    1  A    between atoms: C_3  and  O_49
REMARK    2  A    between atoms: C_4  and  O_34
REMARK    3  A    between atoms: C_6  and  C_7
REMARK    4  A    between atoms: C_8  and  O_20
REMARK    5  A    between atoms: C_12  and  O_19
REMARK    6  A    between atoms: C_14  and  O_18
REMARK    7  A    between atoms: O_20  and  C_21
REMARK    8  A    between atoms: C_23  and  O_33
REMARK    9  A    between atoms: C_24  and  O_32
REMARK   10  A    between atoms: C_25  and  O_31
REMARK   11  A    between atoms: C_27  and  C_29
REMARK   12  A    between atoms: C_29  and  O_30
REMARK   13  A    between atoms: O_34  and  C_35
REMARK   14  A    between atoms: C_37  and  O_48
REMARK   15  A    between atoms: C_38  and  O_47
REMARK   16  A    between atoms: C_40  and  O_46
REMARK   17  A    between atoms: C_42  and  C_44
REMARK   18  A    between atoms: C_44  and  O_45
REMARK                            x       y       z     vdW  Elec       q    Type
REMARK                         _______ _______ _______ _____ _____    ______ ____
ROOT
ATOM      1  C   UNL     1       9.714   1.921  23.897  0.00  0.00    +0.181 A 
ATOM      2  O   UNL     1      10.914   2.446  23.432  0.00  0.00    -0.451 OA
ATOM      3  C   UNL     1      11.214   3.768  23.542  0.00  0.00    +0.147 A 
ATOM      4  C   UNL     1      10.361   4.681  24.115  0.00  0.00    +0.109 A 
ATOM      5  C   UNL     1      10.749   6.037  24.141  0.00  0.00    +0.135 A 
ATOM      6  C   UNL     1      11.994   6.442  23.635  0.00  0.00    +0.091 A 
ATOM      7  C   UNL     1      12.845   5.492  23.090  0.00  0.00    +0.124 A 
ATOM      8  C   UNL     1       9.096   4.153  24.697  0.00  0.00    +0.238 A 
ATOM      9  O   UNL     1       8.296   4.923  25.230  0.00  0.00    -0.283 OA
ATOM     10  C   UNL     1      12.452   4.161  23.024  0.00  0.00    +0.092 A 
ATOM     11  C   UNL     1       8.818   2.661  24.589  0.00  0.00    +0.214 A 
ENDROOT
BRANCH   1  13
ATOM     12  C   UNL     1       9.200   0.269  22.123  0.00  0.00    +0.015 A 
ATOM     13  C   UNL     1       9.578   0.477  23.459  0.00  0.00    +0.025 A 
ATOM     14  C   UNL     1       9.674  -0.684  24.258  0.00  0.00    +0.061 A 
ATOM     15  C   UNL     1       9.349  -1.994  23.765  0.00  0.00    +0.166 A 
ATOM     16  C   UNL     1       8.859  -2.100  22.476  0.00  0.00    +0.159 A 
ATOM     17  C   UNL     1       8.824  -0.990  21.641  0.00  0.00    +0.050 A 
BRANCH  16  18
ATOM     18  O   UNL     1       8.344  -3.271  22.010  0.00  0.00    -0.503 OA
ATOM     19  H   UNL     1       7.800  -3.661  22.713  0.00  0.00    +0.292 HD
ENDBRANCH  16  18
BRANCH  15  20
ATOM     20  O   UNL     1       9.426  -3.034  24.646  0.00  0.00    -0.457 OA
BRANCH  20  21
ATOM     21  C   UNL     1       8.268  -3.752  25.157  0.00  0.00    +0.339 C 
ATOM     22  O   UNL     1       6.978  -3.403  24.592  0.00  0.00    -0.331 OA
ATOM     23  C   UNL     1       5.870  -3.761  25.456  0.00  0.00    +0.179 C 
ATOM     24  C   UNL     1       5.885  -5.239  25.947  0.00  0.00    +0.177 C 
ATOM     25  C   UNL     1       7.286  -5.700  26.377  0.00  0.00    +0.180 C 
ATOM     26  C   UNL     1       8.358  -5.288  25.339  0.00  0.00    +0.214 C 
BRANCH  26  27
ATOM     27  O   UNL     1       9.642  -5.747  25.772  0.00  0.00    -0.383 OA
ATOM     28  H   UNL     1      10.270  -5.011  25.653  0.00  0.00    +0.210 HD
ENDBRANCH  26  27
BRANCH  25  29
ATOM     29  O   UNL     1       7.621  -5.201  27.684  0.00  0.00    -0.386 OA
ATOM     30  H   UNL     1       8.582  -5.213  27.823  0.00  0.00    +0.210 HD
ENDBRANCH  25  29
BRANCH  24  31
ATOM     31  O   UNL     1       5.392  -6.123  24.936  0.00  0.00    -0.386 OA
ATOM     32  H   UNL     1       6.066  -6.187  24.234  0.00  0.00    +0.210 HD
ENDBRANCH  24  31
BRANCH  23  33
ATOM     33  C   UNL     1       4.507  -3.458  24.783  0.00  0.00    +0.190 C 
BRANCH  33  34
ATOM     34  O   UNL     1       3.824  -2.341  25.346  0.00  0.00    -0.392 OA
ATOM     35  H   UNL     1       4.204  -2.154  26.219  0.00  0.00    +0.210 HD
ENDBRANCH  33  34
ENDBRANCH  23  33
ENDBRANCH  20  21
ENDBRANCH  15  20
ENDBRANCH   1  13
BRANCH   7  36
ATOM     36  O   UNL     1      14.079   5.807  22.604  0.00  0.00    -0.507 OA
ATOM     37  H   UNL     1      14.270   5.271  21.816  0.00  0.00    +0.292 HD
ENDBRANCH   7  36
BRANCH   5  38
ATOM     38  O   UNL     1       9.958   7.048  24.633  0.00  0.00    -0.506 OA
ATOM     39  H   UNL     1       9.989   7.798  24.011  0.00  0.00    +0.292 HD
ENDBRANCH   5  38
BRANCH  11  40
ATOM     40  O   UNL     1       7.574   2.165  24.938  0.00  0.00    -0.453 OA
BRANCH  40  41
ATOM     41  C   UNL     1       6.586   1.898  23.922  0.00  0.00    +0.340 C 
ATOM     42  O   UNL     1       5.772   3.061  23.682  0.00  0.00    -0.331 OA
ATOM     43  C   UNL     1       4.736   3.409  24.644  0.00  0.00    +0.179 C 
ATOM     44  C   UNL     1       4.320   2.369  25.723  0.00  0.00    +0.177 C 
ATOM     45  C   UNL     1       5.222   1.144  25.805  0.00  0.00    +0.180 C 
ATOM     46  C   UNL     1       5.650   0.766  24.383  0.00  0.00    +0.214 C 
BRANCH  46  47
ATOM     47  O   UNL     1       6.203  -0.550  24.379  0.00  0.00    -0.383 OA
ATOM     48  H   UNL     1       7.181  -0.493  24.372  0.00  0.00    +0.210 HD
ENDBRANCH  46  47
BRANCH  45  49
ATOM     49  O   UNL     1       4.499   0.075  26.437  0.00  0.00    -0.386 OA
ATOM     50  H   UNL     1       4.607   0.235  27.398  0.00  0.00    +0.210 HD
ENDBRANCH  45  49
BRANCH  44  51
ATOM     51  O   UNL     1       2.980   1.885  25.504  0.00  0.00    -0.386 OA
ATOM     52  H   UNL     1       2.556   1.940  26.390  0.00  0.00    +0.210 HD
ENDBRANCH  44  51
BRANCH  43  53
ATOM     53  C   UNL     1       3.511   3.853  23.813  0.00  0.00    +0.190 C 
BRANCH  53  54
ATOM     54  O   UNL     1       3.172   2.851  22.854  0.00  0.00    -0.392 OA
ATOM     55  H   UNL     1       2.795   2.113  23.372  0.00  0.00    +0.210 HD
ENDBRANCH  53  54
ENDBRANCH  43  53
ENDBRANCH  40  41
ENDBRANCH  11  40
TORSDOF 18
ENDMDL
MODEL 2
REMARK VINA RESULT:      -7.2      1.505      2.414
REMARK  Name = 
REMARK  18 active torsions:
REMARK  status: ('A' for Active; 'I' for Inactive)
REMARK    1  A    between atoms: C_3  and  O_49
REMARK    2  A    between atoms: C_4  and  O_34
REMARK    3  A    between atoms: C_6  and  C_7
REMARK    4  A    between atoms: C_8  and  O_20
REMARK    5  A    between atoms: C_12  and  O_19
REMARK    6  A    between atoms: C_14  and  O_18
REMARK    7  A    between atoms: O_20  and  C_21
REMARK    8  A    between atoms: C_23  and  O_33
REMARK    9  A    between atoms: C_24  and  O_32
REMARK   10  A    between atoms: C_25  and  O_31
REMARK   11  A    between atoms: C_27  and  C_29
REMARK   12  A    between atoms: C_29  and  O_30
REMARK   13  A    between atoms: O_34  and  C_35
REMARK   14  A    between atoms: C_37  and  O_48
REMARK   15  A    between atoms: C_38  and  O_47
REMARK   16  A    between atoms: C_40  and  O_46
REMARK   17  A    between atoms: C_42  and  C_44
REMARK   18  A    between atoms: C_44  and  O_45
REMARK                            x       y       z     vdW  Elec       q    Type
REMARK                         _______ _______ _______ _____ _____    ______ ____
ROOT
ATOM      1  C   UNL     1       9.407   1.572  24.139  0.00  0.00    +0.181 A 
ATOM      2  O   UNL     1      10.682   2.025  23.821  0.00  0.00    -0.451 OA
ATOM      3  C   UNL     1      10.973   3.349  23.717  0.00  0.00    +0.147 A 
ATOM      4  C   UNL     1      10.035   4.336  23.913  0.00  0.00    +0.109 A 
ATOM      5  C   UNL     1      10.429   5.680  23.739  0.00  0.00    +0.135 A 
ATOM      6  C   UNL     1      11.754   6.008  23.417  0.00  0.00    +0.091 A 
ATOM      7  C   UNL     1      12.684   4.990  23.254  0.00  0.00    +0.124 A 
ATOM      8  C   UNL     1       8.673   3.902  24.331  0.00  0.00    +0.238 A 
ATOM      9  O   UNL     1       7.794   4.741  24.528  0.00  0.00    -0.283 OA
ATOM     10  C   UNL     1      12.294   3.664  23.383  0.00  0.00    +0.092 A 
ATOM     11  C   UNL     1       8.402   2.412  24.476  0.00  0.00    +0.214 A 
ENDROOT
BRANCH   1  13
ATOM     12  C   UNL     1       9.458  -0.427  22.676  0.00  0.00    +0.015 A 
ATOM     13  C   UNL     1       9.341   0.066  23.985  0.00  0.00    +0.025 A 
ATOM     14  C   UNL     1       9.063  -0.895  24.982  0.00  0.00    +0.061 A 
ATOM     15  C   UNL     1       8.851  -2.284  24.682  0.00  0.00    +0.166 A 
ATOM     16  C   UNL     1       8.853  -2.670  23.353  0.00  0.00    +0.159 A 
ATOM     17  C   UNL     1       9.197  -1.766  22.357  0.00  0.00    +0.050 A 
BRANCH  16  18
ATOM     18  O   UNL     1       8.463  -3.920  22.980  0.00  0.00    -0.503 OA
ATOM     19  H   UNL     1       8.485  -4.489  23.766  0.00  0.00    +0.292 HD
ENDBRANCH  16  18
BRANCH  15  20
ATOM     20  O   UNL     1       8.533  -3.111  25.722  0.00  0.00    -0.457 OA
BRANCH  20  21
ATOM     21  C   UNL     1       7.296  -3.871  25.805  0.00  0.00    +0.339 C 
ATOM     22  O   UNL     1       6.350  -3.706  24.717  0.00  0.00    -0.331 OA
ATOM     23  C   UNL     1       4.995  -4.068  25.089  0.00  0.00    +0.179 C 
ATOM     24  C   UNL     1       4.858  -5.474  25.743  0.00  0.00    +0.177 C 
ATOM     25  C   UNL     1       5.965  -5.754  26.770  0.00  0.00    +0.180 C 
ATOM     26  C   UNL     1       7.358  -5.363  26.219  0.00  0.00    +0.214 C 
BRANCH  26  27
ATOM     27  O   UNL     1       8.358  -5.651  27.201  0.00  0.00    -0.383 OA
ATOM     28  H   UNL     1       8.218  -6.568  27.499  0.00  0.00    +0.210 HD
ENDBRANCH  26  27
BRANCH  25  29
ATOM     29  O   UNL     1       5.701  -5.086  28.016  0.00  0.00    -0.386 OA
ATOM     30  H   UNL     1       5.015  -5.553  28.521  0.00  0.00    +0.210 HD
ENDBRANCH  25  29
BRANCH  24  31
ATOM     31  O   UNL     1       4.869  -6.506  24.752  0.00  0.00    -0.386 OA
ATOM     32  H   UNL     1       5.451  -6.222  24.024  0.00  0.00    +0.210 HD
ENDBRANCH  24  31
BRANCH  23  33
ATOM     33  C   UNL     1       4.030  -3.967  23.880  0.00  0.00    +0.190 C 
BRANCH  33  34
ATOM     34  O   UNL     1       4.540  -4.557  22.687  0.00  0.00    -0.392 OA
ATOM     35  H   UNL     1       3.807  -4.668  22.060  0.00  0.00    +0.210 HD
ENDBRANCH  33  34
ENDBRANCH  23  33
ENDBRANCH  20  21
ENDBRANCH  15  20
ENDBRANCH   1  13
BRANCH   7  36
ATOM     36  O   UNL     1      13.994   5.235  22.965  0.00  0.00    -0.507 OA
ATOM     37  H   UNL     1      14.058   5.935  22.295  0.00  0.00    +0.292 HD
ENDBRANCH   7  36
BRANCH   5  38
ATOM     38  O   UNL     1       9.569   6.747  23.850  0.00  0.00    -0.506 OA
ATOM     39  H   UNL     1       8.874   6.519  24.495  0.00  0.00    +0.292 HD
ENDBRANCH   5  38
BRANCH  11  40
ATOM     40  O   UNL     1       7.107   1.962  24.667  0.00  0.00    -0.453 OA
BRANCH  40  41
ATOM     41  C   UNL     1       6.342   2.407  25.805  0.00  0.00    +0.340 C 
ATOM     42  O   UNL     1       7.087   2.229  27.024  0.00  0.00    -0.331 OA
ATOM     43  C   UNL     1       7.209   0.892  27.588  0.00  0.00    +0.179 C 
ATOM     44  C   UNL     1       6.290  -0.244  27.057  0.00  0.00    +0.177 C 
ATOM     45  C   UNL     1       5.492   0.116  25.811  0.00  0.00    +0.180 C 
ATOM     46  C   UNL     1       5.051   1.578  25.927  0.00  0.00    +0.214 C 
BRANCH  46  47
ATOM     47  O   UNL     1       4.031   1.854  24.966  0.00  0.00    -0.383 OA
ATOM     48  H   UNL     1       3.173   1.514  25.295  0.00  0.00    +0.210 HD
ENDBRANCH  46  47
BRANCH  45  49
ATOM     49  O   UNL     1       4.362  -0.767  25.710  0.00  0.00    -0.386 OA
ATOM     50  H   UNL     1       4.333  -1.233  26.572  0.00  0.00    +0.210 HD
ENDBRANCH  45  49
BRANCH  44  51
ATOM     51  O   UNL     1       5.337  -0.665  28.054  0.00  0.00    -0.386 OA
ATOM     52  H   UNL     1       4.470  -0.620  27.592  0.00  0.00    +0.210 HD
ENDBRANCH  44  51
BRANCH  43  53
ATOM     53  C   UNL     1       7.047   1.056  29.117  0.00  0.00    +0.190 C 
BRANCH  53  54
ATOM     54  O   UNL     1       8.324   1.040  29.756  0.00  0.00    -0.392 OA
ATOM     55  H   UNL     1       8.957   1.350  29.079  0.00  0.00    +0.210 HD
ENDBRANCH  53  54
ENDBRANCH  43  53
ENDBRANCH  40  41
ENDBRANCH  11  40
TORSDOF 18
ENDMDL
MODEL 3
REMARK VINA RESULT:      -7.1      2.166      5.185
REMARK  Name = 
REMARK  18 active torsions:
REMARK  status: ('A' for Active; 'I' for Inactive)
REMARK    1  A    between atoms: C_3  and  O_49
REMARK    2  A    between atoms: C_4  and  O_34
REMARK    3  A    between atoms: C_6  and  C_7
REMARK    4  A    between atoms: C_8  and  O_20
REMARK    5  A    between atoms: C_12  and  O_19
REMARK    6  A    between atoms: C_14  and  O_18
REMARK    7  A    between atoms: O_20  and  C_21
REMARK    8  A    between atoms: C_23  and  O_33
REMARK    9  A    between atoms: C_24  and  O_32
REMARK   10  A    between atoms: C_25  and  O_31
REMARK   11  A    between atoms: C_27  and  C_29
REMARK   12  A    between atoms: C_29  and  O_30
REMARK   13  A    between atoms: O_34  and  C_35
REMARK   14  A    between atoms: C_37  and  O_48
REMARK   15  A    between atoms: C_38  and  O_47
REMARK   16  A    between atoms: C_40  and  O_46
REMARK   17  A    between atoms: C_42  and  C_44
REMARK   18  A    between atoms: C_44  and  O_45
REMARK                            x       y       z     vdW  Elec       q    Type
REMARK                         _______ _______ _______ _____ _____    ______ ____
ROOT
ATOM      1  C   UNL     1       7.320   1.224  25.153  0.00  0.00    +0.181 A 
ATOM      2  O   UNL     1       7.198   2.588  25.394  0.00  0.00    -0.451 OA
ATOM      3  C   UNL     1       8.113   3.485  24.938  0.00  0.00    +0.147 A 
ATOM      4  C   UNL     1       9.222   3.116  24.213  0.00  0.00    +0.109 A 
ATOM      5  C   UNL     1      10.133   4.121  23.824  0.00  0.00    +0.135 A 
ATOM      6  C   UNL     1       9.896   5.469  24.130  0.00  0.00    +0.091 A 
ATOM      7  C   UNL     1       8.753   5.812  24.838  0.00  0.00    +0.124 A 
ATOM      8  C   UNL     1       9.355   1.674  23.865  0.00  0.00    +0.238 A 
ATOM      9  O   UNL     1      10.322   1.287  23.211  0.00  0.00    -0.283 OA
ATOM     10  C   UNL     1       7.872   4.825  25.260  0.00  0.00    +0.092 A 
ATOM     11  C   UNL     1       8.286   0.710  24.359  0.00  0.00    +0.214 A 
ENDROOT
BRANCH   1  13
ATOM     12  C   UNL     1       6.187   0.777  27.311  0.00  0.00    +0.015 A 
ATOM     13  C   UNL     1       6.274   0.466  25.945  0.00  0.00    +0.025 A 
ATOM     14  C   UNL     1       5.453  -0.596  25.504  0.00  0.00    +0.061 A 
ATOM     15  C   UNL     1       4.624  -1.358  26.396  0.00  0.00    +0.166 A 
ATOM     16  C   UNL     1       4.693  -1.075  27.748  0.00  0.00    +0.159 A 
ATOM     17  C   UNL     1       5.430   0.009  28.205  0.00  0.00    +0.050 A 
BRANCH  16  18
ATOM     18  O   UNL     1       4.094  -1.880  28.669  0.00  0.00    -0.503 OA
ATOM     19  H   UNL     1       4.741  -2.548  28.950  0.00  0.00    +0.292 HD
ENDBRANCH  16  18
BRANCH  15  20
ATOM     20  O   UNL     1       3.917  -2.398  25.863  0.00  0.00    -0.457 OA
BRANCH  20  21
ATOM     21  C   UNL     1       4.255  -3.798  26.068  0.00  0.00    +0.339 C 
ATOM     22  O   UNL     1       4.792  -4.160  27.366  0.00  0.00    -0.331 OA
ATOM     23  C   UNL     1       5.548  -5.397  27.337  0.00  0.00    +0.179 C 
ATOM     24  C   UNL     1       4.799  -6.597  26.687  0.00  0.00    +0.177 C 
ATOM     25  C   UNL     1       4.058  -6.199  25.402  0.00  0.00    +0.180 C 
ATOM     26  C   UNL     1       3.259  -4.888  25.595  0.00  0.00    +0.214 C 
BRANCH  26  27
ATOM     27  O   UNL     1       2.576  -4.561  24.381  0.00  0.00    -0.383 OA
ATOM     28  H   UNL     1       3.242  -4.533  23.670  0.00  0.00    +0.210 HD
ENDBRANCH  26  27
BRANCH  25  29
ATOM     29  O   UNL     1       4.964  -6.088  24.290  0.00  0.00    -0.386 OA
ATOM     30  H   UNL     1       5.875  -6.286  24.565  0.00  0.00    +0.210 HD
ENDBRANCH  25  29
BRANCH  24  31
ATOM     31  O   UNL     1       3.867  -7.180  27.602  0.00  0.00    -0.386 OA
ATOM     32  H   UNL     1       3.460  -6.461  28.121  0.00  0.00    +0.210 HD
ENDBRANCH  24  31
BRANCH  23  33
ATOM     33  C   UNL     1       6.029  -5.800  28.754  0.00  0.00    +0.190 C 
BRANCH  33  34
ATOM     34  O   UNL     1       6.379  -7.177  28.874  0.00  0.00    -0.392 OA
ATOM     35  H   UNL     1       6.171  -7.471  29.775  0.00  0.00    +0.210 HD
ENDBRANCH  33  34
ENDBRANCH  23  33
ENDBRANCH  20  21
ENDBRANCH  15  20
ENDBRANCH   1  13
BRANCH   7  36
ATOM     36  O   UNL     1       8.444   7.104  25.149  0.00  0.00    -0.507 OA
ATOM     37  H   UNL     1       7.638   7.128  25.692  0.00  0.00    +0.292 HD
ENDBRANCH   7  36
BRANCH   5  38
ATOM     38  O   UNL     1      11.304   3.868  23.149  0.00  0.00    -0.506 OA
ATOM     39  H   UNL     1      11.210   4.191  22.233  0.00  0.00    +0.292 HD
ENDBRANCH   5  38
BRANCH  11  40
ATOM     40  O   UNL     1       8.475  -0.654  24.228  0.00  0.00    -0.453 OA
BRANCH  40  41
ATOM     41  C   UNL     1       8.491  -1.264  22.921  0.00  0.00    +0.340 C 
ATOM     42  O   UNL     1       7.159  -1.615  22.504  0.00  0.00    -0.331 OA
ATOM     43  C   UNL     1       6.524  -2.791  23.081  0.00  0.00    +0.179 C 
ATOM     44  C   UNL     1       7.389  -3.808  23.878  0.00  0.00    +0.177 C 
ATOM     45  C   UNL     1       8.808  -3.340  24.173  0.00  0.00    +0.180 C 
ATOM     46  C   UNL     1       9.321  -2.561  22.957  0.00  0.00    +0.214 C 
BRANCH  46  47
ATOM     47  O   UNL     1      10.737  -2.402  23.046  0.00  0.00    -0.383 OA
ATOM     48  H   UNL     1      11.160  -3.283  23.105  0.00  0.00    +0.210 HD
ENDBRANCH  46  47
BRANCH  45  49
ATOM     49  O   UNL     1       9.630  -4.487  24.445  0.00  0.00    -0.386 OA
ATOM     50  H   UNL     1      10.517  -4.245  24.104  0.00  0.00    +0.210 HD
ENDBRANCH  45  49
BRANCH  44  51
ATOM     51  O   UNL     1       7.502  -5.067  23.184  0.00  0.00    -0.386 OA
ATOM     52  H   UNL     1       7.351  -5.742  23.884  0.00  0.00    +0.210 HD
ENDBRANCH  44  51
BRANCH  43  53
ATOM     53  C   UNL     1       5.788  -3.495  21.918  0.00  0.00    +0.190 C 
BRANCH  53  54
ATOM     54  O   UNL     1       4.630  -4.176  22.402  0.00  0.00    -0.392 OA
ATOM     55  H   UNL     1       4.954  -5.037  22.731  0.00  0.00    +0.210 HD
ENDBRANCH  53  54
ENDBRANCH  43  53
ENDBRANCH  40  41
ENDBRANCH  11  40
TORSDOF 18
ENDMDL
MODEL 4
REMARK VINA RESULT:      -7.1      2.340      9.146
REMARK  Name = 
REMARK  18 active torsions:
REMARK  status: ('A' for Active; 'I' for Inactive)
REMARK    1  A    between atoms: C_3  and  O_49
REMARK    2  A    between atoms: C_4  and  O_34
REMARK    3  A    between atoms: C_6  and  C_7
REMARK    4  A    between atoms: C_8  and  O_20
REMARK    5  A    between atoms: C_12  and  O_19
REMARK    6  A    between atoms: C_14  and  O_18
REMARK    7  A    between atoms: O_20  and  C_21
REMARK    8  A    between atoms: C_23  and  O_33
REMARK    9  A    between atoms: C_24  and  O_32
REMARK   10  A    between atoms: C_25  and  O_31
REMARK   11  A    between atoms: C_27  and  C_29
REMARK   12  A    between atoms: C_29  and  O_30
REMARK   13  A    between atoms: O_34  and  C_35
REMARK   14  A    between atoms: C_37  and  O_48
REMARK   15  A    between atoms: C_38  and  O_47
REMARK   16  A    between atoms: C_40  and  O_46
REMARK   17  A    between atoms: C_42  and  C_44
REMARK   18  A    between atoms: C_44  and  O_45
REMARK                            x       y       z     vdW  Elec       q    Type
REMARK                         _______ _______ _______ _____ _____    ______ ____
ROOT
ATOM      1  C   UNL     1       6.290  -2.307  24.832  0.00  0.00    +0.181 A 
ATOM      2  O   UNL     1       5.580  -3.261  25.551  0.00  0.00    -0.451 OA
ATOM      3  C   UNL     1       5.338  -4.504  25.056  0.00  0.00    +0.147 A 
ATOM      4  C   UNL     1       5.771  -4.911  23.816  0.00  0.00    +0.109 A 
ATOM      5  C   UNL     1       5.430  -6.208  23.378  0.00  0.00    +0.135 A 
ATOM      6  C   UNL     1       4.704  -7.081  24.202  0.00  0.00    +0.091 A 
ATOM      7  C   UNL     1       4.307  -6.651  25.460  0.00  0.00    +0.124 A 
ATOM      8  C   UNL     1       6.603  -3.949  23.040  0.00  0.00    +0.238 A 
ATOM      9  O   UNL     1       7.025  -4.260  21.927  0.00  0.00    -0.283 OA
ATOM     10  C   UNL     1       4.603  -5.362  25.881  0.00  0.00    +0.092 A 
ATOM     11  C   UNL     1       6.884  -2.583  23.648  0.00  0.00    +0.214 A 
ENDROOT
BRANCH   1  13
ATOM     12  C   UNL     1       6.688  -0.953  26.869  0.00  0.00    +0.015 A 
ATOM     13  C   UNL     1       6.225  -0.971  25.544  0.00  0.00    +0.025 A 
ATOM     14  C   UNL     1       5.654   0.233  25.077  0.00  0.00    +0.061 A 
ATOM     15  C   UNL     1       5.492   1.391  25.912  0.00  0.00    +0.166 A 
ATOM     16  C   UNL     1       5.853   1.286  27.244  0.00  0.00    +0.159 A 
ATOM     17  C   UNL     1       6.487   0.144  27.715  0.00  0.00    +0.050 A 
BRANCH  16  18
ATOM     18  O   UNL     1       5.546   2.266  28.138  0.00  0.00    -0.503 OA
ATOM     19  H   UNL     1       4.580   2.295  28.233  0.00  0.00    +0.292 HD
ENDBRANCH  16  18
BRANCH  15  20
ATOM     20  O   UNL     1       4.874   2.480  25.367  0.00  0.00    -0.457 OA
BRANCH  20  21
ATOM     21  C   UNL     1       5.545   3.454  24.519  0.00  0.00    +0.339 C 
ATOM     22  O   UNL     1       6.829   3.950  24.979  0.00  0.00    -0.331 OA
ATOM     23  C   UNL     1       7.184   5.225  24.388  0.00  0.00    +0.179 C 
ATOM     24  C   UNL     1       7.092   5.266  22.835  0.00  0.00    +0.177 C 
ATOM     25  C   UNL     1       5.827   4.576  22.304  0.00  0.00    +0.180 C 
ATOM     26  C   UNL     1       5.600   3.207  22.991  0.00  0.00    +0.214 C 
BRANCH  26  27
ATOM     27  O   UNL     1       4.421   2.596  22.459  0.00  0.00    -0.383 OA
ATOM     28  H   UNL     1       3.764   3.302  22.319  0.00  0.00    +0.210 HD
ENDBRANCH  26  27
BRANCH  25  29
ATOM     29  O   UNL     1       4.671   5.420  22.452  0.00  0.00    -0.386 OA
ATOM     30  H   UNL     1       3.853   4.916  22.308  0.00  0.00    +0.210 HD
ENDBRANCH  25  29
BRANCH  24  31
ATOM     31  O   UNL     1       8.241   4.660  22.234  0.00  0.00    -0.386 OA
ATOM     32  H   UNL     1       8.833   5.371  21.927  0.00  0.00    +0.210 HD
ENDBRANCH  24  31
BRANCH  23  33
ATOM     33  C   UNL     1       8.598   5.680  24.830  0.00  0.00    +0.190 C 
BRANCH  33  34
ATOM     34  O   UNL     1       9.621   4.725  24.559  0.00  0.00    -0.392 OA
ATOM     35  H   UNL     1       9.368   3.879  24.960  0.00  0.00    +0.210 HD
ENDBRANCH  33  34
ENDBRANCH  23  33
ENDBRANCH  20  21
ENDBRANCH  15  20
ENDBRANCH   1  13
BRANCH   7  36
ATOM     36  O   UNL     1       3.622  -7.453  26.325  0.00  0.00    -0.507 OA
ATOM     37  H   UNL     1       2.957  -6.929  26.803  0.00  0.00    +0.292 HD
ENDBRANCH   7  36
BRANCH   5  38
ATOM     38  O   UNL     1       5.755  -6.705  22.138  0.00  0.00    -0.506 OA
ATOM     39  H   UNL     1       6.088  -7.615  22.245  0.00  0.00    +0.292 HD
ENDBRANCH   5  38
BRANCH  11  40
ATOM     40  O   UNL     1       7.480  -1.597  22.883  0.00  0.00    -0.453 OA
BRANCH  40  41
ATOM     41  C   UNL     1       8.916  -1.464  22.855  0.00  0.00    +0.340 C 
ATOM     42  O   UNL     1       9.416  -1.055  24.141  0.00  0.00    -0.331 OA
ATOM     43  C   UNL     1       9.263   0.334  24.550  0.00  0.00    +0.179 C 
ATOM     44  C   UNL     1       8.861   1.399  23.490  0.00  0.00    +0.177 C 
ATOM     45  C   UNL     1       8.437   0.825  22.144  0.00  0.00    +0.180 C 
ATOM     46  C   UNL     1       9.324  -0.385  21.836  0.00  0.00    +0.214 C 
BRANCH  46  47
ATOM     47  O   UNL     1       9.198  -0.739  20.458  0.00  0.00    -0.383 OA
ATOM     48  H   UNL     1       9.358  -1.699  20.353  0.00  0.00    +0.210 HD
ENDBRANCH  46  47
BRANCH  45  49
ATOM     49  O   UNL     1       8.573   1.845  21.140  0.00  0.00    -0.386 OA
ATOM     50  H   UNL     1       7.718   2.325  21.155  0.00  0.00    +0.210 HD
ENDBRANCH  45  49
BRANCH  44  51
ATOM     51  O   UNL     1       9.938   2.321  23.229  0.00  0.00    -0.386 OA
ATOM     52  H   UNL     1       9.605   3.182  23.569  0.00  0.00    +0.210 HD
ENDBRANCH  44  51
BRANCH  43  53
ATOM     53  C   UNL     1      10.589   0.726  25.242  0.00  0.00    +0.190 C 
BRANCH  53  54
ATOM     54  O   UNL     1      11.684   0.574  24.337  0.00  0.00    -0.392 OA
ATOM     55  H   UNL     1      11.537  -0.284  23.894  0.00  0.00    +0.210 HD
ENDBRANCH  53  54
ENDBRANCH  43  53
ENDBRANCH  40  41
ENDBRANCH  11  40
TORSDOF 18
ENDMDL
MODEL 5
REMARK VINA RESULT:      -7.0      1.306      1.940
REMARK  Name = 
REMARK  18 active torsions:
REMARK  status: ('A' for Active; 'I' for Inactive)
REMARK    1  A    between atoms: C_3  and  O_49
REMARK    2  A    between atoms: C_4  and  O_34
REMARK    3  A    between atoms: C_6  and  C_7
REMARK    4  A    between atoms: C_8  and  O_20
REMARK    5  A    between atoms: C_12  and  O_19
REMARK    6  A    between atoms: C_14  and  O_18
REMARK    7  A    between atoms: O_20  and  C_21
REMARK    8  A    between atoms: C_23  and  O_33
REMARK    9  A    between atoms: C_24  and  O_32
REMARK   10  A    between atoms: C_25  and  O_31
REMARK   11  A    between atoms: C_27  and  C_29
REMARK   12  A    between atoms: C_29  and  O_30
REMARK   13  A    between atoms: O_34  and  C_35
REMARK   14  A    between atoms: C_37  and  O_48
REMARK   15  A    between atoms: C_38  and  O_47
REMARK   16  A    between atoms: C_40  and  O_46
REMARK   17  A    between atoms: C_42  and  C_44
REMARK   18  A    between atoms: C_44  and  O_45
REMARK                            x       y       z     vdW  Elec       q    Type
REMARK                         _______ _______ _______ _____ _____    ______ ____
ROOT
ATOM      1  C   UNL     1       9.581   1.816  24.051  0.00  0.00    +0.181 A 
ATOM      2  O   UNL     1      10.780   2.326  23.566  0.00  0.00    -0.451 OA
ATOM      3  C   UNL     1      11.073   3.652  23.620  0.00  0.00    +0.147 A 
ATOM      4  C   UNL     1      10.214   4.586  24.150  0.00  0.00    +0.109 A 
ATOM      5  C   UNL     1      10.595   5.943  24.119  0.00  0.00    +0.135 A 
ATOM      6  C   UNL     1      11.839   6.333  23.600  0.00  0.00    +0.091 A 
ATOM      7  C   UNL     1      12.697   5.363  23.099  0.00  0.00    +0.124 A 
ATOM      8  C   UNL     1       8.949   4.077  24.751  0.00  0.00    +0.238 A 
ATOM      9  O   UNL     1       8.144   4.864  25.247  0.00  0.00    -0.283 OA
ATOM     10  C   UNL     1      12.311   4.030  23.089  0.00  0.00    +0.092 A 
ATOM     11  C   UNL     1       8.679   2.580  24.707  0.00  0.00    +0.214 A 
ENDROOT
BRANCH   1  13
ATOM     12  C   UNL     1       9.236   0.081  22.315  0.00  0.00    +0.015 A 
ATOM     13  C   UNL     1       9.454   0.353  23.675  0.00  0.00    +0.025 A 
ATOM     14  C   UNL     1       9.415  -0.764  24.539  0.00  0.00    +0.061 A 
ATOM     15  C   UNL     1       9.112  -2.090  24.079  0.00  0.00    +0.166 A 
ATOM     16  C   UNL     1       8.779  -2.256  22.747  0.00  0.00    +0.159 A 
ATOM     17  C   UNL     1       8.881  -1.194  21.857  0.00  0.00    +0.050 A 
BRANCH  16  18
ATOM     18  O   UNL     1       8.287  -3.438  22.283  0.00  0.00    -0.503 OA
ATOM     19  H   UNL     1       7.400  -3.275  21.924  0.00  0.00    +0.292 HD
ENDBRANCH  16  18
BRANCH  15  20
ATOM     20  O   UNL     1       9.047  -3.082  25.017  0.00  0.00    -0.457 OA
BRANCH  20  21
ATOM     21  C   UNL     1       7.808  -3.710  25.450  0.00  0.00    +0.339 C 
ATOM     22  O   UNL     1       6.609  -3.376  24.706  0.00  0.00    -0.331 OA
ATOM     23  C   UNL     1       5.393  -3.614  25.460  0.00  0.00    +0.179 C 
ATOM     24  C   UNL     1       5.288  -5.036  26.084  0.00  0.00    +0.177 C 
ATOM     25  C   UNL     1       6.609  -5.498  26.718  0.00  0.00    +0.180 C 
ATOM     26  C   UNL     1       7.810  -5.223  25.782  0.00  0.00    +0.214 C 
BRANCH  26  27
ATOM     27  O   UNL     1       9.014  -5.678  26.405  0.00  0.00    -0.383 OA
ATOM     28  H   UNL     1       9.005  -6.653  26.381  0.00  0.00    +0.210 HD
ENDBRANCH  26  27
BRANCH  25  29
ATOM     29  O   UNL     1       6.811  -4.886  28.004  0.00  0.00    -0.386 OA
ATOM     30  H   UNL     1       5.963  -4.620  28.398  0.00  0.00    +0.210 HD
ENDBRANCH  25  29
BRANCH  24  31
ATOM     31  O   UNL     1       4.878  -5.998  25.108  0.00  0.00    -0.386 OA
ATOM     32  H   UNL     1       5.640  -6.189  24.530  0.00  0.00    +0.210 HD
ENDBRANCH  24  31
BRANCH  23  33
ATOM     33  C   UNL     1       4.131  -3.334  24.605  0.00  0.00    +0.190 C 
BRANCH  33  34
ATOM     34  O   UNL     1       2.906  -3.525  25.308  0.00  0.00    -0.392 OA
ATOM     35  H   UNL     1       2.176  -3.492  24.670  0.00  0.00    +0.210 HD
ENDBRANCH  33  34
ENDBRANCH  23  33
ENDBRANCH  20  21
ENDBRANCH  15  20
ENDBRANCH   1  13
BRANCH   7  36
ATOM     36  O   UNL     1      13.931   5.664  22.603  0.00  0.00    -0.507 OA
ATOM     37  H   UNL     1      14.379   6.292  23.194  0.00  0.00    +0.292 HD
ENDBRANCH   7  36
BRANCH   5  38
ATOM     38  O   UNL     1       9.797   6.970  24.564  0.00  0.00    -0.506 OA
ATOM     39  H   UNL     1       9.592   7.554  23.810  0.00  0.00    +0.292 HD
ENDBRANCH   5  38
BRANCH  11  40
ATOM     40  O   UNL     1       7.437   2.093  25.073  0.00  0.00    -0.453 OA
BRANCH  40  41
ATOM     41  C   UNL     1       7.250   1.470  26.360  0.00  0.00    +0.340 C 
ATOM     42  O   UNL     1       6.365   0.339  26.258  0.00  0.00    -0.331 OA
ATOM     43  C   UNL     1       4.933   0.571  26.125  0.00  0.00    +0.179 C 
ATOM     44  C   UNL     1       4.364   1.990  26.412  0.00  0.00    +0.177 C 
ATOM     45  C   UNL     1       5.419   3.074  26.587  0.00  0.00    +0.180 C 
ATOM     46  C   UNL     1       6.609   2.471  27.340  0.00  0.00    +0.214 C 
BRANCH  46  47
ATOM     47  O   UNL     1       7.457   3.514  27.820  0.00  0.00    -0.383 OA
ATOM     48  H   UNL     1       7.271   4.339  27.325  0.00  0.00    +0.210 HD
ENDBRANCH  46  47
BRANCH  45  49
ATOM     49  O   UNL     1       4.842   4.173  27.312  0.00  0.00    -0.386 OA
ATOM     50  H   UNL     1       4.453   4.750  26.622  0.00  0.00    +0.210 HD
ENDBRANCH  45  49
BRANCH  44  51
ATOM     51  O   UNL     1       3.551   2.004  27.603  0.00  0.00    -0.386 OA
ATOM     52  H   UNL     1       4.080   2.524  28.249  0.00  0.00    +0.210 HD
ENDBRANCH  44  51
BRANCH  43  53
ATOM     53  C   UNL     1       4.244  -0.485  27.019  0.00  0.00    +0.190 C 
BRANCH  53  54
ATOM     54  O   UNL     1       2.916  -0.736  26.556  0.00  0.00    -0.392 OA
ATOM     55  H   UNL     1       2.963  -1.593  26.089  0.00  0.00    +0.210 HD
ENDBRANCH  53  54
ENDBRANCH  43  53
ENDBRANCH  40  41
ENDBRANCH  11  40
TORSDOF 18
ENDMDL
MODEL 6
REMARK VINA RESULT:      -6.8      1.163      1.823
REMARK  Name = 
REMARK  18 active torsions:
REMARK  status: ('A' for Active; 'I' for Inactive)
REMARK    1  A    between atoms: C_3  and  O_49
REMARK    2  A    between atoms: C_4  and  O_34
REMARK    3  A    between atoms: C_6  and  C_7
REMARK    4  A    between atoms: C_8  and  O_20
REMARK    5  A    between atoms: C_12  and  O_19
REMARK    6  A    between atoms: C_14  and  O_18
REMARK    7  A    between atoms: O_20  and  C_21
REMARK    8  A    between atoms: C_23  and  O_33
REMARK    9  A    between atoms: C_24  and  O_32
REMARK   10  A    between atoms: C_25  and  O_31
REMARK   11  A    between atoms: C_27  and  C_29
REMARK   12  A    between atoms: C_29  and  O_30
REMARK   13  A    between atoms: O_34  and  C_35
REMARK   14  A    between atoms: C_37  and  O_48
REMARK   15  A    between atoms: C_38  and  O_47
REMARK   16  A    between atoms: C_40  and  O_46
REMARK   17  A    between atoms: C_42  and  C_44
REMARK   18  A    between atoms: C_44  and  O_45
REMARK                            x       y       z     vdW  Elec       q    Type
REMARK                         _______ _______ _______ _____ _____    ______ ____
ROOT
ATOM      1  C   UNL     1       9.471   1.931  24.098  0.00  0.00    +0.181 A 
ATOM      2  O   UNL     1      10.702   2.374  23.629  0.00  0.00    -0.451 OA
ATOM      3  C   UNL     1      11.056   3.687  23.661  0.00  0.00    +0.147 A 
ATOM      4  C   UNL     1      10.231   4.670  24.153  0.00  0.00    +0.109 A 
ATOM      5  C   UNL     1      10.676   6.008  24.101  0.00  0.00    +0.135 A 
ATOM      6  C   UNL     1      11.948   6.327  23.600  0.00  0.00    +0.091 A 
ATOM      7  C   UNL     1      12.769   5.309  23.138  0.00  0.00    +0.124 A 
ATOM      8  C   UNL     1       8.932   4.235  24.737  0.00  0.00    +0.238 A 
ATOM      9  O   UNL     1       8.155   5.070  25.200  0.00  0.00    -0.283 OA
ATOM     10  C   UNL     1      12.321   3.994  23.148  0.00  0.00    +0.092 A 
ATOM     11  C   UNL     1       8.593   2.751  24.719  0.00  0.00    +0.214 A 
ENDROOT
BRANCH   1  13
ATOM     12  C   UNL     1       9.398   0.136  22.392  0.00  0.00    +0.015 A 
ATOM     13  C   UNL     1       9.283   0.469  23.751  0.00  0.00    +0.025 A 
ATOM     14  C   UNL     1       8.895  -0.583  24.610  0.00  0.00    +0.061 A 
ATOM     15  C   UNL     1       8.575  -1.899  24.130  0.00  0.00    +0.166 A 
ATOM     16  C   UNL     1       8.585  -2.112  22.764  0.00  0.00    +0.159 A 
ATOM     17  C   UNL     1       9.035  -1.123  21.899  0.00  0.00    +0.050 A 
BRANCH  16  18
ATOM     18  O   UNL     1       8.102  -3.266  22.225  0.00  0.00    -0.503 OA
ATOM     19  H   UNL     1       7.673  -3.772  22.934  0.00  0.00    +0.292 HD
ENDBRANCH  16  18
BRANCH  15  20
ATOM     20  O   UNL     1       8.157  -2.819  25.049  0.00  0.00    -0.457 OA
BRANCH  20  21
ATOM     21  C   UNL     1       6.810  -3.369  25.092  0.00  0.00    +0.339 C 
ATOM     22  O   UNL     1       6.629  -4.704  24.552  0.00  0.00    -0.331 OA
ATOM     23  C   UNL     1       5.256  -4.977  24.172  0.00  0.00    +0.179 C 
ATOM     24  C   UNL     1       4.207  -4.674  25.282  0.00  0.00    +0.177 C 
ATOM     25  C   UNL     1       4.484  -3.347  26.005  0.00  0.00    +0.180 C 
ATOM     26  C   UNL     1       5.977  -3.216  26.390  0.00  0.00    +0.214 C 
BRANCH  26  27
ATOM     27  O   UNL     1       6.188  -1.975  27.070  0.00  0.00    -0.383 OA
ATOM     28  H   UNL     1       5.318  -1.660  27.378  0.00  0.00    +0.210 HD
ENDBRANCH  26  27
BRANCH  25  29
ATOM     29  O   UNL     1       4.058  -2.223  25.215  0.00  0.00    -0.386 OA
ATOM     30  H   UNL     1       3.092  -2.219  25.112  0.00  0.00    +0.210 HD
ENDBRANCH  25  29
BRANCH  24  31
ATOM     31  O   UNL     1       4.157  -5.729  26.246  0.00  0.00    -0.386 OA
ATOM     32  H   UNL     1       4.884  -5.595  26.881  0.00  0.00    +0.210 HD
ENDBRANCH  24  31
BRANCH  23  33
ATOM     33  C   UNL     1       5.082  -6.438  23.686  0.00  0.00    +0.190 C 
BRANCH  33  34
ATOM     34  O   UNL     1       5.779  -6.729  22.478  0.00  0.00    -0.392 OA
ATOM     35  H   UNL     1       6.167  -7.616  22.551  0.00  0.00    +0.210 HD
ENDBRANCH  33  34
ENDBRANCH  23  33
ENDBRANCH  20  21
ENDBRANCH  15  20
ENDBRANCH   1  13
BRANCH   7  36
ATOM     36  O   UNL     1      14.026   5.541  22.663  0.00  0.00    -0.507 OA
ATOM     37  H   UNL     1      13.974   5.983  21.799  0.00  0.00    +0.292 HD
ENDBRANCH   7  36
BRANCH   5  38
ATOM     38  O   UNL     1       9.918   7.081  24.507  0.00  0.00    -0.506 OA
ATOM     39  H   UNL     1       9.259   6.768  25.153  0.00  0.00    +0.292 HD
ENDBRANCH   5  38
BRANCH  11  40
ATOM     40  O   UNL     1       7.322   2.331  25.069  0.00  0.00    -0.453 OA
BRANCH  40  41
ATOM     41  C   UNL     1       6.261   2.332  24.093  0.00  0.00    +0.340 C 
ATOM     42  O   UNL     1       5.532   3.573  24.131  0.00  0.00    -0.331 OA
ATOM     43  C   UNL     1       4.583   3.803  25.211  0.00  0.00    +0.179 C 
ATOM     44  C   UNL     1       4.144   2.608  26.104  0.00  0.00    +0.177 C 
ATOM     45  C   UNL     1       4.946   1.330  25.894  0.00  0.00    +0.180 C 
ATOM     46  C   UNL     1       5.263   1.201  24.400  0.00  0.00    +0.214 C 
BRANCH  46  47
ATOM     47  O   UNL     1       5.705  -0.126  24.112  0.00  0.00    -0.383 OA
ATOM     48  H   UNL     1       6.384  -0.097  23.407  0.00  0.00    +0.210 HD
ENDBRANCH  46  47
BRANCH  45  49
ATOM     49  O   UNL     1       4.175   0.212  26.365  0.00  0.00    -0.386 OA
ATOM     50  H   UNL     1       3.398   0.615  26.808  0.00  0.00    +0.210 HD
ENDBRANCH  45  49
BRANCH  44  51
ATOM     51  O   UNL     1       2.759   2.268  25.893  0.00  0.00    -0.386 OA
ATOM     52  H   UNL     1       2.504   1.778  26.707  0.00  0.00    +0.210 HD
ENDBRANCH  44  51
BRANCH  43  53
ATOM     53  C   UNL     1       3.354   4.481  24.564  0.00  0.00    +0.190 C 
BRANCH  53  54
ATOM     54  O   UNL     1       2.906   3.726  23.437  0.00  0.00    -0.392 OA
ATOM     55  H   UNL     1       3.490   3.989  22.700  0.00  0.00    +0.210 HD
ENDBRANCH  53  54
ENDBRANCH  43  53
ENDBRANCH  40  41
ENDBRANCH  11  40
TORSDOF 18
ENDMDL
MODEL 7
REMARK VINA RESULT:      -6.7      2.313      5.517
REMARK  Name = 
REMARK  18 active torsions:
REMARK  status: ('A' for Active; 'I' for Inactive)
REMARK    1  A    between atoms: C_3  and  O_49
REMARK    2  A    between atoms: C_4  and  O_34
REMARK    3  A    between atoms: C_6  and  C_7
REMARK    4  A    between atoms: C_8  and  O_20
REMARK    5  A    between atoms: C_12  and  O_19
REMARK    6  A    between atoms: C_14  and  O_18
REMARK    7  A    between atoms: O_20  and  C_21
REMARK    8  A    between atoms: C_23  and  O_33
REMARK    9  A    between atoms: C_24  and  O_32
REMARK   10  A    between atoms: C_25  and  O_31
REMARK   11  A    between atoms: C_27  and  C_29
REMARK   12  A    between atoms: C_29  and  O_30
REMARK   13  A    between atoms: O_34  and  C_35
REMARK   14  A    between atoms: C_37  and  O_48
REMARK   15  A    between atoms: C_38  and  O_47
REMARK   16  A    between atoms: C_40  and  O_46
REMARK   17  A    between atoms: C_42  and  C_44
REMARK   18  A    between atoms: C_44  and  O_45
REMARK                            x       y       z     vdW  Elec       q    Type
REMARK                         _______ _______ _______ _____ _____    ______ ____
ROOT
ATOM      1  C   UNL     1       6.667   0.286  24.901  0.00  0.00    +0.181 A 
ATOM      2  O   UNL     1       7.013   1.544  25.380  0.00  0.00    -0.451 OA
ATOM      3  C   UNL     1       7.901   2.344  24.732  0.00  0.00    +0.147 A 
ATOM      4  C   UNL     1       8.524   1.973  23.563  0.00  0.00    +0.109 A 
ATOM      5  C   UNL     1       9.462   2.859  22.993  0.00  0.00    +0.135 A 
ATOM      6  C   UNL     1       9.725   4.108  23.576  0.00  0.00    +0.091 A 
ATOM      7  C   UNL     1       9.058   4.465  24.740  0.00  0.00    +0.124 A 
ATOM      8  C   UNL     1       8.128   0.665  22.971  0.00  0.00    +0.238 A 
ATOM      9  O   UNL     1       8.646   0.284  21.921  0.00  0.00    -0.283 OA
ATOM     10  C   UNL     1       8.164   3.581  25.329  0.00  0.00    +0.092 A 
ATOM     11  C   UNL     1       7.099  -0.180  23.707  0.00  0.00    +0.214 A 
ENDROOT
BRANCH   1  13
ATOM     12  C   UNL     1       4.979   0.356  26.713  0.00  0.00    +0.015 A 
ATOM     13  C   UNL     1       5.824  -0.443  25.927  0.00  0.00    +0.025 A 
ATOM     14  C   UNL     1       5.864  -1.813  26.267  0.00  0.00    +0.061 A 
ATOM     15  C   UNL     1       5.141  -2.358  27.382  0.00  0.00    +0.166 A 
ATOM     16  C   UNL     1       4.435  -1.483  28.188  0.00  0.00    +0.159 A 
ATOM     17  C   UNL     1       4.313  -0.144  27.838  0.00  0.00    +0.050 A 
BRANCH  16  18
ATOM     18  O   UNL     1       3.893  -1.890  29.369  0.00  0.00    -0.503 OA
ATOM     19  H   UNL     1       4.078  -2.838  29.473  0.00  0.00    +0.292 HD
ENDBRANCH  16  18
BRANCH  15  20
ATOM     20  O   UNL     1       5.302  -3.688  27.648  0.00  0.00    -0.457 OA
BRANCH  20  21
ATOM     21  C   UNL     1       4.754  -4.752  26.821  0.00  0.00    +0.339 C 
ATOM     22  O   UNL     1       4.363  -4.398  25.470  0.00  0.00    -0.331 OA
ATOM     23  C   UNL     1       3.402  -5.324  24.901  0.00  0.00    +0.179 C 
ATOM     24  C   UNL     1       3.817  -6.822  24.990  0.00  0.00    +0.177 C 
ATOM     25  C   UNL     1       4.414  -7.185  26.358  0.00  0.00    +0.180 C 
ATOM     26  C   UNL     1       5.455  -6.134  26.815  0.00  0.00    +0.214 C 
BRANCH  26  27
ATOM     27  O   UNL     1       5.994  -6.517  28.084  0.00  0.00    -0.383 OA
ATOM     28  H   UNL     1       6.958  -6.381  28.044  0.00  0.00    +0.210 HD
ENDBRANCH  26  27
BRANCH  25  29
ATOM     29  O   UNL     1       3.385  -7.351  27.349  0.00  0.00    -0.386 OA
ATOM     30  H   UNL     1       2.655  -7.890  27.003  0.00  0.00    +0.210 HD
ENDBRANCH  25  29
BRANCH  24  31
ATOM     31  O   UNL     1       4.757  -7.158  23.966  0.00  0.00    -0.386 OA
ATOM     32  H   UNL     1       4.267  -7.275  23.131  0.00  0.00    +0.210 HD
ENDBRANCH  24  31
BRANCH  23  33
ATOM     33  C   UNL     1       3.076  -4.969  23.428  0.00  0.00    +0.190 C 
BRANCH  33  34
ATOM     34  O   UNL     1       2.450  -6.026  22.706  0.00  0.00    -0.392 OA
ATOM     35  H   UNL     1       2.703  -5.954  21.772  0.00  0.00    +0.210 HD
ENDBRANCH  33  34
ENDBRANCH  23  33
ENDBRANCH  20  21
ENDBRANCH  15  20
ENDBRANCH   1  13
BRANCH   7  36
ATOM     36  O   UNL     1       9.243   5.671  25.348  0.00  0.00    -0.507 OA
ATOM     37  H   UNL     1       8.515   6.271  25.117  0.00  0.00    +0.292 HD
ENDBRANCH   7  36
BRANCH   5  38
ATOM     38  O   UNL     1      10.190   2.574  21.861  0.00  0.00    -0.506 OA
ATOM     39  H   UNL     1       9.859   3.130  21.132  0.00  0.00    +0.292 HD
ENDBRANCH   5  38
BRANCH  11  40
ATOM     40  O   UNL     1       6.854  -1.478  23.298  0.00  0.00    -0.453 OA
BRANCH  40  41
ATOM     41  C   UNL     1       7.797  -2.166  22.451  0.00  0.00    +0.340 C 
ATOM     42  O   UNL     1       7.161  -3.249  21.749  0.00  0.00    -0.331 OA
ATOM     43  C   UNL     1       6.861  -4.479  22.469  0.00  0.00    +0.179 C 
ATOM     44  C   UNL     1       7.506  -4.719  23.863  0.00  0.00    +0.177 C 
ATOM     45  C   UNL     1       8.225  -3.510  24.447  0.00  0.00    +0.180 C 
ATOM     46  C   UNL     1       8.927  -2.769  23.305  0.00  0.00    +0.214 C 
BRANCH  46  47
ATOM     47  O   UNL     1       9.877  -1.846  23.839  0.00  0.00    -0.383 OA
ATOM     48  H   UNL     1      10.644  -2.338  24.197  0.00  0.00    +0.210 HD
ENDBRANCH  46  47
BRANCH  45  49
ATOM     49  O   UNL     1       9.165  -3.959  25.438  0.00  0.00    -0.386 OA
ATOM     50  H   UNL     1       9.902  -3.315  25.392  0.00  0.00    +0.210 HD
ENDBRANCH  45  49
BRANCH  44  51
ATOM     51  O   UNL     1       8.466  -5.795  23.826  0.00  0.00    -0.386 OA
ATOM     52  H   UNL     1       8.700  -5.941  24.770  0.00  0.00    +0.210 HD
ENDBRANCH  44  51
BRANCH  43  53
ATOM     53  C   UNL     1       7.205  -5.635  21.502  0.00  0.00    +0.190 C 
BRANCH  53  54
ATOM     54  O   UNL     1       6.469  -6.809  21.850  0.00  0.00    -0.392 OA
ATOM     55  H   UNL     1       5.546  -6.623  21.587  0.00  0.00    +0.210 HD
ENDBRANCH  53  54
ENDBRANCH  43  53
ENDBRANCH  40  41
ENDBRANCH  11  40
TORSDOF 18
ENDMDL
MODEL 8
REMARK VINA RESULT:      -6.7      3.047      6.711
REMARK  Name = 
REMARK  18 active torsions:
REMARK  status: ('A' for Active; 'I' for Inactive)
REMARK    1  A    between atoms: C_3  and  O_49
REMARK    2  A    between atoms: C_4  and  O_34
REMARK    3  A    between atoms: C_6  and  C_7
REMARK    4  A    between atoms: C_8  and  O_20
REMARK    5  A    between atoms: C_12  and  O_19
REMARK    6  A    between atoms: C_14  and  O_18
REMARK    7  A    between atoms: O_20  and  C_21
REMARK    8  A    between atoms: C_23  and  O_33
REMARK    9  A    between atoms: C_24  and  O_32
REMARK   10  A    between atoms: C_25  and  O_31
REMARK   11  A    between atoms: C_27  and  C_29
REMARK   12  A    between atoms: C_29  and  O_30
REMARK   13  A    between atoms: O_34  and  C_35
REMARK   14  A    between atoms: C_37  and  O_48
REMARK   15  A    between atoms: C_38  and  O_47
REMARK   16  A    between atoms: C_40  and  O_46
REMARK   17  A    between atoms: C_42  and  C_44
REMARK   18  A    between atoms: C_44  and  O_45
REMARK                            x       y       z     vdW  Elec       q    Type
REMARK                         _______ _______ _______ _____ _____    ______ ____
ROOT
ATOM      1  C   UNL     1       6.178  -1.322  25.018  0.00  0.00    +0.181 A 
ATOM      2  O   UNL     1       5.862  -0.128  24.379  0.00  0.00    -0.451 OA
ATOM      3  C   UNL     1       6.740   0.502  23.555  0.00  0.00    +0.147 A 
ATOM      4  C   UNL     1       7.999   0.015  23.292  0.00  0.00    +0.109 A 
ATOM      5  C   UNL     1       8.849   0.768  22.455  0.00  0.00    +0.135 A 
ATOM      6  C   UNL     1       8.410   1.965  21.868  0.00  0.00    +0.091 A 
ATOM      7  C   UNL     1       7.124   2.415  22.130  0.00  0.00    +0.124 A 
ATOM      8  C   UNL     1       8.354  -1.301  23.892  0.00  0.00    +0.238 A 
ATOM      9  O   UNL     1       9.464  -1.791  23.686  0.00  0.00    -0.283 OA
ATOM     10  C   UNL     1       6.296   1.700  22.985  0.00  0.00    +0.092 A 
ATOM     11  C   UNL     1       7.326  -1.993  24.776  0.00  0.00    +0.214 A 
ENDROOT
BRANCH   1  13
ATOM     12  C   UNL     1       5.381  -1.402  27.363  0.00  0.00    +0.015 A 
ATOM     13  C   UNL     1       5.094  -1.675  26.016  0.00  0.00    +0.025 A 
ATOM     14  C   UNL     1       3.876  -2.348  25.772  0.00  0.00    +0.061 A 
ATOM     15  C   UNL     1       3.007  -2.786  26.828  0.00  0.00    +0.166 A 
ATOM     16  C   UNL     1       3.423  -2.596  28.134  0.00  0.00    +0.159 A 
ATOM     17  C   UNL     1       4.576  -1.872  28.407  0.00  0.00    +0.050 A 
BRANCH  16  18
ATOM     18  O   UNL     1       2.755  -3.160  29.178  0.00  0.00    -0.503 OA
ATOM     19  H   UNL     1       2.488  -4.055  28.916  0.00  0.00    +0.292 HD
ENDBRANCH  16  18
BRANCH  15  20
ATOM     20  O   UNL     1       1.884  -3.478  26.473  0.00  0.00    -0.457 OA
BRANCH  20  21
ATOM     21  C   UNL     1       1.887  -4.871  26.053  0.00  0.00    +0.339 C 
ATOM     22  O   UNL     1       2.123  -5.132  24.646  0.00  0.00    -0.331 OA
ATOM     23  C   UNL     1       1.630  -6.428  24.223  0.00  0.00    +0.179 C 
ATOM     24  C   UNL     1       2.111  -7.620  25.102  0.00  0.00    +0.177 C 
ATOM     25  C   UNL     1       2.050  -7.303  26.604  0.00  0.00    +0.180 C 
ATOM     26  C   UNL     1       2.652  -5.911  26.911  0.00  0.00    +0.214 C 
BRANCH  26  27
ATOM     27  O   UNL     1       2.587  -5.662  28.318  0.00  0.00    -0.383 OA
ATOM     28  H   UNL     1       1.693  -5.910  28.617  0.00  0.00    +0.210 HD
ENDBRANCH  26  27
BRANCH  25  29
ATOM     29  O   UNL     1       0.705  -7.401  27.104  0.00  0.00    -0.386 OA
ATOM     30  H   UNL     1       0.206  -8.083  26.624  0.00  0.00    +0.210 HD
ENDBRANCH  25  29
BRANCH  24  31
ATOM     31  O   UNL     1       3.444  -8.009  24.760  0.00  0.00    -0.386 OA
ATOM     32  H   UNL     1       3.494  -8.982  24.789  0.00  0.00    +0.210 HD
ENDBRANCH  24  31
BRANCH  23  33
ATOM     33  C   UNL     1       1.980  -6.711  22.740  0.00  0.00    +0.190 C 
BRANCH  33  34
ATOM     34  O   UNL     1       3.294  -6.300  22.370  0.00  0.00    -0.392 OA
ATOM     35  H   UNL     1       3.374  -6.356  21.404  0.00  0.00    +0.210 HD
ENDBRANCH  33  34
ENDBRANCH  23  33
ENDBRANCH  20  21
ENDBRANCH  15  20
ENDBRANCH   1  13
BRANCH   7  36
ATOM     36  O   UNL     1       6.620   3.555  21.575  0.00  0.00    -0.507 OA
ATOM     37  H   UNL     1       5.961   3.947  22.170  0.00  0.00    +0.292 HD
ENDBRANCH   7  36
BRANCH   5  38
ATOM     38  O   UNL     1      10.146   0.414  22.168  0.00  0.00    -0.506 OA
ATOM     39  H   UNL     1      10.262  -0.533  22.373  0.00  0.00    +0.292 HD
ENDBRANCH   5  38
BRANCH  11  40
ATOM     40  O   UNL     1       7.687  -3.111  25.507  0.00  0.00    -0.453 OA
BRANCH  40  41
ATOM     41  C   UNL     1       8.327  -4.230  24.859  0.00  0.00    +0.340 C 
ATOM     42  O   UNL     1       8.019  -4.251  23.453  0.00  0.00    -0.331 OA
ATOM     43  C   UNL     1       6.706  -4.712  23.023  0.00  0.00    +0.179 C 
ATOM     44  C   UNL     1       5.793  -5.457  24.038  0.00  0.00    +0.177 C 
ATOM     45  C   UNL     1       6.288  -5.428  25.478  0.00  0.00    +0.180 C 
ATOM     46  C   UNL     1       7.816  -5.550  25.464  0.00  0.00    +0.214 C 
BRANCH  46  47
ATOM     47  O   UNL     1       8.287  -5.868  26.774  0.00  0.00    -0.383 OA
ATOM     48  H   UNL     1       7.865  -5.272  27.426  0.00  0.00    +0.210 HD
ENDBRANCH  46  47
BRANCH  45  49
ATOM     49  O   UNL     1       5.682  -6.513  26.201  0.00  0.00    -0.386 OA
ATOM     50  H   UNL     1       4.804  -6.172  26.472  0.00  0.00    +0.210 HD
ENDBRANCH  45  49
BRANCH  44  51
ATOM     51  O   UNL     1       5.627  -6.844  23.682  0.00  0.00    -0.386 OA
ATOM     52  H   UNL     1       6.544  -7.201  23.671  0.00  0.00    +0.210 HD
ENDBRANCH  44  51
BRANCH  43  53
ATOM     53  C   UNL     1       6.946  -5.578  21.766  0.00  0.00    +0.190 C 
BRANCH  53  54
ATOM     54  O   UNL     1       5.769  -5.618  20.958  0.00  0.00    -0.392 OA
ATOM     55  H   UNL     1       5.029  -5.744  21.584  0.00  0.00    +0.210 HD
ENDBRANCH  53  54
ENDBRANCH  43  53
ENDBRANCH  40  41
ENDBRANCH  11  40
TORSDOF 18
ENDMDL
MODEL 9
REMARK VINA RESULT:      -6.6      2.393      8.139
REMARK  Name = 
REMARK  18 active torsions:
REMARK  status: ('A' for Active; 'I' for Inactive)
REMARK    1  A    between atoms: C_3  and  O_49
REMARK    2  A    between atoms: C_4  and  O_34
REMARK    3  A    between atoms: C_6  and  C_7
REMARK    4  A    between atoms: C_8  and  O_20
REMARK    5  A    between atoms: C_12  and  O_19
REMARK    6  A    between atoms: C_14  and  O_18
REMARK    7  A    between atoms: O_20  and  C_21
REMARK    8  A    between atoms: C_23  and  O_33
REMARK    9  A    between atoms: C_24  and  O_32
REMARK   10  A    between atoms: C_25  and  O_31
REMARK   11  A    between atoms: C_27  and  C_29
REMARK   12  A    between atoms: C_29  and  O_30
REMARK   13  A    between atoms: O_34  and  C_35
REMARK   14  A    between atoms: C_37  and  O_48
REMARK   15  A    between atoms: C_38  and  O_47
REMARK   16  A    between atoms: C_40  and  O_46
REMARK   17  A    between atoms: C_42  and  C_44
REMARK   18  A    between atoms: C_44  and  O_45
REMARK                            x       y       z     vdW  Elec       q    Type
REMARK                         _______ _______ _______ _____ _____    ______ ____
ROOT
ATOM      1  C   UNL     1       7.242  -1.645  24.394  0.00  0.00    +0.181 A 
ATOM      2  O   UNL     1       7.242  -2.686  23.472  0.00  0.00    -0.451 OA
ATOM      3  C   UNL     1       6.559  -3.841  23.689  0.00  0.00    +0.147 A 
ATOM      4  C   UNL     1       5.823  -4.070  24.828  0.00  0.00    +0.109 A 
ATOM      5  C   UNL     1       5.186  -5.320  24.975  0.00  0.00    +0.135 A 
ATOM      6  C   UNL     1       5.262  -6.293  23.967  0.00  0.00    +0.091 A 
ATOM      7  C   UNL     1       5.988  -6.021  22.816  0.00  0.00    +0.124 A 
ATOM      8  C   UNL     1       5.731  -2.954  25.810  0.00  0.00    +0.238 A 
ATOM      9  O   UNL     1       5.080  -3.098  26.845  0.00  0.00    -0.283 OA
ATOM     10  C   UNL     1       6.652  -4.808  22.683  0.00  0.00    +0.092 A 
ATOM     11  C   UNL     1       6.477  -1.662  25.509  0.00  0.00    +0.214 A 
ENDROOT
BRANCH   1  13
ATOM     12  C   UNL     1       9.462  -0.579  24.668  0.00  0.00    +0.015 A 
ATOM     13  C   UNL     1       8.242  -0.586  23.975  0.00  0.00    +0.025 A 
ATOM     14  C   UNL     1       8.054   0.466  23.051  0.00  0.00    +0.061 A 
ATOM     15  C   UNL     1       9.015   1.518  22.868  0.00  0.00    +0.166 A 
ATOM     16  C   UNL     1      10.133   1.526  23.683  0.00  0.00    +0.159 A 
ATOM     17  C   UNL     1      10.384   0.468  24.545  0.00  0.00    +0.050 A 
BRANCH  16  18
ATOM     18  O   UNL     1      10.982   2.591  23.707  0.00  0.00    -0.503 OA
ATOM     19  H   UNL     1      11.620   2.482  22.983  0.00  0.00    +0.292 HD
ENDBRANCH  16  18
BRANCH  15  20
ATOM     20  O   UNL     1       8.699   2.513  21.987  0.00  0.00    -0.457 OA
BRANCH  20  21
ATOM     21  C   UNL     1       7.653   3.498  22.217  0.00  0.00    +0.339 C 
ATOM     22  O   UNL     1       6.327   2.990  22.515  0.00  0.00    -0.331 OA
ATOM     23  C   UNL     1       5.279   3.954  22.240  0.00  0.00    +0.179 C 
ATOM     24  C   UNL     1       5.502   5.353  22.887  0.00  0.00    +0.177 C 
ATOM     25  C   UNL     1       6.954   5.837  22.752  0.00  0.00    +0.180 C 
ATOM     26  C   UNL     1       7.958   4.719  23.121  0.00  0.00    +0.214 C 
BRANCH  26  27
ATOM     27  O   UNL     1       9.293   5.215  22.994  0.00  0.00    -0.383 OA
ATOM     28  H   UNL     1       9.444   5.838  23.728  0.00  0.00    +0.210 HD
ENDBRANCH  26  27
BRANCH  25  29
ATOM     29  O   UNL     1       7.214   6.343  21.430  0.00  0.00    -0.386 OA
ATOM     30  H   UNL     1       6.797   5.780  20.756  0.00  0.00    +0.210 HD
ENDBRANCH  25  29
BRANCH  24  31
ATOM     31  O   UNL     1       5.140   5.344  24.270  0.00  0.00    -0.386 OA
ATOM     32  H   UNL     1       5.950   5.210  24.796  0.00  0.00    +0.210 HD
ENDBRANCH  24  31
BRANCH  23  33
ATOM     33  C   UNL     1       3.888   3.413  22.654  0.00  0.00    +0.190 C 
BRANCH  33  34
ATOM     34  O   UNL     1       3.929   2.493  23.743  0.00  0.00    -0.392 OA
ATOM     35  H   UNL     1       4.814   2.525  24.141  0.00  0.00    +0.210 HD
ENDBRANCH  33  34
ENDBRANCH  23  33
ENDBRANCH  20  21
ENDBRANCH  15  20
ENDBRANCH   1  13
BRANCH   7  36
ATOM     36  O   UNL     1       6.085  -6.907  21.785  0.00  0.00    -0.507 OA
ATOM     37  H   UNL     1       5.287  -7.460  21.751  0.00  0.00    +0.292 HD
ENDBRANCH   7  36
BRANCH   5  38
ATOM     38  O   UNL     1       4.473  -5.686  26.093  0.00  0.00    -0.506 OA
ATOM     39  H   UNL     1       5.076  -5.686  26.859  0.00  0.00    +0.292 HD
ENDBRANCH   5  38
BRANCH  11  40
ATOM     40  O   UNL     1       6.579  -0.682  26.480  0.00  0.00    -0.453 OA
BRANCH  40  41
ATOM     41  C   UNL     1       5.843   0.551  26.349  0.00  0.00    +0.340 C 
ATOM     42  O   UNL     1       6.636   1.669  26.789  0.00  0.00    -0.331 OA
ATOM     43  C   UNL     1       6.816   1.890  28.217  0.00  0.00    +0.179 C 
ATOM     44  C   UNL     1       5.910   1.126  29.224  0.00  0.00    +0.177 C 
ATOM     45  C   UNL     1       5.057   0.027  28.604  0.00  0.00    +0.180 C 
ATOM     46  C   UNL     1       4.580   0.506  27.229  0.00  0.00    +0.214 C 
BRANCH  46  47
ATOM     47  O   UNL     1       3.519  -0.330  26.767  0.00  0.00    -0.383 OA
ATOM     48  H   UNL     1       2.841   0.220  26.322  0.00  0.00    +0.210 HD
ENDBRANCH  46  47
BRANCH  45  49
ATOM     49  O   UNL     1       3.949  -0.251  29.476  0.00  0.00    -0.386 OA
ATOM     50  H   UNL     1       4.155   0.232  30.303  0.00  0.00    +0.210 HD
ENDBRANCH  45  49
BRANCH  44  51
ATOM     51  O   UNL     1       5.006   2.019  29.906  0.00  0.00    -0.386 OA
ATOM     52  H   UNL     1       4.256   2.128  29.278  0.00  0.00    +0.210 HD
ENDBRANCH  44  51
BRANCH  43  53
ATOM     53  C   UNL     1       6.705   3.417  28.432  0.00  0.00    +0.190 C 
BRANCH  53  54
ATOM     54  O   UNL     1       7.436   3.809  29.594  0.00  0.00    -0.392 OA
ATOM     55  H   UNL     1       6.804   3.734  30.335  0.00  0.00    +0.210 HD
ENDBRANCH  53  54
ENDBRANCH  43  53
ENDBRANCH  40  41
ENDBRANCH  11  40
TORSDOF 18
ENDMDL
