MODEL 1
REMARK VINA RESULT:      -7.4      0.000      0.000
REMARK  Name = 
REMARK  23 active torsions:
REMARK  status: ('A' for Active; 'I' for Inactive)
REMARK    1  A    between atoms: C_1  and  C_2
REMARK    2  A    between atoms: C_3  and  O_63
REMARK    3  A    between atoms: C_5  and  O_62
REMARK    4  A    between atoms: C_6  and  O_61
REMARK    5  A    between atoms: C_8  and  O_11
REMARK    6  A    between atoms: O_11  and  C_12
REMARK    7  A    between atoms: C_12  and  C_13
REMARK    8  A    between atoms: C_14  and  O_60
REMARK    9  A    between atoms: C_16  and  O_59
REMARK   10  A    between atoms: C_18  and  O_44
REMARK   11  A    between atoms: C_19  and  O_22
REMARK   12  A    between atoms: O_22  and  C_23
REMARK   13  A    between atoms: C_24  and  C_36
REMARK   14  A    between atoms: C_28  and  O_35
REMARK   15  A    between atoms: C_30  and  O_34
REMARK   16  A    between atoms: C_38  and  O_43
REMARK   17  A    between atoms: C_39  and  O_42
REMARK   18  A    between atoms: O_44  and  C_45
REMARK   19  A    between atoms: C_47  and  O_58
REMARK   20  A    between atoms: C_48  and  O_57
REMARK   21  A    between atoms: C_50  and  O_56
REMARK   22  A    between atoms: C_52  and  C_54
REMARK   23  A    between atoms: C_54  and  O_55
REMARK                            x       y       z     vdW  Elec       q    Type
REMARK                         _______ _______ _______ _____ _____    ______ ____
ROOT
ATOM      1  C   UNL     1       5.666  -1.686  26.023  0.00  0.00    +0.179 C 
ATOM      2  O   UNL     1       6.162  -0.740  25.043  0.00  0.00    -0.331 OA
ATOM      3  C   UNL     1       6.385   0.639  25.392  0.00  0.00    +0.340 C 
ATOM      4  C   UNL     1       5.263   1.259  26.329  0.00  0.00    +0.221 C 
ATOM      5  C   UNL     1       5.055   0.257  27.490  0.00  0.00    +0.180 C 
ATOM      6  C   UNL     1       4.624  -1.116  26.985  0.00  0.00    +0.177 C 
ENDROOT
BRANCH   5   7
ATOM      7  O   UNL     1       4.147   0.749  28.475  0.00  0.00    -0.386 OA
ATOM      8  H   UNL     1       3.275   0.343  28.332  0.00  0.00    +0.210 HD
ENDBRANCH   5   7
BRANCH   6   9
ATOM      9  O   UNL     1       3.346  -1.035  26.329  0.00  0.00    -0.386 OA
ATOM     10  H   UNL     1       2.667  -1.407  26.926  0.00  0.00    +0.210 HD
ENDBRANCH   6   9
BRANCH   4  11
ATOM     11  O   UNL     1       4.063   1.647  25.595  0.00  0.00    -0.337 OA
BRANCH  11  12
ATOM     12  C   UNL     1       3.949   3.041  25.189  0.00  0.00    +0.282 C 
ATOM     13  O   UNL     1       3.921   3.877  26.376  0.00  0.00    -0.341 OA
ATOM     14  C   UNL     1       2.719   3.793  27.165  0.00  0.00    +0.178 C 
ATOM     15  C   UNL     1       1.431   4.041  26.347  0.00  0.00    +0.177 C 
ATOM     16  C   UNL     1       1.428   3.195  25.076  0.00  0.00    +0.179 C 
ATOM     17  C   UNL     1       2.727   3.432  24.303  0.00  0.00    +0.201 C 
BRANCH  17  18
ATOM     18  O   UNL     1       2.645   2.797  23.026  0.00  0.00    -0.384 OA
ATOM     19  H   UNL     1       3.198   1.997  23.054  0.00  0.00    +0.210 HD
ENDBRANCH  17  18
BRANCH  16  20
ATOM     20  O   UNL     1       1.242   1.805  25.359  0.00  0.00    -0.386 OA
ATOM     21  H   UNL     1       1.616   1.620  26.247  0.00  0.00    +0.210 HD
ENDBRANCH  16  20
BRANCH  15  22
ATOM     22  O   UNL     1       1.323   5.426  25.988  0.00  0.00    -0.386 OA
ATOM     23  H   UNL     1       0.929   5.915  26.734  0.00  0.00    +0.210 HD
ENDBRANCH  15  22
BRANCH  14  24
ATOM     24  C   UNL     1       2.801   4.808  28.326  0.00  0.00    +0.190 C 
BRANCH  24  25
ATOM     25  O   UNL     1       3.428   6.035  27.953  0.00  0.00    -0.392 OA
ATOM     26  H   UNL     1       4.315   5.825  27.615  0.00  0.00    +0.210 HD
ENDBRANCH  24  25
ENDBRANCH  14  24
ENDBRANCH  11  12
ENDBRANCH   4  11
BRANCH   3  27
ATOM     27  O   UNL     1       6.540   1.491  24.197  0.00  0.00    -0.453 OA
BRANCH  27  28
ATOM     28  C   UNL     1       7.767   2.109  23.885  0.00  0.00    +0.214 A 
ATOM     29  C   UNL     1       7.924   3.608  23.779  0.00  0.00    +0.238 A 
ATOM     30  O   UNL     1       6.959   4.358  23.627  0.00  0.00    -0.283 OA
ATOM     31  C   UNL     1       9.301   4.165  23.768  0.00  0.00    +0.109 A 
ATOM     32  C   UNL     1      10.322   3.294  23.430  0.00  0.00    +0.147 A 
ATOM     33  C   UNL     1      11.654   3.704  23.324  0.00  0.00    +0.092 A 
ATOM     34  C   UNL     1      11.968   5.024  23.584  0.00  0.00    +0.124 A 
ATOM     35  C   UNL     1      10.968   5.925  23.940  0.00  0.00    +0.091 A 
ATOM     36  O   UNL     1      10.083   1.994  23.162  0.00  0.00    -0.451 OA
ATOM     37  C   UNL     1       9.634   5.498  24.021  0.00  0.00    +0.135 A 
ATOM     38  C   UNL     1       8.901   1.410  23.583  0.00  0.00    +0.181 A 
BRANCH  38  39
ATOM     39  C   UNL     1       9.130  -0.057  23.476  0.00  0.00    +0.025 A 
ATOM     40  C   UNL     1       9.801  -0.749  24.474  0.00  0.00    +0.015 A 
ATOM     41  C   UNL     1       9.762  -2.144  24.528  0.00  0.00    +0.050 A 
ATOM     42  C   UNL     1       8.948  -2.851  23.650  0.00  0.00    +0.158 A 
ATOM     43  C   UNL     1       8.231  -2.187  22.661  0.00  0.00    +0.159 A 
ATOM     44  C   UNL     1       8.368  -0.808  22.540  0.00  0.00    +0.060 A 
BRANCH  42  45
ATOM     45  O   UNL     1       8.804  -4.189  23.874  0.00  0.00    -0.503 OA
ATOM     46  H   UNL     1       9.488  -4.407  24.534  0.00  0.00    +0.292 HD
ENDBRANCH  42  45
BRANCH  43  47
ATOM     47  O   UNL     1       7.340  -2.904  21.908  0.00  0.00    -0.503 OA
ATOM     48  H   UNL     1       6.440  -2.754  22.246  0.00  0.00    +0.292 HD
ENDBRANCH  43  47
ENDBRANCH  38  39
BRANCH  37  49
ATOM     49  O   UNL     1       8.674   6.400  24.382  0.00  0.00    -0.506 OA
ATOM     50  H   UNL     1       8.956   7.290  24.122  0.00  0.00    +0.292 HD
ENDBRANCH  37  49
BRANCH  34  51
ATOM     51  O   UNL     1      13.250   5.475  23.504  0.00  0.00    -0.507 OA
ATOM     52  H   UNL     1      13.343   6.066  22.739  0.00  0.00    +0.292 HD
ENDBRANCH  34  51
ENDBRANCH  27  28
ENDBRANCH   3  27
BRANCH   1  53
ATOM     53  C   UNL     1       6.685  -2.695  26.698  0.00  0.00    +0.197 C 
BRANCH  53  54
ATOM     54  O   UNL     1       6.833  -4.024  26.156  0.00  0.00    -0.346 OA
BRANCH  54  58
ATOM     55  C   UNL     1       3.284  -6.646  27.036  0.00  0.00    +0.041 C 
ATOM     56  C   UNL     1       4.414  -6.891  26.033  0.00  0.00    +0.149 C 
ATOM     57  O   UNL     1       5.582  -6.082  26.313  0.00  0.00    -0.343 OA
ATOM     58  C   UNL     1       5.532  -4.691  25.939  0.00  0.00    +0.282 C 
ATOM     59  C   UNL     1       5.107  -4.551  24.447  0.00  0.00    +0.201 C 
ATOM     60  C   UNL     1       3.784  -5.295  24.188  0.00  0.00    +0.179 C 
ATOM     61  C   UNL     1       3.908  -6.772  24.576  0.00  0.00    +0.174 C 
BRANCH  59  62
ATOM     62  O   UNL     1       6.110  -5.129  23.576  0.00  0.00    -0.384 OA
ATOM     63  H   UNL     1       5.666  -5.854  23.099  0.00  0.00    +0.210 HD
ENDBRANCH  59  62
BRANCH  60  64
ATOM     64  O   UNL     1       3.428  -5.204  22.799  0.00  0.00    -0.386 OA
ATOM     65  H   UNL     1       2.786  -4.467  22.744  0.00  0.00    +0.210 HD
ENDBRANCH  60  64
BRANCH  61  66
ATOM     66  O   UNL     1       4.796  -7.439  23.688  0.00  0.00    -0.387 OA
ATOM     67  H   UNL     1       5.471  -7.872  24.248  0.00  0.00    +0.210 HD
ENDBRANCH  61  66
ENDBRANCH  54  58
ENDBRANCH  53  54
ENDBRANCH   1  53
TORSDOF 22
ENDMDL
MODEL 2
REMARK VINA RESULT:      -7.2      2.221      7.920
REMARK  Name = 
REMARK  23 active torsions:
REMARK  status: ('A' for Active; 'I' for Inactive)
REMARK    1  A    between atoms: C_1  and  C_2
REMARK    2  A    between atoms: C_3  and  O_63
REMARK    3  A    between atoms: C_5  and  O_62
REMARK    4  A    between atoms: C_6  and  O_61
REMARK    5  A    between atoms: C_8  and  O_11
REMARK    6  A    between atoms: O_11  and  C_12
REMARK    7  A    between atoms: C_12  and  C_13
REMARK    8  A    between atoms: C_14  and  O_60
REMARK    9  A    between atoms: C_16  and  O_59
REMARK   10  A    between atoms: C_18  and  O_44
REMARK   11  A    between atoms: C_19  and  O_22
REMARK   12  A    between atoms: O_22  and  C_23
REMARK   13  A    between atoms: C_24  and  C_36
REMARK   14  A    between atoms: C_28  and  O_35
REMARK   15  A    between atoms: C_30  and  O_34
REMARK   16  A    between atoms: C_38  and  O_43
REMARK   17  A    between atoms: C_39  and  O_42
REMARK   18  A    between atoms: O_44  and  C_45
REMARK   19  A    between atoms: C_47  and  O_58
REMARK   20  A    between atoms: C_48  and  O_57
REMARK   21  A    between atoms: C_50  and  O_56
REMARK   22  A    between atoms: C_52  and  C_54
REMARK   23  A    between atoms: C_54  and  O_55
REMARK                            x       y       z     vdW  Elec       q    Type
REMARK                         _______ _______ _______ _____ _____    ______ ____
ROOT
ATOM      1  C   UNL     1       7.754  -3.170  23.995  0.00  0.00    +0.179 C 
ATOM      2  O   UNL     1       7.295  -2.265  25.030  0.00  0.00    -0.331 OA
ATOM      3  C   UNL     1       7.682  -2.455  26.404  0.00  0.00    +0.340 C 
ATOM      4  C   UNL     1       7.682  -3.973  26.872  0.00  0.00    +0.221 C 
ATOM      5  C   UNL     1       8.466  -4.765  25.798  0.00  0.00    +0.180 C 
ATOM      6  C   UNL     1       7.826  -4.637  24.419  0.00  0.00    +0.177 C 
ENDROOT
BRANCH   5   7
ATOM      7  O   UNL     1       8.642  -6.135  26.155  0.00  0.00    -0.386 OA
ATOM      8  H   UNL     1       9.496  -6.235  26.613  0.00  0.00    +0.210 HD
ENDBRANCH   5   7
BRANCH   6   9
ATOM      9  O   UNL     1       6.507  -5.211  24.418  0.00  0.00    -0.386 OA
ATOM     10  H   UNL     1       6.556  -6.099  24.821  0.00  0.00    +0.210 HD
ENDBRANCH   6   9
BRANCH   4  11
ATOM     11  O   UNL     1       6.347  -4.470  27.188  0.00  0.00    -0.337 OA
BRANCH  11  12
ATOM     12  C   UNL     1       6.249  -5.804  27.762  0.00  0.00    +0.282 C 
ATOM     13  O   UNL     1       5.577  -6.676  26.815  0.00  0.00    -0.341 OA
ATOM     14  C   UNL     1       4.169  -6.425  26.633  0.00  0.00    +0.178 C 
ATOM     15  C   UNL     1       3.373  -6.413  27.958  0.00  0.00    +0.177 C 
ATOM     16  C   UNL     1       4.058  -5.523  28.991  0.00  0.00    +0.179 C 
ATOM     17  C   UNL     1       5.523  -5.942  29.135  0.00  0.00    +0.201 C 
BRANCH  17  18
ATOM     18  O   UNL     1       6.113  -5.246  30.233  0.00  0.00    -0.384 OA
ATOM     19  H   UNL     1       7.050  -5.095  30.023  0.00  0.00    +0.210 HD
ENDBRANCH  17  18
BRANCH  16  20
ATOM     20  O   UNL     1       3.948  -4.136  28.660  0.00  0.00    -0.386 OA
ATOM     21  H   UNL     1       3.687  -4.066  27.717  0.00  0.00    +0.210 HD
ENDBRANCH  16  20
BRANCH  15  22
ATOM     22  O   UNL     1       3.259  -7.743  28.486  0.00  0.00    -0.386 OA
ATOM     23  H   UNL     1       2.842  -8.315  27.815  0.00  0.00    +0.210 HD
ENDBRANCH  15  22
BRANCH  14  24
ATOM     24  C   UNL     1       3.582  -7.490  25.682  0.00  0.00    +0.190 C 
BRANCH  24  25
ATOM     25  O   UNL     1       4.157  -7.450  24.375  0.00  0.00    -0.392 OA
ATOM     26  H   UNL     1       5.071  -7.132  24.462  0.00  0.00    +0.210 HD
ENDBRANCH  24  25
ENDBRANCH  14  24
ENDBRANCH  11  12
ENDBRANCH   4  11
BRANCH   3  27
ATOM     27  O   UNL     1       6.842  -1.667  27.326  0.00  0.00    -0.453 OA
BRANCH  27  28
ATOM     28  C   UNL     1       6.128  -0.534  26.888  0.00  0.00    +0.214 A 
ATOM     29  C   UNL     1       6.679   0.869  26.989  0.00  0.00    +0.238 A 
ATOM     30  O   UNL     1       7.612   1.154  27.740  0.00  0.00    -0.283 OA
ATOM     31  C   UNL     1       5.999   1.941  26.216  0.00  0.00    +0.109 A 
ATOM     32  C   UNL     1       4.700   1.690  25.813  0.00  0.00    +0.147 A 
ATOM     33  C   UNL     1       3.929   2.636  25.133  0.00  0.00    +0.092 A 
ATOM     34  C   UNL     1       4.489   3.864  24.834  0.00  0.00    +0.124 A 
ATOM     35  C   UNL     1       5.800   4.145  25.212  0.00  0.00    +0.091 A 
ATOM     36  O   UNL     1       4.093   0.514  26.075  0.00  0.00    -0.451 OA
ATOM     37  C   UNL     1       6.551   3.189  25.912  0.00  0.00    +0.135 A 
ATOM     38  C   UNL     1       4.853  -0.596  26.402  0.00  0.00    +0.181 A 
BRANCH  38  39
ATOM     39  C   UNL     1       3.936  -1.757  26.244  0.00  0.00    +0.025 A 
ATOM     40  C   UNL     1       2.639  -1.715  26.736  0.00  0.00    +0.015 A 
ATOM     41  C   UNL     1       1.692  -2.662  26.340  0.00  0.00    +0.050 A 
ATOM     42  C   UNL     1       2.007  -3.589  25.353  0.00  0.00    +0.158 A 
ATOM     43  C   UNL     1       3.286  -3.636  24.810  0.00  0.00    +0.159 A 
ATOM     44  C   UNL     1       4.257  -2.765  25.294  0.00  0.00    +0.060 A 
BRANCH  42  45
ATOM     45  O   UNL     1       0.988  -4.360  24.874  0.00  0.00    -0.503 OA
ATOM     46  H   UNL     1       0.797  -3.999  23.988  0.00  0.00    +0.292 HD
ENDBRANCH  42  45
BRANCH  43  47
ATOM     47  O   UNL     1       3.514  -4.469  23.747  0.00  0.00    -0.503 OA
ATOM     48  H   UNL     1       3.339  -3.991  22.919  0.00  0.00    +0.292 HD
ENDBRANCH  43  47
ENDBRANCH  38  39
BRANCH  37  49
ATOM     49  O   UNL     1       7.836   3.487  26.262  0.00  0.00    -0.506 OA
ATOM     50  H   UNL     1       8.356   2.670  26.304  0.00  0.00    +0.292 HD
ENDBRANCH  37  49
BRANCH  34  51
ATOM     51  O   UNL     1       3.786   4.818  24.165  0.00  0.00    -0.507 OA
ATOM     52  H   UNL     1       4.383   5.313  23.579  0.00  0.00    +0.292 HD
ENDBRANCH  34  51
ENDBRANCH  27  28
ENDBRANCH   3  27
BRANCH   1  53
ATOM     53  C   UNL     1       8.941  -2.713  23.049  0.00  0.00    +0.197 C 
BRANCH  53  54
ATOM     54  O   UNL     1       8.675  -1.787  21.974  0.00  0.00    -0.346 OA
BRANCH  54  58
ATOM     55  C   UNL     1       6.666   2.237  22.104  0.00  0.00    +0.041 C 
ATOM     56  C   UNL     1       8.119   1.919  21.747  0.00  0.00    +0.149 C 
ATOM     57  O   UNL     1       8.306   0.527  21.393  0.00  0.00    -0.343 OA
ATOM     58  C   UNL     1       8.343  -0.433  22.468  0.00  0.00    +0.282 C 
ATOM     59  C   UNL     1       9.380   0.007  23.544  0.00  0.00    +0.201 C 
ATOM     60  C   UNL     1       9.088   1.440  24.024  0.00  0.00    +0.179 C 
ATOM     61  C   UNL     1       9.090   2.418  22.844  0.00  0.00    +0.174 C 
BRANCH  59  62
ATOM     62  O   UNL     1      10.720  -0.004  22.994  0.00  0.00    -0.384 OA
ATOM     63  H   UNL     1      11.320   0.153  23.746  0.00  0.00    +0.210 HD
ENDBRANCH  59  62
BRANCH  60  64
ATOM     64  O   UNL     1      10.079   1.855  24.977  0.00  0.00    -0.386 OA
ATOM     65  H   UNL     1      10.139   1.122  25.623  0.00  0.00    +0.210 HD
ENDBRANCH  60  64
BRANCH  61  66
ATOM     66  O   UNL     1      10.405   2.548  22.318  0.00  0.00    -0.387 OA
ATOM     67  H   UNL     1      10.629   1.682  21.921  0.00  0.00    +0.210 HD
ENDBRANCH  61  66
ENDBRANCH  54  58
ENDBRANCH  53  54
ENDBRANCH   1  53
TORSDOF 22
ENDMDL
MODEL 3
REMARK VINA RESULT:      -7.2      2.404      7.090
REMARK  Name = 
REMARK  23 active torsions:
REMARK  status: ('A' for Active; 'I' for Inactive)
REMARK    1  A    between atoms: C_1  and  C_2
REMARK    2  A    between atoms: C_3  and  O_63
REMARK    3  A    between atoms: C_5  and  O_62
REMARK    4  A    between atoms: C_6  and  O_61
REMARK    5  A    between atoms: C_8  and  O_11
REMARK    6  A    between atoms: O_11  and  C_12
REMARK    7  A    between atoms: C_12  and  C_13
REMARK    8  A    between atoms: C_14  and  O_60
REMARK    9  A    between atoms: C_16  and  O_59
REMARK   10  A    between atoms: C_18  and  O_44
REMARK   11  A    between atoms: C_19  and  O_22
REMARK   12  A    between atoms: O_22  and  C_23
REMARK   13  A    between atoms: C_24  and  C_36
REMARK   14  A    between atoms: C_28  and  O_35
REMARK   15  A    between atoms: C_30  and  O_34
REMARK   16  A    between atoms: C_38  and  O_43
REMARK   17  A    between atoms: C_39  and  O_42
REMARK   18  A    between atoms: O_44  and  C_45
REMARK   19  A    between atoms: C_47  and  O_58
REMARK   20  A    between atoms: C_48  and  O_57
REMARK   21  A    between atoms: C_50  and  O_56
REMARK   22  A    between atoms: C_52  and  C_54
REMARK   23  A    between atoms: C_54  and  O_55
REMARK                            x       y       z     vdW  Elec       q    Type
REMARK                         _______ _______ _______ _____ _____    ______ ____
ROOT
ATOM      1  C   UNL     1       9.033   0.583  24.838  0.00  0.00    +0.179 C 
ATOM      2  O   UNL     1       7.713   0.285  25.359  0.00  0.00    -0.331 OA
ATOM      3  C   UNL     1       6.618  -0.012  24.472  0.00  0.00    +0.340 C 
ATOM      4  C   UNL     1       6.573   0.896  23.171  0.00  0.00    +0.221 C 
ATOM      5  C   UNL     1       7.999   0.875  22.569  0.00  0.00    +0.180 C 
ATOM      6  C   UNL     1       9.038   1.408  23.551  0.00  0.00    +0.177 C 
ENDROOT
BRANCH   5   7
ATOM      7  O   UNL     1       8.072   1.564  21.322  0.00  0.00    -0.386 OA
ATOM      8  H   UNL     1       7.176   1.636  20.948  0.00  0.00    +0.210 HD
ENDBRANCH   5   7
BRANCH   6   9
ATOM      9  O   UNL     1       8.782   2.790  23.856  0.00  0.00    -0.386 OA
ATOM     10  H   UNL     1       8.296   3.188  23.108  0.00  0.00    +0.210 HD
ENDBRANCH   6   9
BRANCH   4  11
ATOM     11  O   UNL     1       6.002   2.216  23.420  0.00  0.00    -0.337 OA
BRANCH  11  12
ATOM     12  C   UNL     1       5.563   2.984  22.263  0.00  0.00    +0.282 C 
ATOM     13  O   UNL     1       6.517   4.049  22.015  0.00  0.00    -0.341 OA
ATOM     14  C   UNL     1       6.519   5.117  22.983  0.00  0.00    +0.178 C 
ATOM     15  C   UNL     1       5.122   5.737  23.212  0.00  0.00    +0.177 C 
ATOM     16  C   UNL     1       4.081   4.648  23.456  0.00  0.00    +0.179 C 
ATOM     17  C   UNL     1       4.142   3.621  22.322  0.00  0.00    +0.201 C 
BRANCH  17  18
ATOM     18  O   UNL     1       3.047   2.712  22.443  0.00  0.00    -0.384 OA
ATOM     19  H   UNL     1       3.054   2.131  21.662  0.00  0.00    +0.210 HD
ENDBRANCH  17  18
BRANCH  16  20
ATOM     20  O   UNL     1       4.252   4.020  24.730  0.00  0.00    -0.386 OA
ATOM     21  H   UNL     1       4.805   4.606  25.289  0.00  0.00    +0.210 HD
ENDBRANCH  16  20
BRANCH  15  22
ATOM     22  O   UNL     1       4.726   6.517  22.075  0.00  0.00    -0.386 OA
ATOM     23  H   UNL     1       3.806   6.292  21.841  0.00  0.00    +0.210 HD
ENDBRANCH  15  22
BRANCH  14  24
ATOM     24  C   UNL     1       7.507   6.214  22.529  0.00  0.00    +0.190 C 
BRANCH  24  25
ATOM     25  O   UNL     1       7.568   6.358  21.110  0.00  0.00    -0.392 OA
ATOM     26  H   UNL     1       7.554   7.308  20.906  0.00  0.00    +0.210 HD
ENDBRANCH  24  25
ENDBRANCH  14  24
ENDBRANCH  11  12
ENDBRANCH   4  11
BRANCH   3  27
ATOM     27  O   UNL     1       5.315   0.068  25.162  0.00  0.00    -0.453 OA
BRANCH  27  28
ATOM     28  C   UNL     1       4.968  -0.829  26.190  0.00  0.00    +0.214 A 
ATOM     29  C   UNL     1       4.396  -2.201  25.921  0.00  0.00    +0.238 A 
ATOM     30  O   UNL     1       3.892  -2.499  24.837  0.00  0.00    -0.283 OA
ATOM     31  C   UNL     1       4.368  -3.176  27.042  0.00  0.00    +0.109 A 
ATOM     32  C   UNL     1       4.460  -2.658  28.321  0.00  0.00    +0.147 A 
ATOM     33  C   UNL     1       4.386  -3.460  29.463  0.00  0.00    +0.092 A 
ATOM     34  C   UNL     1       4.234  -4.825  29.311  0.00  0.00    +0.124 A 
ATOM     35  C   UNL     1       4.153  -5.383  28.038  0.00  0.00    +0.091 A 
ATOM     36  O   UNL     1       4.607  -1.335  28.539  0.00  0.00    -0.451 OA
ATOM     37  C   UNL     1       4.209  -4.558  26.904  0.00  0.00    +0.135 A 
ATOM     38  C   UNL     1       5.050  -0.513  27.517  0.00  0.00    +0.181 A 
BRANCH  38  39
ATOM     39  C   UNL     1       5.458   0.754  28.184  0.00  0.00    +0.025 A 
ATOM     40  C   UNL     1       6.677   0.855  28.838  0.00  0.00    +0.015 A 
ATOM     41  C   UNL     1       7.193   2.100  29.203  0.00  0.00    +0.050 A 
ATOM     42  C   UNL     1       6.544   3.264  28.805  0.00  0.00    +0.158 A 
ATOM     43  C   UNL     1       5.339   3.201  28.114  0.00  0.00    +0.159 A 
ATOM     44  C   UNL     1       4.774   1.957  27.858  0.00  0.00    +0.060 A 
BRANCH  42  45
ATOM     45  O   UNL     1       7.193   4.445  29.024  0.00  0.00    -0.503 OA
ATOM     46  H   UNL     1       7.942   4.438  28.400  0.00  0.00    +0.292 HD
ENDBRANCH  42  45
BRANCH  43  47
ATOM     47  O   UNL     1       4.807   4.363  27.624  0.00  0.00    -0.503 OA
ATOM     48  H   UNL     1       4.705   4.289  26.659  0.00  0.00    +0.292 HD
ENDBRANCH  43  47
ENDBRANCH  38  39
BRANCH  37  49
ATOM     49  O   UNL     1       4.136  -5.132  25.667  0.00  0.00    -0.506 OA
ATOM     50  H   UNL     1       4.826  -5.808  25.586  0.00  0.00    +0.292 HD
ENDBRANCH  37  49
BRANCH  34  51
ATOM     51  O   UNL     1       4.166  -5.653  30.389  0.00  0.00    -0.507 OA
ATOM     52  H   UNL     1       4.392  -6.559  30.120  0.00  0.00    +0.292 HD
ENDBRANCH  34  51
ENDBRANCH  27  28
ENDBRANCH   3  27
BRANCH   1  53
ATOM     53  C   UNL     1      10.147  -0.543  24.886  0.00  0.00    +0.197 C 
BRANCH  53  54
ATOM     54  O   UNL     1      10.062  -1.665  23.982  0.00  0.00    -0.346 OA
BRANCH  54  58
ATOM     55  C   UNL     1       8.770  -5.267  26.350  0.00  0.00    +0.041 C 
ATOM     56  C   UNL     1       9.017  -5.167  24.843  0.00  0.00    +0.149 C 
ATOM     57  O   UNL     1       9.818  -4.011  24.494  0.00  0.00    -0.343 OA
ATOM     58  C   UNL     1       9.165  -2.727  24.488  0.00  0.00    +0.282 C 
ATOM     59  C   UNL     1       7.873  -2.786  23.620  0.00  0.00    +0.201 C 
ATOM     60  C   UNL     1       6.955  -3.928  24.091  0.00  0.00    +0.179 C 
ATOM     61  C   UNL     1       7.694  -5.270  24.048  0.00  0.00    +0.174 C 
BRANCH  59  62
ATOM     62  O   UNL     1       8.203  -3.036  22.232  0.00  0.00    -0.384 OA
ATOM     63  H   UNL     1       7.485  -2.637  21.708  0.00  0.00    +0.210 HD
ENDBRANCH  59  62
BRANCH  60  64
ATOM     64  O   UNL     1       5.792  -4.007  23.253  0.00  0.00    -0.386 OA
ATOM     65  H   UNL     1       5.031  -4.048  23.868  0.00  0.00    +0.210 HD
ENDBRANCH  60  64
BRANCH  61  66
ATOM     66  O   UNL     1       7.954  -5.642  22.701  0.00  0.00    -0.387 OA
ATOM     67  H   UNL     1       7.554  -6.527  22.578  0.00  0.00    +0.210 HD
ENDBRANCH  61  66
ENDBRANCH  54  58
ENDBRANCH  53  54
ENDBRANCH   1  53
TORSDOF 22
ENDMDL
MODEL 4
REMARK VINA RESULT:      -7.1      2.077      8.660
REMARK  Name = 
REMARK  23 active torsions:
REMARK  status: ('A' for Active; 'I' for Inactive)
REMARK    1  A    between atoms: C_1  and  C_2
REMARK    2  A    between atoms: C_3  and  O_63
REMARK    3  A    between atoms: C_5  and  O_62
REMARK    4  A    between atoms: C_6  and  O_61
REMARK    5  A    between atoms: C_8  and  O_11
REMARK    6  A    between atoms: O_11  and  C_12
REMARK    7  A    between atoms: C_12  and  C_13
REMARK    8  A    between atoms: C_14  and  O_60
REMARK    9  A    between atoms: C_16  and  O_59
REMARK   10  A    between atoms: C_18  and  O_44
REMARK   11  A    between atoms: C_19  and  O_22
REMARK   12  A    between atoms: O_22  and  C_23
REMARK   13  A    between atoms: C_24  and  C_36
REMARK   14  A    between atoms: C_28  and  O_35
REMARK   15  A    between atoms: C_30  and  O_34
REMARK   16  A    between atoms: C_38  and  O_43
REMARK   17  A    between atoms: C_39  and  O_42
REMARK   18  A    between atoms: O_44  and  C_45
REMARK   19  A    between atoms: C_47  and  O_58
REMARK   20  A    between atoms: C_48  and  O_57
REMARK   21  A    between atoms: C_50  and  O_56
REMARK   22  A    between atoms: C_52  and  C_54
REMARK   23  A    between atoms: C_54  and  O_55
REMARK                            x       y       z     vdW  Elec       q    Type
REMARK                         _______ _______ _______ _____ _____    ______ ____
ROOT
ATOM      1  C   UNL     1       8.109  -1.790  22.796  0.00  0.00    +0.179 C 
ATOM      2  O   UNL     1       6.858  -1.662  23.517  0.00  0.00    -0.331 OA
ATOM      3  C   UNL     1       6.711  -2.198  24.845  0.00  0.00    +0.340 C 
ATOM      4  C   UNL     1       7.393  -3.617  25.050  0.00  0.00    +0.221 C 
ATOM      5  C   UNL     1       8.830  -3.501  24.486  0.00  0.00    +0.180 C 
ATOM      6  C   UNL     1       8.831  -3.121  23.009  0.00  0.00    +0.177 C 
ENDROOT
BRANCH   5   7
ATOM      7  O   UNL     1       9.599  -4.681  24.713  0.00  0.00    -0.386 OA
ATOM      8  H   UNL     1       9.296  -5.102  25.537  0.00  0.00    +0.210 HD
ENDBRANCH   5   7
BRANCH   6   9
ATOM      9  O   UNL     1       8.204  -4.149  22.222  0.00  0.00    -0.386 OA
ATOM     10  H   UNL     1       8.198  -4.976  22.742  0.00  0.00    +0.210 HD
ENDBRANCH   6   9
BRANCH   4  11
ATOM     11  O   UNL     1       6.587  -4.715  24.527  0.00  0.00    -0.337 OA
BRANCH  11  12
ATOM     12  C   UNL     1       5.190  -4.435  24.226  0.00  0.00    +0.282 C 
ATOM     13  O   UNL     1       4.351  -5.305  25.030  0.00  0.00    -0.341 OA
ATOM     14  C   UNL     1       4.367  -6.698  24.658  0.00  0.00    +0.178 C 
ATOM     15  C   UNL     1       4.051  -6.936  23.164  0.00  0.00    +0.177 C 
ATOM     16  C   UNL     1       4.898  -6.023  22.281  0.00  0.00    +0.179 C 
ATOM     17  C   UNL     1       4.734  -4.572  22.742  0.00  0.00    +0.201 C 
BRANCH  17  18
ATOM     18  O   UNL     1       5.366  -3.700  21.804  0.00  0.00    -0.384 OA
ATOM     19  H   UNL     1       4.965  -3.859  20.932  0.00  0.00    +0.210 HD
ENDBRANCH  17  18
BRANCH  16  20
ATOM     20  O   UNL     1       6.275  -6.410  22.276  0.00  0.00    -0.386 OA
ATOM     21  H   UNL     1       6.775  -5.755  21.745  0.00  0.00    +0.210 HD
ENDBRANCH  16  20
BRANCH  15  22
ATOM     22  O   UNL     1       2.663  -6.688  22.900  0.00  0.00    -0.386 OA
ATOM     23  H   UNL     1       2.575  -6.308  22.006  0.00  0.00    +0.210 HD
ENDBRANCH  15  22
BRANCH  14  24
ATOM     24  C   UNL     1       3.356  -7.470  25.534  0.00  0.00    +0.190 C 
BRANCH  24  25
ATOM     25  O   UNL     1       2.967  -8.720  24.966  0.00  0.00    -0.392 OA
ATOM     26  H   UNL     1       3.148  -9.415  25.621  0.00  0.00    +0.210 HD
ENDBRANCH  24  25
ENDBRANCH  14  24
ENDBRANCH  11  12
ENDBRANCH   4  11
BRANCH   3  27
ATOM     27  O   UNL     1       5.294  -2.281  25.251  0.00  0.00    -0.453 OA
BRANCH  27  28
ATOM     28  C   UNL     1       4.787  -1.519  26.321  0.00  0.00    +0.214 A 
ATOM     29  C   UNL     1       4.522  -0.036  26.218  0.00  0.00    +0.238 A 
ATOM     30  O   UNL     1       5.027   0.659  25.335  0.00  0.00    -0.283 OA
ATOM     31  C   UNL     1       3.696   0.600  27.277  0.00  0.00    +0.109 A 
ATOM     32  C   UNL     1       3.588  -0.082  28.475  0.00  0.00    +0.147 A 
ATOM     33  C   UNL     1       2.892   0.433  29.572  0.00  0.00    +0.092 A 
ATOM     34  C   UNL     1       2.272   1.663  29.451  0.00  0.00    +0.124 A 
ATOM     35  C   UNL     1       2.349   2.371  28.255  0.00  0.00    +0.091 A 
ATOM     36  O   UNL     1       4.170  -1.285  28.660  0.00  0.00    -0.451 OA
ATOM     37  C   UNL     1       3.070   1.845  27.172  0.00  0.00    +0.135 A 
ATOM     38  C   UNL     1       4.557  -2.038  27.565  0.00  0.00    +0.181 A 
BRANCH  38  39
ATOM     39  C   UNL     1       4.787  -3.410  28.096  0.00  0.00    +0.025 A 
ATOM     40  C   UNL     1       3.722  -4.255  28.371  0.00  0.00    +0.015 A 
ATOM     41  C   UNL     1       3.928  -5.620  28.581  0.00  0.00    +0.050 A 
ATOM     42  C   UNL     1       5.193  -6.169  28.397  0.00  0.00    +0.158 A 
ATOM     43  C   UNL     1       6.276  -5.356  28.083  0.00  0.00    +0.159 A 
ATOM     44  C   UNL     1       6.084  -3.982  27.990  0.00  0.00    +0.060 A 
BRANCH  42  45
ATOM     45  O   UNL     1       5.292  -7.530  28.429  0.00  0.00    -0.503 OA
ATOM     46  H   UNL     1       5.747  -7.727  29.269  0.00  0.00    +0.292 HD
ENDBRANCH  42  45
BRANCH  43  47
ATOM     47  O   UNL     1       7.470  -5.951  27.776  0.00  0.00    -0.503 OA
ATOM     48  H   UNL     1       7.673  -5.802  26.836  0.00  0.00    +0.292 HD
ENDBRANCH  43  47
ENDBRANCH  38  39
BRANCH  37  49
ATOM     49  O   UNL     1       3.122   2.556  26.007  0.00  0.00    -0.506 OA
ATOM     50  H   UNL     1       3.930   2.324  25.525  0.00  0.00    +0.292 HD
ENDBRANCH  37  49
BRANCH  34  51
ATOM     51  O   UNL     1       1.574   2.207  30.485  0.00  0.00    -0.507 OA
ATOM     52  H   UNL     1       0.667   1.855  30.488  0.00  0.00    +0.292 HD
ENDBRANCH  34  51
ENDBRANCH  27  28
ENDBRANCH   3  27
BRANCH   1  53
ATOM     53  C   UNL     1       9.076  -0.538  22.710  0.00  0.00    +0.197 C 
BRANCH  53  54
ATOM     54  O   UNL     1       8.929   0.399  21.622  0.00  0.00    -0.346 OA
BRANCH  54  58
ATOM     55  C   UNL     1       9.738   4.248  23.808  0.00  0.00    +0.041 C 
ATOM     56  C   UNL     1       8.692   3.179  24.134  0.00  0.00    +0.149 C 
ATOM     57  O   UNL     1       8.991   1.909  23.504  0.00  0.00    -0.343 OA
ATOM     58  C   UNL     1       8.706   1.781  22.097  0.00  0.00    +0.282 C 
ATOM     59  C   UNL     1       7.237   2.210  21.806  0.00  0.00    +0.201 C 
ATOM     60  C   UNL     1       6.967   3.625  22.351  0.00  0.00    +0.179 C 
ATOM     61  C   UNL     1       7.259   3.691  23.854  0.00  0.00    +0.174 C 
BRANCH  59  62
ATOM     62  O   UNL     1       6.306   1.309  22.452  0.00  0.00    -0.384 OA
ATOM     63  H   UNL     1       5.426   1.716  22.355  0.00  0.00    +0.210 HD
ENDBRANCH  59  62
BRANCH  60  64
ATOM     64  O   UNL     1       5.597   3.990  22.124  0.00  0.00    -0.386 OA
ATOM     65  H   UNL     1       5.102   3.623  22.884  0.00  0.00    +0.210 HD
ENDBRANCH  60  64
BRANCH  61  66
ATOM     66  O   UNL     1       6.308   2.915  24.572  0.00  0.00    -0.387 OA
ATOM     67  H   UNL     1       6.791   2.134  24.911  0.00  0.00    +0.210 HD
ENDBRANCH  61  66
ENDBRANCH  54  58
ENDBRANCH  53  54
ENDBRANCH   1  53
TORSDOF 22
ENDMDL
MODEL 5
REMARK VINA RESULT:      -7.0      1.534      2.492
REMARK  Name = 
REMARK  23 active torsions:
REMARK  status: ('A' for Active; 'I' for Inactive)
REMARK    1  A    between atoms: C_1  and  C_2
REMARK    2  A    between atoms: C_3  and  O_63
REMARK    3  A    between atoms: C_5  and  O_62
REMARK    4  A    between atoms: C_6  and  O_61
REMARK    5  A    between atoms: C_8  and  O_11
REMARK    6  A    between atoms: O_11  and  C_12
REMARK    7  A    between atoms: C_12  and  C_13
REMARK    8  A    between atoms: C_14  and  O_60
REMARK    9  A    between atoms: C_16  and  O_59
REMARK   10  A    between atoms: C_18  and  O_44
REMARK   11  A    between atoms: C_19  and  O_22
REMARK   12  A    between atoms: O_22  and  C_23
REMARK   13  A    between atoms: C_24  and  C_36
REMARK   14  A    between atoms: C_28  and  O_35
REMARK   15  A    between atoms: C_30  and  O_34
REMARK   16  A    between atoms: C_38  and  O_43
REMARK   17  A    between atoms: C_39  and  O_42
REMARK   18  A    between atoms: O_44  and  C_45
REMARK   19  A    between atoms: C_47  and  O_58
REMARK   20  A    between atoms: C_48  and  O_57
REMARK   21  A    between atoms: C_50  and  O_56
REMARK   22  A    between atoms: C_52  and  C_54
REMARK   23  A    between atoms: C_54  and  O_55
REMARK                            x       y       z     vdW  Elec       q    Type
REMARK                         _______ _______ _______ _____ _____    ______ ____
ROOT
ATOM      1  C   UNL     1       5.938  -1.203  25.943  0.00  0.00    +0.179 C 
ATOM      2  O   UNL     1       6.517  -0.313  24.956  0.00  0.00    -0.331 OA
ATOM      3  C   UNL     1       6.637   1.099  25.213  0.00  0.00    +0.340 C 
ATOM      4  C   UNL     1       5.379   1.732  25.946  0.00  0.00    +0.221 C 
ATOM      5  C   UNL     1       5.065   0.815  27.153  0.00  0.00    +0.180 C 
ATOM      6  C   UNL     1       4.758  -0.613  26.716  0.00  0.00    +0.177 C 
ENDROOT
BRANCH   5   7
ATOM      7  O   UNL     1       4.019   1.336  27.972  0.00  0.00    -0.386 OA
ATOM      8  H   UNL     1       3.426   0.608  28.229  0.00  0.00    +0.210 HD
ENDBRANCH   5   7
BRANCH   6   9
ATOM      9  O   UNL     1       3.573  -0.649  25.901  0.00  0.00    -0.386 OA
ATOM     10  H   UNL     1       3.818  -0.971  25.012  0.00  0.00    +0.210 HD
ENDBRANCH   6   9
BRANCH   4  11
ATOM     11  O   UNL     1       4.268   2.000  25.039  0.00  0.00    -0.337 OA
BRANCH  11  12
ATOM     12  C   UNL     1       3.502   3.218  25.261  0.00  0.00    +0.282 C 
ATOM     13  O   UNL     1       2.171   3.045  24.707  0.00  0.00    -0.341 OA
ATOM     14  C   UNL     1       2.098   3.015  23.268  0.00  0.00    +0.178 C 
ATOM     15  C   UNL     1       2.767   4.236  22.596  0.00  0.00    +0.177 C 
ATOM     16  C   UNL     1       4.164   4.467  23.166  0.00  0.00    +0.179 C 
ATOM     17  C   UNL     1       4.086   4.547  24.692  0.00  0.00    +0.201 C 
BRANCH  17  18
ATOM     18  O   UNL     1       5.351   4.955  25.214  0.00  0.00    -0.384 OA
ATOM     19  H   UNL     1       5.529   4.428  26.012  0.00  0.00    +0.210 HD
ENDBRANCH  17  18
BRANCH  16  20
ATOM     20  O   UNL     1       5.086   3.457  22.748  0.00  0.00    -0.386 OA
ATOM     21  H   UNL     1       5.993   3.825  22.813  0.00  0.00    +0.210 HD
ENDBRANCH  16  20
BRANCH  15  22
ATOM     22  O   UNL     1       1.976   5.416  22.798  0.00  0.00    -0.386 OA
ATOM     23  H   UNL     1       1.559   5.665  21.953  0.00  0.00    +0.210 HD
ENDBRANCH  15  22
BRANCH  14  24
ATOM     24  C   UNL     1       0.618   2.929  22.836  0.00  0.00    +0.190 C 
BRANCH  24  25
ATOM     25  O   UNL     1       0.443   2.304  21.564  0.00  0.00    -0.392 OA
ATOM     26  H   UNL     1      -0.396   2.620  21.189  0.00  0.00    +0.210 HD
ENDBRANCH  24  25
ENDBRANCH  14  24
ENDBRANCH  11  12
ENDBRANCH   4  11
BRANCH   3  27
ATOM     27  O   UNL     1       6.910   1.861  23.978  0.00  0.00    -0.453 OA
BRANCH  27  28
ATOM     28  C   UNL     1       8.194   2.362  23.689  0.00  0.00    +0.214 A 
ATOM     29  C   UNL     1       8.486   3.838  23.556  0.00  0.00    +0.238 A 
ATOM     30  O   UNL     1       7.595   4.667  23.363  0.00  0.00    -0.283 OA
ATOM     31  C   UNL     1       9.907   4.271  23.573  0.00  0.00    +0.109 A 
ATOM     32  C   UNL     1      10.855   3.307  23.281  0.00  0.00    +0.147 A 
ATOM     33  C   UNL     1      12.220   3.595  23.204  0.00  0.00    +0.092 A 
ATOM     34  C   UNL     1      12.644   4.889  23.446  0.00  0.00    +0.124 A 
ATOM     35  C   UNL     1      11.718   5.882  23.756  0.00  0.00    +0.091 A 
ATOM     36  O   UNL     1      10.509   2.027  23.034  0.00  0.00    -0.451 OA
ATOM     37  C   UNL     1      10.349   5.576  23.808  0.00  0.00    +0.135 A 
ATOM     38  C   UNL     1       9.269   1.559  23.433  0.00  0.00    +0.181 A 
BRANCH  38  39
ATOM     39  C   UNL     1       9.370   0.075  23.362  0.00  0.00    +0.025 A 
ATOM     40  C   UNL     1       9.967  -0.648  24.384  0.00  0.00    +0.015 A 
ATOM     41  C   UNL     1       9.805  -2.033  24.470  0.00  0.00    +0.050 A 
ATOM     42  C   UNL     1       8.942  -2.687  23.597  0.00  0.00    +0.158 A 
ATOM     43  C   UNL     1       8.298  -1.987  22.584  0.00  0.00    +0.159 A 
ATOM     44  C   UNL     1       8.556  -0.628  22.433  0.00  0.00    +0.060 A 
BRANCH  42  45
ATOM     45  O   UNL     1       8.679  -4.002  23.850  0.00  0.00    -0.503 OA
ATOM     46  H   UNL     1       8.217  -4.322  23.052  0.00  0.00    +0.292 HD
ENDBRANCH  42  45
BRANCH  43  47
ATOM     47  O   UNL     1       7.355  -2.641  21.836  0.00  0.00    -0.503 OA
ATOM     48  H   UNL     1       6.661  -2.987  22.423  0.00  0.00    +0.292 HD
ENDBRANCH  43  47
ENDBRANCH  38  39
BRANCH  37  49
ATOM     49  O   UNL     1       9.464   6.566  24.124  0.00  0.00    -0.506 OA
ATOM     50  H   UNL     1       8.739   6.566  23.480  0.00  0.00    +0.292 HD
ENDBRANCH  37  49
BRANCH  34  51
ATOM     51  O   UNL     1      13.962   5.223  23.393  0.00  0.00    -0.507 OA
ATOM     52  H   UNL     1      14.052   6.176  23.229  0.00  0.00    +0.292 HD
ENDBRANCH  34  51
ENDBRANCH  27  28
ENDBRANCH   3  27
BRANCH   1  53
ATOM     53  C   UNL     1       6.901  -2.102  26.823  0.00  0.00    +0.197 C 
BRANCH  53  54
ATOM     54  O   UNL     1       6.934  -3.529  26.608  0.00  0.00    -0.346 OA
BRANCH  54  58
ATOM     55  C   UNL     1       3.877  -4.550  29.747  0.00  0.00    +0.041 C 
ATOM     56  C   UNL     1       5.075  -5.384  29.290  0.00  0.00    +0.149 C 
ATOM     57  O   UNL     1       6.066  -4.588  28.595  0.00  0.00    -0.343 OA
ATOM     58  C   UNL     1       5.784  -4.218  27.231  0.00  0.00    +0.282 C 
ATOM     59  C   UNL     1       5.409  -5.480  26.400  0.00  0.00    +0.201 C 
ATOM     60  C   UNL     1       4.253  -6.247  27.069  0.00  0.00    +0.179 C 
ATOM     61  C   UNL     1       4.622  -6.637  28.504  0.00  0.00    +0.174 C 
BRANCH  59  62
ATOM     62  O   UNL     1       6.536  -6.384  26.309  0.00  0.00    -0.384 OA
ATOM     63  H   UNL     1       6.168  -7.283  26.387  0.00  0.00    +0.210 HD
ENDBRANCH  59  62
BRANCH  60  64
ATOM     64  O   UNL     1       3.949  -7.435  26.323  0.00  0.00    -0.386 OA
ATOM     65  H   UNL     1       4.110  -7.201  25.386  0.00  0.00    +0.210 HD
ENDBRANCH  60  64
BRANCH  61  66
ATOM     66  O   UNL     1       5.654  -7.616  28.495  0.00  0.00    -0.387 OA
ATOM     67  H   UNL     1       5.217  -8.474  28.319  0.00  0.00    +0.210 HD
ENDBRANCH  61  66
ENDBRANCH  54  58
ENDBRANCH  53  54
ENDBRANCH   1  53
TORSDOF 22
ENDMDL
MODEL 6
REMARK VINA RESULT:      -7.0      1.857      2.354
REMARK  Name = 
REMARK  23 active torsions:
REMARK  status: ('A' for Active; 'I' for Inactive)
REMARK    1  A    between atoms: C_1  and  C_2
REMARK    2  A    between atoms: C_3  and  O_63
REMARK    3  A    between atoms: C_5  and  O_62
REMARK    4  A    between atoms: C_6  and  O_61
REMARK    5  A    between atoms: C_8  and  O_11
REMARK    6  A    between atoms: O_11  and  C_12
REMARK    7  A    between atoms: C_12  and  C_13
REMARK    8  A    between atoms: C_14  and  O_60
REMARK    9  A    between atoms: C_16  and  O_59
REMARK   10  A    between atoms: C_18  and  O_44
REMARK   11  A    between atoms: C_19  and  O_22
REMARK   12  A    between atoms: O_22  and  C_23
REMARK   13  A    between atoms: C_24  and  C_36
REMARK   14  A    between atoms: C_28  and  O_35
REMARK   15  A    between atoms: C_30  and  O_34
REMARK   16  A    between atoms: C_38  and  O_43
REMARK   17  A    between atoms: C_39  and  O_42
REMARK   18  A    between atoms: O_44  and  C_45
REMARK   19  A    between atoms: C_47  and  O_58
REMARK   20  A    between atoms: C_48  and  O_57
REMARK   21  A    between atoms: C_50  and  O_56
REMARK   22  A    between atoms: C_52  and  C_54
REMARK   23  A    between atoms: C_54  and  O_55
REMARK                            x       y       z     vdW  Elec       q    Type
REMARK                         _______ _______ _______ _____ _____    ______ ____
ROOT
ATOM      1  C   UNL     1       4.866  -0.707  26.461  0.00  0.00    +0.179 C 
ATOM      2  O   UNL     1       5.335   0.051  25.318  0.00  0.00    -0.331 OA
ATOM      3  C   UNL     1       6.591   0.754  25.360  0.00  0.00    +0.340 C 
ATOM      4  C   UNL     1       6.876   1.486  26.739  0.00  0.00    +0.221 C 
ATOM      5  C   UNL     1       6.607   0.447  27.854  0.00  0.00    +0.180 C 
ATOM      6  C   UNL     1       5.172  -0.067  27.816  0.00  0.00    +0.177 C 
ENDROOT
BRANCH   5   7
ATOM      7  O   UNL     1       6.939   0.943  29.150  0.00  0.00    -0.386 OA
ATOM      8  H   UNL     1       6.608   1.855  29.234  0.00  0.00    +0.210 HD
ENDBRANCH   5   7
BRANCH   6   9
ATOM      9  O   UNL     1       4.244   1.002  28.071  0.00  0.00    -0.386 OA
ATOM     10  H   UNL     1       3.386   0.613  28.331  0.00  0.00    +0.210 HD
ENDBRANCH   6   9
BRANCH   4  11
ATOM     11  O   UNL     1       6.171   2.757  26.864  0.00  0.00    -0.337 OA
BRANCH  11  12
ATOM     12  C   UNL     1       6.519   3.607  27.994  0.00  0.00    +0.282 C 
ATOM     13  O   UNL     1       5.424   3.596  28.947  0.00  0.00    -0.341 OA
ATOM     14  C   UNL     1       4.231   4.286  28.529  0.00  0.00    +0.178 C 
ATOM     15  C   UNL     1       4.491   5.743  28.082  0.00  0.00    +0.177 C 
ATOM     16  C   UNL     1       5.652   5.804  27.092  0.00  0.00    +0.179 C 
ATOM     17  C   UNL     1       6.870   5.096  27.690  0.00  0.00    +0.201 C 
BRANCH  17  18
ATOM     18  O   UNL     1       8.008   5.318  26.856  0.00  0.00    -0.384 OA
ATOM     19  H   UNL     1       7.821   4.926  25.986  0.00  0.00    +0.210 HD
ENDBRANCH  17  18
BRANCH  16  20
ATOM     20  O   UNL     1       5.302   5.246  25.822  0.00  0.00    -0.386 OA
ATOM     21  H   UNL     1       4.347   5.411  25.667  0.00  0.00    +0.210 HD
ENDBRANCH  16  20
BRANCH  15  22
ATOM     22  O   UNL     1       4.797   6.569  29.215  0.00  0.00    -0.386 OA
ATOM     23  H   UNL     1       4.184   7.327  29.228  0.00  0.00    +0.210 HD
ENDBRANCH  15  22
BRANCH  14  24
ATOM     24  C   UNL     1       3.204   4.272  29.682  0.00  0.00    +0.190 C 
BRANCH  24  25
ATOM     25  O   UNL     1       2.542   3.015  29.825  0.00  0.00    -0.392 OA
ATOM     26  H   UNL     1       2.496   2.807  30.773  0.00  0.00    +0.210 HD
ENDBRANCH  24  25
ENDBRANCH  14  24
ENDBRANCH  11  12
ENDBRANCH   4  11
BRANCH   3  27
ATOM     27  O   UNL     1       6.710   1.732  24.261  0.00  0.00    -0.453 OA
BRANCH  27  28
ATOM     28  C   UNL     1       7.946   2.319  23.926  0.00  0.00    +0.214 A 
ATOM     29  C   UNL     1       8.149   3.814  23.852  0.00  0.00    +0.238 A 
ATOM     30  O   UNL     1       7.204   4.598  23.749  0.00  0.00    -0.283 OA
ATOM     31  C   UNL     1       9.542   4.327  23.812  0.00  0.00    +0.109 A 
ATOM     32  C   UNL     1      10.524   3.434  23.421  0.00  0.00    +0.147 A 
ATOM     33  C   UNL     1      11.864   3.804  23.283  0.00  0.00    +0.092 A 
ATOM     34  C   UNL     1      12.229   5.106  23.566  0.00  0.00    +0.124 A 
ATOM     35  C   UNL     1      11.270   6.029  23.975  0.00  0.00    +0.091 A 
ATOM     36  O   UNL     1      10.235   2.149  23.129  0.00  0.00    -0.451 OA
ATOM     37  C   UNL     1       9.926   5.642  24.088  0.00  0.00    +0.135 A 
ATOM     38  C   UNL     1       9.047   1.592  23.571  0.00  0.00    +0.181 A 
BRANCH  38  39
ATOM     39  C   UNL     1       9.225   0.122  23.421  0.00  0.00    +0.025 A 
ATOM     40  C   UNL     1       9.917  -0.614  24.373  0.00  0.00    +0.015 A 
ATOM     41  C   UNL     1       9.836  -2.008  24.398  0.00  0.00    +0.050 A 
ATOM     42  C   UNL     1       8.963  -2.668  23.540  0.00  0.00    +0.158 A 
ATOM     43  C   UNL     1       8.225  -1.959  22.599  0.00  0.00    +0.159 A 
ATOM     44  C   UNL     1       8.400  -0.583  22.503  0.00  0.00    +0.060 A 
BRANCH  42  45
ATOM     45  O   UNL     1       8.787  -4.007  23.740  0.00  0.00    -0.503 OA
ATOM     46  H   UNL     1       8.237  -4.069  24.544  0.00  0.00    +0.292 HD
ENDBRANCH  42  45
BRANCH  43  47
ATOM     47  O   UNL     1       7.280  -2.630  21.870  0.00  0.00    -0.503 OA
ATOM     48  H   UNL     1       6.668  -1.990  21.468  0.00  0.00    +0.292 HD
ENDBRANCH  43  47
ENDBRANCH  38  39
BRANCH  37  49
ATOM     49  O   UNL     1       9.007   6.564  24.500  0.00  0.00    -0.506 OA
ATOM     50  H   UNL     1       8.114   6.224  24.337  0.00  0.00    +0.292 HD
ENDBRANCH  37  49
BRANCH  34  51
ATOM     51  O   UNL     1      13.522   5.517  23.458  0.00  0.00    -0.507 OA
ATOM     52  H   UNL     1      13.891   5.219  22.609  0.00  0.00    +0.292 HD
ENDBRANCH  34  51
ENDBRANCH  27  28
ENDBRANCH   3  27
BRANCH   1  53
ATOM     53  C   UNL     1       5.011  -2.285  26.446  0.00  0.00    +0.197 C 
BRANCH  53  54
ATOM     54  O   UNL     1       5.572  -2.935  25.286  0.00  0.00    -0.346 OA
BRANCH  54  58
ATOM     55  C   UNL     1       1.658  -5.007  24.491  0.00  0.00    +0.041 C 
ATOM     56  C   UNL     1       2.989  -5.633  24.911  0.00  0.00    +0.149 C 
ATOM     57  O   UNL     1       3.897  -4.661  25.484  0.00  0.00    -0.343 OA
ATOM     58  C   UNL     1       4.582  -3.774  24.578  0.00  0.00    +0.282 C 
ATOM     59  C   UNL     1       5.288  -4.594  23.457  0.00  0.00    +0.201 C 
ATOM     60  C   UNL     1       4.283  -5.523  22.750  0.00  0.00    +0.179 C 
ATOM     61  C   UNL     1       3.610  -6.459  23.759  0.00  0.00    +0.174 C 
BRANCH  59  62
ATOM     62  O   UNL     1       6.332  -5.427  24.016  0.00  0.00    -0.384 OA
ATOM     63  H   UNL     1       6.948  -5.614  23.283  0.00  0.00    +0.210 HD
ENDBRANCH  59  62
BRANCH  60  64
ATOM     64  O   UNL     1       4.953  -6.311  21.754  0.00  0.00    -0.386 OA
ATOM     65  H   UNL     1       5.587  -5.701  21.325  0.00  0.00    +0.210 HD
ENDBRANCH  60  64
BRANCH  61  66
ATOM     66  O   UNL     1       4.556  -7.389  24.271  0.00  0.00    -0.387 OA
ATOM     67  H   UNL     1       5.390  -7.228  23.785  0.00  0.00    +0.210 HD
ENDBRANCH  61  66
ENDBRANCH  54  58
ENDBRANCH  53  54
ENDBRANCH   1  53
TORSDOF 22
ENDMDL
MODEL 7
REMARK VINA RESULT:      -6.6      2.060      8.637
REMARK  Name = 
REMARK  23 active torsions:
REMARK  status: ('A' for Active; 'I' for Inactive)
REMARK    1  A    between atoms: C_1  and  C_2
REMARK    2  A    between atoms: C_3  and  O_63
REMARK    3  A    between atoms: C_5  and  O_62
REMARK    4  A    between atoms: C_6  and  O_61
REMARK    5  A    between atoms: C_8  and  O_11
REMARK    6  A    between atoms: O_11  and  C_12
REMARK    7  A    between atoms: C_12  and  C_13
REMARK    8  A    between atoms: C_14  and  O_60
REMARK    9  A    between atoms: C_16  and  O_59
REMARK   10  A    between atoms: C_18  and  O_44
REMARK   11  A    between atoms: C_19  and  O_22
REMARK   12  A    between atoms: O_22  and  C_23
REMARK   13  A    between atoms: C_24  and  C_36
REMARK   14  A    between atoms: C_28  and  O_35
REMARK   15  A    between atoms: C_30  and  O_34
REMARK   16  A    between atoms: C_38  and  O_43
REMARK   17  A    between atoms: C_39  and  O_42
REMARK   18  A    between atoms: O_44  and  C_45
REMARK   19  A    between atoms: C_47  and  O_58
REMARK   20  A    between atoms: C_48  and  O_57
REMARK   21  A    between atoms: C_50  and  O_56
REMARK   22  A    between atoms: C_52  and  C_54
REMARK   23  A    between atoms: C_54  and  O_55
REMARK                            x       y       z     vdW  Elec       q    Type
REMARK                         _______ _______ _______ _____ _____    ______ ____
ROOT
ATOM      1  C   UNL     1       8.632   0.446  22.255  0.00  0.00    +0.179 C 
ATOM      2  O   UNL     1       7.531   0.931  23.066  0.00  0.00    -0.331 OA
ATOM      3  C   UNL     1       7.467   0.641  24.475  0.00  0.00    +0.340 C 
ATOM      4  C   UNL     1       7.900  -0.839  24.852  0.00  0.00    +0.221 C 
ATOM      5  C   UNL     1       9.247  -1.100  24.135  0.00  0.00    +0.180 C 
ATOM      6  C   UNL     1       9.122  -0.954  22.621  0.00  0.00    +0.177 C 
ENDROOT
BRANCH   5   7
ATOM      7  O   UNL     1       9.812  -2.363  24.483  0.00  0.00    -0.386 OA
ATOM      8  H   UNL     1       9.199  -3.069  24.211  0.00  0.00    +0.210 HD
ENDBRANCH   5   7
BRANCH   6   9
ATOM      9  O   UNL     1       8.220  -1.942  22.092  0.00  0.00    -0.386 OA
ATOM     10  H   UNL     1       8.190  -2.698  22.710  0.00  0.00    +0.210 HD
ENDBRANCH   6   9
BRANCH   4  11
ATOM     11  O   UNL     1       6.846  -1.818  24.611  0.00  0.00    -0.337 OA
BRANCH  11  12
ATOM     12  C   UNL     1       6.354  -2.567  25.758  0.00  0.00    +0.282 C 
ATOM     13  O   UNL     1       7.387  -3.486  26.200  0.00  0.00    -0.341 OA
ATOM     14  C   UNL     1       7.644  -4.599  25.321  0.00  0.00    +0.178 C 
ATOM     15  C   UNL     1       6.373  -5.405  24.968  0.00  0.00    +0.177 C 
ATOM     16  C   UNL     1       5.251  -4.474  24.517  0.00  0.00    +0.179 C 
ATOM     17  C   UNL     1       5.039  -3.384  25.571  0.00  0.00    +0.201 C 
BRANCH  17  18
ATOM     18  O   UNL     1       3.869  -2.631  25.250  0.00  0.00    -0.384 OA
ATOM     19  H   UNL     1       3.172  -3.259  24.991  0.00  0.00    +0.210 HD
ENDBRANCH  17  18
BRANCH  16  20
ATOM     20  O   UNL     1       5.512  -3.905  23.231  0.00  0.00    -0.386 OA
ATOM     21  H   UNL     1       5.935  -4.591  22.672  0.00  0.00    +0.210 HD
ENDBRANCH  16  20
BRANCH  15  22
ATOM     22  O   UNL     1       5.927  -6.162  26.103  0.00  0.00    -0.386 OA
ATOM     23  H   UNL     1       5.015  -5.896  26.321  0.00  0.00    +0.210 HD
ENDBRANCH  15  22
BRANCH  14  24
ATOM     24  C   UNL     1       8.688  -5.532  25.974  0.00  0.00    +0.190 C 
BRANCH  24  25
ATOM     25  O   UNL     1       9.802  -5.804  25.123  0.00  0.00    -0.392 OA
ATOM     26  H   UNL     1      10.553  -6.056  25.687  0.00  0.00    +0.210 HD
ENDBRANCH  24  25
ENDBRANCH  14  24
ENDBRANCH  11  12
ENDBRANCH   4  11
BRANCH   3  27
ATOM     27  O   UNL     1       6.124   0.906  25.029  0.00  0.00    -0.453 OA
BRANCH  27  28
ATOM     28  C   UNL     1       5.911   1.904  26.000  0.00  0.00    +0.214 A 
ATOM     29  C   UNL     1       6.431   1.797  27.413  0.00  0.00    +0.238 A 
ATOM     30  O   UNL     1       6.776   0.720  27.903  0.00  0.00    -0.283 OA
ATOM     31  C   UNL     1       6.434   3.024  28.251  0.00  0.00    +0.109 A 
ATOM     32  C   UNL     1       5.594   4.049  27.855  0.00  0.00    +0.147 A 
ATOM     33  C   UNL     1       5.456   5.232  28.586  0.00  0.00    +0.092 A 
ATOM     34  C   UNL     1       6.200   5.393  29.740  0.00  0.00    +0.124 A 
ATOM     35  C   UNL     1       7.067   4.388  30.160  0.00  0.00    +0.091 A 
ATOM     36  O   UNL     1       4.839   3.955  26.741  0.00  0.00    -0.451 OA
ATOM     37  C   UNL     1       7.175   3.199  29.422  0.00  0.00    +0.135 A 
ATOM     38  C   UNL     1       5.157   3.021  25.770  0.00  0.00    +0.181 A 
BRANCH  38  39
ATOM     39  C   UNL     1       4.396   3.440  24.561  0.00  0.00    +0.025 A 
ATOM     40  C   UNL     1       5.055   3.816  23.400  0.00  0.00    +0.015 A 
ATOM     41  C   UNL     1       4.367   3.922  22.189  0.00  0.00    +0.050 A 
ATOM     42  C   UNL     1       3.034   3.533  22.111  0.00  0.00    +0.158 A 
ATOM     43  C   UNL     1       2.352   3.114  23.248  0.00  0.00    +0.159 A 
ATOM     44  C   UNL     1       3.013   3.123  24.472  0.00  0.00    +0.060 A 
BRANCH  42  45
ATOM     45  O   UNL     1       2.472   3.478  20.868  0.00  0.00    -0.503 OA
ATOM     46  H   UNL     1       1.628   3.008  20.996  0.00  0.00    +0.292 HD
ENDBRANCH  42  45
BRANCH  43  47
ATOM     47  O   UNL     1       1.087   2.611  23.102  0.00  0.00    -0.503 OA
ATOM     48  H   UNL     1       0.512   2.978  23.796  0.00  0.00    +0.292 HD
ENDBRANCH  43  47
ENDBRANCH  38  39
BRANCH  37  49
ATOM     49  O   UNL     1       8.039   2.233  29.852  0.00  0.00    -0.506 OA
ATOM     50  H   UNL     1       7.973   1.461  29.269  0.00  0.00    +0.292 HD
ENDBRANCH  37  49
BRANCH  34  51
ATOM     51  O   UNL     1       6.112   6.529  30.485  0.00  0.00    -0.507 OA
ATOM     52  H   UNL     1       5.396   6.438  31.136  0.00  0.00    +0.292 HD
ENDBRANCH  34  51
ENDBRANCH  27  28
ENDBRANCH   3  27
BRANCH   1  53
ATOM     53  C   UNL     1       9.790   1.452  21.857  0.00  0.00    +0.197 C 
BRANCH  53  54
ATOM     54  O   UNL     1      10.848   1.726  22.799  0.00  0.00    -0.346 OA
BRANCH  54  58
ATOM     55  C   UNL     1       8.427   4.445  25.444  0.00  0.00    +0.041 C 
ATOM     56  C   UNL     1       8.901   4.698  24.011  0.00  0.00    +0.149 C 
ATOM     57  O   UNL     1       9.271   3.474  23.330  0.00  0.00    -0.343 OA
ATOM     58  C   UNL     1      10.543   2.886  23.664  0.00  0.00    +0.282 C 
ATOM     59  C   UNL     1      11.675   3.949  23.541  0.00  0.00    +0.201 C 
ATOM     60  C   UNL     1      11.344   5.193  24.386  0.00  0.00    +0.179 C 
ATOM     61  C   UNL     1       9.996   5.790  23.966  0.00  0.00    +0.174 C 
BRANCH  59  62
ATOM     62  O   UNL     1      11.819   4.381  22.166  0.00  0.00    -0.384 OA
ATOM     63  H   UNL     1      11.746   5.354  22.181  0.00  0.00    +0.210 HD
ENDBRANCH  59  62
BRANCH  60  64
ATOM     64  O   UNL     1      12.367   6.188  24.224  0.00  0.00    -0.386 OA
ATOM     65  H   UNL     1      12.208   6.583  23.343  0.00  0.00    +0.210 HD
ENDBRANCH  60  64
BRANCH  61  66
ATOM     66  O   UNL     1      10.091   6.342  22.659  0.00  0.00    -0.387 OA
ATOM     67  H   UNL     1       9.182   6.350  22.297  0.00  0.00    +0.210 HD
ENDBRANCH  61  66
ENDBRANCH  54  58
ENDBRANCH  53  54
ENDBRANCH   1  53
TORSDOF 22
ENDMDL
MODEL 8
REMARK VINA RESULT:      -6.5      2.497      8.436
REMARK  Name = 
REMARK  23 active torsions:
REMARK  status: ('A' for Active; 'I' for Inactive)
REMARK    1  A    between atoms: C_1  and  C_2
REMARK    2  A    between atoms: C_3  and  O_63
REMARK    3  A    between atoms: C_5  and  O_62
REMARK    4  A    between atoms: C_6  and  O_61
REMARK    5  A    between atoms: C_8  and  O_11
REMARK    6  A    between atoms: O_11  and  C_12
REMARK    7  A    between atoms: C_12  and  C_13
REMARK    8  A    between atoms: C_14  and  O_60
REMARK    9  A    between atoms: C_16  and  O_59
REMARK   10  A    between atoms: C_18  and  O_44
REMARK   11  A    between atoms: C_19  and  O_22
REMARK   12  A    between atoms: O_22  and  C_23
REMARK   13  A    between atoms: C_24  and  C_36
REMARK   14  A    between atoms: C_28  and  O_35
REMARK   15  A    between atoms: C_30  and  O_34
REMARK   16  A    between atoms: C_38  and  O_43
REMARK   17  A    between atoms: C_39  and  O_42
REMARK   18  A    between atoms: O_44  and  C_45
REMARK   19  A    between atoms: C_47  and  O_58
REMARK   20  A    between atoms: C_48  and  O_57
REMARK   21  A    between atoms: C_50  and  O_56
REMARK   22  A    between atoms: C_52  and  C_54
REMARK   23  A    between atoms: C_54  and  O_55
REMARK                            x       y       z     vdW  Elec       q    Type
REMARK                         _______ _______ _______ _____ _____    ______ ____
ROOT
ATOM      1  C   UNL     1       7.925  -1.884  22.649  0.00  0.00    +0.179 C 
ATOM      2  O   UNL     1       6.849  -1.511  23.547  0.00  0.00    -0.331 OA
ATOM      3  C   UNL     1       6.702  -2.147  24.830  0.00  0.00    +0.340 C 
ATOM      4  C   UNL     1       6.969  -3.712  24.811  0.00  0.00    +0.221 C 
ATOM      5  C   UNL     1       8.309  -3.921  24.064  0.00  0.00    +0.180 C 
ATOM      6  C   UNL     1       8.257  -3.376  22.641  0.00  0.00    +0.177 C 
ENDROOT
BRANCH   5   7
ATOM      7  O   UNL     1       8.730  -5.285  24.076  0.00  0.00    -0.386 OA
ATOM      8  H   UNL     1       7.955  -5.853  24.233  0.00  0.00    +0.210 HD
ENDBRANCH   5   7
BRANCH   6   9
ATOM      9  O   UNL     1       7.281  -4.089  21.862  0.00  0.00    -0.386 OA
ATOM     10  H   UNL     1       6.574  -3.465  21.604  0.00  0.00    +0.210 HD
ENDBRANCH   6   9
BRANCH   4  11
ATOM     11  O   UNL     1       5.831  -4.477  24.311  0.00  0.00    -0.337 OA
BRANCH  11  12
ATOM     12  C   UNL     1       4.622  -4.484  25.122  0.00  0.00    +0.282 C 
ATOM     13  O   UNL     1       4.970  -4.849  26.483  0.00  0.00    -0.341 OA
ATOM     14  C   UNL     1       5.356  -6.224  26.676  0.00  0.00    +0.178 C 
ATOM     15  C   UNL     1       4.318  -7.233  26.135  0.00  0.00    +0.177 C 
ATOM     16  C   UNL     1       3.908  -6.873  24.709  0.00  0.00    +0.179 C 
ATOM     17  C   UNL     1       3.456  -5.412  24.662  0.00  0.00    +0.201 C 
BRANCH  17  18
ATOM     18  O   UNL     1       2.891  -5.128  23.382  0.00  0.00    -0.384 OA
ATOM     19  H   UNL     1       2.545  -4.219  23.403  0.00  0.00    +0.210 HD
ENDBRANCH  17  18
BRANCH  16  20
ATOM     20  O   UNL     1       4.959  -7.119  23.771  0.00  0.00    -0.386 OA
ATOM     21  H   UNL     1       4.862  -8.036  23.436  0.00  0.00    +0.210 HD
ENDBRANCH  16  20
BRANCH  15  22
ATOM     22  O   UNL     1       3.151  -7.249  26.969  0.00  0.00    -0.386 OA
ATOM     23  H   UNL     1       2.595  -8.010  26.720  0.00  0.00    +0.210 HD
ENDBRANCH  15  22
BRANCH  14  24
ATOM     24  C   UNL     1       5.594  -6.479  28.181  0.00  0.00    +0.190 C 
BRANCH  24  25
ATOM     25  O   UNL     1       5.714  -7.865  28.500  0.00  0.00    -0.392 OA
ATOM     26  H   UNL     1       5.602  -7.961  29.461  0.00  0.00    +0.210 HD
ENDBRANCH  24  25
ENDBRANCH  14  24
ENDBRANCH  11  12
ENDBRANCH   4  11
BRANCH   3  27
ATOM     27  O   UNL     1       5.373  -1.893  25.421  0.00  0.00    -0.453 OA
BRANCH  27  28
ATOM     28  C   UNL     1       5.199  -0.981  26.480  0.00  0.00    +0.214 A 
ATOM     29  C   UNL     1       6.205   0.097  26.807  0.00  0.00    +0.238 A 
ATOM     30  O   UNL     1       7.368   0.050  26.404  0.00  0.00    -0.283 OA
ATOM     31  C   UNL     1       5.783   1.191  27.718  0.00  0.00    +0.109 A 
ATOM     32  C   UNL     1       4.688   0.941  28.526  0.00  0.00    +0.147 A 
ATOM     33  C   UNL     1       4.225   1.862  29.469  0.00  0.00    +0.092 A 
ATOM     34  C   UNL     1       4.872   3.077  29.589  0.00  0.00    +0.124 A 
ATOM     35  C   UNL     1       5.969   3.369  28.783  0.00  0.00    +0.091 A 
ATOM     36  O   UNL     1       4.012  -0.225  28.461  0.00  0.00    -0.451 OA
ATOM     37  C   UNL     1       6.431   2.422  27.855  0.00  0.00    +0.135 A 
ATOM     38  C   UNL     1       4.144  -1.036  27.347  0.00  0.00    +0.181 A 
BRANCH  38  39
ATOM     39  C   UNL     1       3.010  -1.998  27.429  0.00  0.00    +0.025 A 
ATOM     40  C   UNL     1       2.115  -2.136  26.378  0.00  0.00    +0.015 A 
ATOM     41  C   UNL     1       1.242  -3.224  26.320  0.00  0.00    +0.050 A 
ATOM     42  C   UNL     1       1.345  -4.248  27.256  0.00  0.00    +0.158 A 
ATOM     43  C   UNL     1       2.258  -4.161  28.301  0.00  0.00    +0.159 A 
ATOM     44  C   UNL     1       3.042  -3.019  28.418  0.00  0.00    +0.060 A 
BRANCH  42  45
ATOM     45  O   UNL     1       0.599  -5.370  27.036  0.00  0.00    -0.503 OA
ATOM     46  H   UNL     1       0.983  -6.044  27.627  0.00  0.00    +0.292 HD
ENDBRANCH  42  45
BRANCH  43  47
ATOM     47  O   UNL     1       2.421  -5.248  29.117  0.00  0.00    -0.503 OA
ATOM     48  H   UNL     1       2.637  -4.948  30.016  0.00  0.00    +0.292 HD
ENDBRANCH  43  47
ENDBRANCH  38  39
BRANCH  37  49
ATOM     49  O   UNL     1       7.503   2.737  27.070  0.00  0.00    -0.506 OA
ATOM     50  H   UNL     1       7.788   3.643  27.264  0.00  0.00    +0.292 HD
ENDBRANCH  37  49
BRANCH  34  51
ATOM     51  O   UNL     1       4.458   4.015  30.485  0.00  0.00    -0.507 OA
ATOM     52  H   UNL     1       4.592   3.685  31.389  0.00  0.00    +0.292 HD
ENDBRANCH  34  51
ENDBRANCH  27  28
ENDBRANCH   3  27
BRANCH   1  53
ATOM     53  C   UNL     1       9.193  -0.940  22.540  0.00  0.00    +0.197 C 
BRANCH  53  54
ATOM     54  O   UNL     1       9.273   0.020  21.465  0.00  0.00    -0.346 OA
BRANCH  54  58
ATOM     55  C   UNL     1      10.372   3.747  23.736  0.00  0.00    +0.041 C 
ATOM     56  C   UNL     1       9.209   2.788  24.001  0.00  0.00    +0.149 C 
ATOM     57  O   UNL     1       9.404   1.500  23.368  0.00  0.00    -0.343 OA
ATOM     58  C   UNL     1       9.171   1.414  21.948  0.00  0.00    +0.282 C 
ATOM     59  C   UNL     1       7.768   1.994  21.599  0.00  0.00    +0.201 C 
ATOM     60  C   UNL     1       7.620   3.424  22.151  0.00  0.00    +0.179 C 
ATOM     61  C   UNL     1       7.850   3.447  23.665  0.00  0.00    +0.174 C 
BRANCH  59  62
ATOM     62  O   UNL     1       6.722   1.188  22.192  0.00  0.00    -0.384 OA
ATOM     63  H   UNL     1       5.910   1.726  22.149  0.00  0.00    +0.210 HD
ENDBRANCH  59  62
BRANCH  60  64
ATOM     64  O   UNL     1       6.306   3.930  21.868  0.00  0.00    -0.386 OA
ATOM     65  H   UNL     1       6.005   3.441  21.076  0.00  0.00    +0.210 HD
ENDBRANCH  60  64
BRANCH  61  66
ATOM     66  O   UNL     1       6.793   2.767  24.331  0.00  0.00    -0.387 OA
ATOM     67  H   UNL     1       7.202   2.290  25.081  0.00  0.00    +0.210 HD
ENDBRANCH  61  66
ENDBRANCH  54  58
ENDBRANCH  53  54
ENDBRANCH   1  53
TORSDOF 22
ENDMDL
MODEL 9
REMARK VINA RESULT:      -6.5      2.156      7.175
REMARK  Name = 
REMARK  23 active torsions:
REMARK  status: ('A' for Active; 'I' for Inactive)
REMARK    1  A    between atoms: C_1  and  C_2
REMARK    2  A    between atoms: C_3  and  O_63
REMARK    3  A    between atoms: C_5  and  O_62
REMARK    4  A    between atoms: C_6  and  O_61
REMARK    5  A    between atoms: C_8  and  O_11
REMARK    6  A    between atoms: O_11  and  C_12
REMARK    7  A    between atoms: C_12  and  C_13
REMARK    8  A    between atoms: C_14  and  O_60
REMARK    9  A    between atoms: C_16  and  O_59
REMARK   10  A    between atoms: C_18  and  O_44
REMARK   11  A    between atoms: C_19  and  O_22
REMARK   12  A    between atoms: O_22  and  C_23
REMARK   13  A    between atoms: C_24  and  C_36
REMARK   14  A    between atoms: C_28  and  O_35
REMARK   15  A    between atoms: C_30  and  O_34
REMARK   16  A    between atoms: C_38  and  O_43
REMARK   17  A    between atoms: C_39  and  O_42
REMARK   18  A    between atoms: O_44  and  C_45
REMARK   19  A    between atoms: C_47  and  O_58
REMARK   20  A    between atoms: C_48  and  O_57
REMARK   21  A    between atoms: C_50  and  O_56
REMARK   22  A    between atoms: C_52  and  C_54
REMARK   23  A    between atoms: C_54  and  O_55
REMARK                            x       y       z     vdW  Elec       q    Type
REMARK                         _______ _______ _______ _____ _____    ______ ____
ROOT
ATOM      1  C   UNL     1       6.114  -4.470  25.191  0.00  0.00    +0.179 C 
ATOM      2  O   UNL     1       6.126  -3.148  25.787  0.00  0.00    -0.331 OA
ATOM      3  C   UNL     1       5.511  -2.031  25.119  0.00  0.00    +0.340 C 
ATOM      4  C   UNL     1       5.756  -1.998  23.551  0.00  0.00    +0.221 C 
ATOM      5  C   UNL     1       5.418  -3.414  23.023  0.00  0.00    +0.180 C 
ATOM      6  C   UNL     1       6.289  -4.485  23.673  0.00  0.00    +0.177 C 
ENDROOT
BRANCH   5   7
ATOM      7  O   UNL     1       5.485  -3.492  21.600  0.00  0.00    -0.386 OA
ATOM      8  H   UNL     1       4.591  -3.652  21.250  0.00  0.00    +0.210 HD
ENDBRANCH   5   7
BRANCH   6   9
ATOM      9  O   UNL     1       7.673  -4.282  23.338  0.00  0.00    -0.386 OA
ATOM     10  H   UNL     1       8.087  -5.155  23.188  0.00  0.00    +0.210 HD
ENDBRANCH   6   9
BRANCH   4  11
ATOM     11  O   UNL     1       7.071  -1.478  23.192  0.00  0.00    -0.337 OA
BRANCH  11  12
ATOM     12  C   UNL     1       7.840  -0.824  24.241  0.00  0.00    +0.282 C 
ATOM     13  O   UNL     1       8.123   0.541  23.838  0.00  0.00    -0.341 OA
ATOM     14  C   UNL     1       9.073   0.686  22.764  0.00  0.00    +0.178 C 
ATOM     15  C   UNL     1      10.409  -0.047  23.026  0.00  0.00    +0.177 C 
ATOM     16  C   UNL     1      10.157  -1.484  23.474  0.00  0.00    +0.179 C 
ATOM     17  C   UNL     1       9.189  -1.486  24.660  0.00  0.00    +0.201 C 
BRANCH  17  18
ATOM     18  O   UNL     1       9.103  -2.804  25.203  0.00  0.00    -0.384 OA
ATOM     19  H   UNL     1       9.636  -2.826  26.017  0.00  0.00    +0.210 HD
ENDBRANCH  17  18
BRANCH  16  20
ATOM     20  O   UNL     1       9.667  -2.300  22.407  0.00  0.00    -0.386 OA
ATOM     21  H   UNL     1       9.716  -3.238  22.691  0.00  0.00    +0.210 HD
ENDBRANCH  16  20
BRANCH  15  22
ATOM     22  O   UNL     1      11.165   0.635  24.037  0.00  0.00    -0.386 OA
ATOM     23  H   UNL     1      11.847   0.030  24.383  0.00  0.00    +0.210 HD
ENDBRANCH  15  22
BRANCH  14  24
ATOM     24  C   UNL     1       9.342   2.187  22.521  0.00  0.00    +0.190 C 
BRANCH  24  25
ATOM     25  O   UNL     1      10.424   2.422  21.620  0.00  0.00    -0.392 OA
ATOM     26  H   UNL     1      10.921   3.192  21.944  0.00  0.00    +0.210 HD
ENDBRANCH  24  25
ENDBRANCH  14  24
ENDBRANCH  11  12
ENDBRANCH   4  11
BRANCH   3  27
ATOM     27  O   UNL     1       5.936  -0.742  25.700  0.00  0.00    -0.453 OA
BRANCH  27  28
ATOM     28  C   UNL     1       5.014   0.136  26.303  0.00  0.00    +0.214 A 
ATOM     29  C   UNL     1       4.048  -0.302  27.378  0.00  0.00    +0.238 A 
ATOM     30  O   UNL     1       3.770  -1.488  27.564  0.00  0.00    -0.283 OA
ATOM     31  C   UNL     1       3.355   0.751  28.164  0.00  0.00    +0.109 A 
ATOM     32  C   UNL     1       3.303   2.014  27.601  0.00  0.00    +0.147 A 
ATOM     33  C   UNL     1       2.630   3.078  28.208  0.00  0.00    +0.092 A 
ATOM     34  C   UNL     1       2.008   2.869  29.424  0.00  0.00    +0.124 A 
ATOM     35  C   UNL     1       2.053   1.614  30.026  0.00  0.00    +0.091 A 
ATOM     36  O   UNL     1       3.887   2.285  26.416  0.00  0.00    -0.451 OA
ATOM     37  C   UNL     1       2.717   0.553  29.391  0.00  0.00    +0.135 A 
ATOM     38  C   UNL     1       4.862   1.439  25.919  0.00  0.00    +0.181 A 
BRANCH  38  39
ATOM     39  C   UNL     1       5.539   2.213  24.842  0.00  0.00    +0.025 A 
ATOM     40  C   UNL     1       5.095   2.146  23.529  0.00  0.00    +0.015 A 
ATOM     41  C   UNL     1       5.522   3.078  22.581  0.00  0.00    +0.050 A 
ATOM     42  C   UNL     1       6.306   4.158  22.972  0.00  0.00    +0.158 A 
ATOM     43  C   UNL     1       6.738   4.277  24.288  0.00  0.00    +0.159 A 
ATOM     44  C   UNL     1       6.405   3.282  25.200  0.00  0.00    +0.060 A 
BRANCH  42  45
ATOM     45  O   UNL     1       6.532   5.133  22.044  0.00  0.00    -0.503 OA
ATOM     46  H   UNL     1       6.182   4.768  21.209  0.00  0.00    +0.292 HD
ENDBRANCH  42  45
BRANCH  43  47
ATOM     47  O   UNL     1       7.390   5.423  24.659  0.00  0.00    -0.503 OA
ATOM     48  H   UNL     1       6.962   6.188  24.240  0.00  0.00    +0.292 HD
ENDBRANCH  43  47
ENDBRANCH  38  39
BRANCH  37  49
ATOM     49  O   UNL     1       2.754  -0.665  30.008  0.00  0.00    -0.506 OA
ATOM     50  H   UNL     1       2.082  -0.691  30.706  0.00  0.00    +0.292 HD
ENDBRANCH  37  49
BRANCH  34  51
ATOM     51  O   UNL     1       1.348   3.873  30.063  0.00  0.00    -0.507 OA
ATOM     52  H   UNL     1       0.856   3.511  30.819  0.00  0.00    +0.292 HD
ENDBRANCH  34  51
ENDBRANCH  27  28
ENDBRANCH   3  27
BRANCH   1  53
ATOM     53  C   UNL     1       5.083  -5.545  25.732  0.00  0.00    +0.197 C 
BRANCH  53  54
ATOM     54  O   UNL     1       4.812  -6.726  24.948  0.00  0.00    -0.346 OA
BRANCH  54  58
ATOM     55  C   UNL     1       0.786  -8.690  25.383  0.00  0.00    +0.041 C 
ATOM     56  C   UNL     1       1.705  -8.681  24.159  0.00  0.00    +0.149 C 
ATOM     57  O   UNL     1       3.070  -8.336  24.500  0.00  0.00    -0.343 OA
ATOM     58  C   UNL     1       3.363  -6.947  24.749  0.00  0.00    +0.282 C 
ATOM     59  C   UNL     1       2.851  -6.071  23.568  0.00  0.00    +0.201 C 
ATOM     60  C   UNL     1       1.357  -6.336  23.304  0.00  0.00    +0.179 C 
ATOM     61  C   UNL     1       1.113  -7.821  23.018  0.00  0.00    +0.174 C 
BRANCH  59  62
ATOM     62  O   UNL     1       3.571  -6.385  22.352  0.00  0.00    -0.384 OA
ATOM     63  H   UNL     1       3.862  -5.531  21.983  0.00  0.00    +0.210 HD
ENDBRANCH  59  62
BRANCH  60  64
ATOM     64  O   UNL     1       0.908  -5.562  22.181  0.00  0.00    -0.386 OA
ATOM     65  H   UNL     1       1.706  -5.102  21.848  0.00  0.00    +0.210 HD
ENDBRANCH  60  64
BRANCH  61  66
ATOM     66  O   UNL     1       1.698  -8.182  21.772  0.00  0.00    -0.387 OA
ATOM     67  H   UNL     1       1.755  -7.358  21.247  0.00  0.00    +0.210 HD
ENDBRANCH  61  66
ENDBRANCH  54  58
ENDBRANCH  53  54
ENDBRANCH   1  53
TORSDOF 22
ENDMDL
