MODEL 1
REMARK VINA RESULT:      -7.7      0.000      0.000
REMARK  Name = 
REMARK  11 active torsions:
REMARK  status: ('A' for Active; 'I' for Inactive)
REMARK    1  A    between atoms: C_1  and  C_2
REMARK    2  A    between atoms: C_4  and  O_37
REMARK    3  A    between atoms: C_6  and  O_36
REMARK    4  A    between atoms: C_8  and  O_35
REMARK    5  A    between atoms: C_10  and  O_13
REMARK    6  A    between atoms: O_13  and  C_14
REMARK    7  A    between atoms: C_15  and  C_27
REMARK    8  A    between atoms: C_19  and  O_26
REMARK    9  A    between atoms: C_21  and  O_25
REMARK   10  A    between atoms: C_29  and  O_34
REMARK   11  A    between atoms: C_30  and  O_33
REMARK                            x       y       z     vdW  Elec       q    Type
REMARK                         _______ _______ _______ _____ _____    ______ ____
ROOT
ATOM      1  C   UNL     1       8.128  -2.687  25.053  0.00  0.00    +0.214 A 
ATOM      2  C   UNL     1       8.918  -1.460  25.396  0.00  0.00    +0.238 A 
ATOM      3  O   UNL     1       9.186  -1.157  26.557  0.00  0.00    -0.283 OA
ATOM      4  C   UNL     1       9.223  -0.517  24.321  0.00  0.00    +0.109 A 
ATOM      5  C   UNL     1       8.451  -0.608  23.167  0.00  0.00    +0.147 A 
ATOM      6  C   UNL     1       8.553   0.382  22.183  0.00  0.00    +0.092 A 
ATOM      7  C   UNL     1       9.438   1.442  22.369  0.00  0.00    +0.124 A 
ATOM      8  C   UNL     1      10.248   1.516  23.497  0.00  0.00    +0.091 A 
ATOM      9  O   UNL     1       7.553  -1.619  22.954  0.00  0.00    -0.451 OA
ATOM     10  C   UNL     1      10.145   0.529  24.471  0.00  0.00    +0.135 A 
ATOM     11  C   UNL     1       7.465  -2.670  23.873  0.00  0.00    +0.181 A 
ENDROOT
BRANCH  11  12
ATOM     12  C   UNL     1       6.483  -3.720  23.436  0.00  0.00    +0.025 A 
ATOM     13  C   UNL     1       5.099  -3.481  23.593  0.00  0.00    +0.015 A 
ATOM     14  C   UNL     1       4.138  -4.424  23.210  0.00  0.00    +0.050 A 
ATOM     15  C   UNL     1       4.548  -5.629  22.670  0.00  0.00    +0.158 A 
ATOM     16  C   UNL     1       5.901  -5.895  22.505  0.00  0.00    +0.159 A 
ATOM     17  C   UNL     1       6.865  -4.950  22.867  0.00  0.00    +0.060 A 
BRANCH  15  18
ATOM     18  O   UNL     1       3.614  -6.550  22.298  0.00  0.00    -0.503 OA
ATOM     19  H   UNL     1       3.712  -6.620  21.327  0.00  0.00    +0.292 HD
ENDBRANCH  15  18
BRANCH  16  20
ATOM     20  O   UNL     1       6.246  -7.113  21.982  0.00  0.00    -0.503 OA
ATOM     21  H   UNL     1       6.017  -7.794  22.639  0.00  0.00    +0.292 HD
ENDBRANCH  16  20
ENDBRANCH  11  12
BRANCH   7  22
ATOM     22  O   UNL     1       9.548   2.454  21.461  0.00  0.00    -0.507 OA
ATOM     23  H   UNL     1      10.384   2.925  21.604  0.00  0.00    +0.292 HD
ENDBRANCH   7  22
BRANCH  10  24
ATOM     24  O   UNL     1      10.969   0.588  25.560  0.00  0.00    -0.506 OA
ATOM     25  H   UNL     1      11.897   0.619  25.275  0.00  0.00    +0.292 HD
ENDBRANCH  10  24
BRANCH   1  26
ATOM     26  O   UNL     1       7.980  -3.737  25.951  0.00  0.00    -0.453 OA
BRANCH  26  30
ATOM     27  C   UNL     1       3.855  -2.912  27.076  0.00  0.00    +0.041 C 
ATOM     28  C   UNL     1       4.931  -3.503  27.991  0.00  0.00    +0.150 C 
ATOM     29  O   UNL     1       6.261  -3.250  27.527  0.00  0.00    -0.334 OA
ATOM     30  C   UNL     1       6.664  -4.069  26.417  0.00  0.00    +0.339 C 
ATOM     31  C   UNL     1       6.650  -5.565  26.807  0.00  0.00    +0.214 C 
ATOM     32  C   UNL     1       5.234  -5.953  27.257  0.00  0.00    +0.180 C 
ATOM     33  C   UNL     1       4.740  -4.987  28.355  0.00  0.00    +0.174 C 
BRANCH  31  34
ATOM     34  O   UNL     1       7.596  -5.852  27.851  0.00  0.00    -0.383 OA
ATOM     35  H   UNL     1       7.294  -5.371  28.645  0.00  0.00    +0.210 HD
ENDBRANCH  31  34
BRANCH  32  36
ATOM     36  O   UNL     1       4.363  -6.067  26.126  0.00  0.00    -0.386 OA
ATOM     37  H   UNL     1       3.890  -6.912  26.144  0.00  0.00    +0.210 HD
ENDBRANCH  32  36
BRANCH  33  38
ATOM     38  O   UNL     1       3.398  -5.283  28.737  0.00  0.00    -0.387 OA
ATOM     39  H   UNL     1       2.806  -4.808  28.128  0.00  0.00    +0.210 HD
ENDBRANCH  33  38
ENDBRANCH  26  30
ENDBRANCH   1  26
TORSDOF 10
ENDMDL
MODEL 2
REMARK VINA RESULT:      -7.6      1.825      2.611
REMARK  Name = 
REMARK  11 active torsions:
REMARK  status: ('A' for Active; 'I' for Inactive)
REMARK    1  A    between atoms: C_1  and  C_2
REMARK    2  A    between atoms: C_4  and  O_37
REMARK    3  A    between atoms: C_6  and  O_36
REMARK    4  A    between atoms: C_8  and  O_35
REMARK    5  A    between atoms: C_10  and  O_13
REMARK    6  A    between atoms: O_13  and  C_14
REMARK    7  A    between atoms: C_15  and  C_27
REMARK    8  A    between atoms: C_19  and  O_26
REMARK    9  A    between atoms: C_21  and  O_25
REMARK   10  A    between atoms: C_29  and  O_34
REMARK   11  A    between atoms: C_30  and  O_33
REMARK                            x       y       z     vdW  Elec       q    Type
REMARK                         _______ _______ _______ _____ _____    ______ ____
ROOT
ATOM      1  C   UNL     1       8.663  -1.240  23.539  0.00  0.00    +0.214 A 
ATOM      2  C   UNL     1       9.340   0.071  23.805  0.00  0.00    +0.238 A 
ATOM      3  O   UNL     1      10.239   0.188  24.634  0.00  0.00    -0.283 OA
ATOM      4  C   UNL     1       8.787   1.269  23.174  0.00  0.00    +0.109 A 
ATOM      5  C   UNL     1       7.479   1.187  22.707  0.00  0.00    +0.147 A 
ATOM      6  C   UNL     1       6.821   2.344  22.275  0.00  0.00    +0.092 A 
ATOM      7  C   UNL     1       7.492   3.565  22.309  0.00  0.00    +0.124 A 
ATOM      8  C   UNL     1       8.814   3.650  22.730  0.00  0.00    +0.091 A 
ATOM      9  O   UNL     1       6.775   0.013  22.677  0.00  0.00    -0.451 OA
ATOM     10  C   UNL     1       9.465   2.496  23.156  0.00  0.00    +0.135 A 
ATOM     11  C   UNL     1       7.410  -1.183  23.031  0.00  0.00    +0.181 A 
ENDROOT
BRANCH  11  12
ATOM     12  C   UNL     1       6.506  -2.371  22.866  0.00  0.00    +0.025 A 
ATOM     13  C   UNL     1       5.443  -2.564  23.778  0.00  0.00    +0.015 A 
ATOM     14  C   UNL     1       4.573  -3.655  23.679  0.00  0.00    +0.050 A 
ATOM     15  C   UNL     1       4.756  -4.579  22.667  0.00  0.00    +0.158 A 
ATOM     16  C   UNL     1       5.793  -4.419  21.756  0.00  0.00    +0.159 A 
ATOM     17  C   UNL     1       6.653  -3.321  21.837  0.00  0.00    +0.060 A 
BRANCH  15  18
ATOM     18  O   UNL     1       3.911  -5.644  22.569  0.00  0.00    -0.503 OA
ATOM     19  H   UNL     1       4.492  -6.427  22.645  0.00  0.00    +0.292 HD
ENDBRANCH  15  18
BRANCH  16  20
ATOM     20  O   UNL     1       5.935  -5.377  20.787  0.00  0.00    -0.503 OA
ATOM     21  H   UNL     1       6.108  -6.225  21.231  0.00  0.00    +0.292 HD
ENDBRANCH  16  20
ENDBRANCH  11  12
BRANCH   7  22
ATOM     22  O   UNL     1       6.886   4.728  21.938  0.00  0.00    -0.507 OA
ATOM     23  H   UNL     1       7.536   5.449  21.950  0.00  0.00    +0.292 HD
ENDBRANCH   7  22
BRANCH  10  24
ATOM     24  O   UNL     1      10.776   2.580  23.536  0.00  0.00    -0.506 OA
ATOM     25  H   UNL     1      11.301   1.910  23.069  0.00  0.00    +0.292 HD
ENDBRANCH  10  24
BRANCH   1  26
ATOM     26  O   UNL     1       9.238  -2.449  23.911  0.00  0.00    -0.453 OA
BRANCH  26  30
ATOM     27  C   UNL     1       6.446  -3.389  27.117  0.00  0.00    +0.041 C 
ATOM     28  C   UNL     1       7.939  -3.731  27.102  0.00  0.00    +0.150 C 
ATOM     29  O   UNL     1       8.685  -2.933  26.177  0.00  0.00    -0.334 OA
ATOM     30  C   UNL     1       8.519  -3.313  24.801  0.00  0.00    +0.339 C 
ATOM     31  C   UNL     1       9.006  -4.762  24.571  0.00  0.00    +0.214 C 
ATOM     32  C   UNL     1       8.208  -5.711  25.477  0.00  0.00    +0.180 C 
ATOM     33  C   UNL     1       8.268  -5.226  26.942  0.00  0.00    +0.174 C 
BRANCH  31  34
ATOM     34  O   UNL     1      10.414  -4.898  24.833  0.00  0.00    -0.383 OA
ATOM     35  H   UNL     1      10.726  -4.032  25.156  0.00  0.00    +0.210 HD
ENDBRANCH  31  34
BRANCH  32  36
ATOM     36  O   UNL     1       6.884  -5.897  24.963  0.00  0.00    -0.386 OA
ATOM     37  H   UNL     1       6.282  -5.229  25.323  0.00  0.00    +0.210 HD
ENDBRANCH  32  36
BRANCH  33  38
ATOM     38  O   UNL     1       7.472  -6.050  27.791  0.00  0.00    -0.387 OA
ATOM     39  H   UNL     1       6.833  -6.521  27.229  0.00  0.00    +0.210 HD
ENDBRANCH  33  38
ENDBRANCH  26  30
ENDBRANCH   1  26
TORSDOF 10
ENDMDL
MODEL 3
REMARK VINA RESULT:      -7.3      2.403      7.641
REMARK  Name = 
REMARK  11 active torsions:
REMARK  status: ('A' for Active; 'I' for Inactive)
REMARK    1  A    between atoms: C_1  and  C_2
REMARK    2  A    between atoms: C_4  and  O_37
REMARK    3  A    between atoms: C_6  and  O_36
REMARK    4  A    between atoms: C_8  and  O_35
REMARK    5  A    between atoms: C_10  and  O_13
REMARK    6  A    between atoms: O_13  and  C_14
REMARK    7  A    between atoms: C_15  and  C_27
REMARK    8  A    between atoms: C_19  and  O_26
REMARK    9  A    between atoms: C_21  and  O_25
REMARK   10  A    between atoms: C_29  and  O_34
REMARK   11  A    between atoms: C_30  and  O_33
REMARK                            x       y       z     vdW  Elec       q    Type
REMARK                         _______ _______ _______ _____ _____    ______ ____
ROOT
ATOM      1  C   UNL     1       7.028  -2.932  24.023  0.00  0.00    +0.214 A 
ATOM      2  C   UNL     1       6.477  -4.000  23.128  0.00  0.00    +0.238 A 
ATOM      3  O   UNL     1       7.030  -4.325  22.078  0.00  0.00    -0.283 OA
ATOM      4  C   UNL     1       5.155  -4.542  23.438  0.00  0.00    +0.109 A 
ATOM      5  C   UNL     1       4.345  -3.783  24.276  0.00  0.00    +0.147 A 
ATOM      6  C   UNL     1       3.004  -4.139  24.457  0.00  0.00    +0.092 A 
ATOM      7  C   UNL     1       2.500  -5.260  23.800  0.00  0.00    +0.124 A 
ATOM      8  C   UNL     1       3.313  -6.051  22.997  0.00  0.00    +0.091 A 
ATOM      9  O   UNL     1       4.792  -2.663  24.923  0.00  0.00    -0.451 OA
ATOM     10  C   UNL     1       4.646  -5.695  22.823  0.00  0.00    +0.135 A 
ATOM     11  C   UNL     1       6.143  -2.305  24.833  0.00  0.00    +0.181 A 
ENDROOT
BRANCH  11  12
ATOM     12  C   UNL     1       6.463  -1.096  25.665  0.00  0.00    +0.025 A 
ATOM     13  C   UNL     1       5.790   0.120  25.406  0.00  0.00    +0.015 A 
ATOM     14  C   UNL     1       6.051   1.280  26.144  0.00  0.00    +0.050 A 
ATOM     15  C   UNL     1       6.997   1.245  27.151  0.00  0.00    +0.158 A 
ATOM     16  C   UNL     1       7.677   0.066  27.429  0.00  0.00    +0.159 A 
ATOM     17  C   UNL     1       7.407  -1.101  26.710  0.00  0.00    +0.060 A 
BRANCH  15  18
ATOM     18  O   UNL     1       7.254   2.375  27.871  0.00  0.00    -0.503 OA
ATOM     19  H   UNL     1       6.644   2.323  28.634  0.00  0.00    +0.292 HD
ENDBRANCH  15  18
BRANCH  16  20
ATOM     20  O   UNL     1       8.615   0.098  28.426  0.00  0.00    -0.503 OA
ATOM     21  H   UNL     1       8.671  -0.794  28.810  0.00  0.00    +0.292 HD
ENDBRANCH  16  20
ENDBRANCH  11  12
BRANCH   7  22
ATOM     22  O   UNL     1       1.191  -5.628  23.909  0.00  0.00    -0.507 OA
ATOM     23  H   UNL     1       0.767  -5.569  23.038  0.00  0.00    +0.292 HD
ENDBRANCH   7  22
BRANCH  10  24
ATOM     24  O   UNL     1       5.449  -6.498  22.061  0.00  0.00    -0.506 OA
ATOM     25  H   UNL     1       6.344  -6.528  22.437  0.00  0.00    +0.292 HD
ENDBRANCH  10  24
BRANCH   1  26
ATOM     26  O   UNL     1       8.351  -2.517  23.939  0.00  0.00    -0.453 OA
BRANCH  26  30
ATOM     27  C   UNL     1       7.349   1.477  22.523  0.00  0.00    +0.041 C 
ATOM     28  C   UNL     1       8.280   0.486  21.819  0.00  0.00    +0.150 C 
ATOM     29  O   UNL     1       8.079  -0.867  22.242  0.00  0.00    -0.334 OA
ATOM     30  C   UNL     1       8.629  -1.169  23.535  0.00  0.00    +0.339 C 
ATOM     31  C   UNL     1      10.162  -0.968  23.538  0.00  0.00    +0.214 C 
ATOM     32  C   UNL     1      10.479   0.486  23.160  0.00  0.00    +0.180 C 
ATOM     33  C   UNL     1       9.773   0.861  21.839  0.00  0.00    +0.174 C 
BRANCH  31  34
ATOM     34  O   UNL     1      10.819  -1.867  22.628  0.00  0.00    -0.383 OA
ATOM     35  H   UNL     1      11.546  -2.290  23.124  0.00  0.00    +0.210 HD
ENDBRANCH  31  34
BRANCH  32  36
ATOM     36  O   UNL     1      10.194   1.361  24.258  0.00  0.00    -0.386 OA
ATOM     37  H   UNL     1      10.314   0.900  25.102  0.00  0.00    +0.210 HD
ENDBRANCH  32  36
BRANCH  33  38
ATOM     38  O   UNL     1       9.993   2.230  21.506  0.00  0.00    -0.387 OA
ATOM     39  H   UNL     1      10.239   2.696  22.324  0.00  0.00    +0.210 HD
ENDBRANCH  33  38
ENDBRANCH  26  30
ENDBRANCH   1  26
TORSDOF 10
ENDMDL
MODEL 4
REMARK VINA RESULT:      -7.0      3.108      7.560
REMARK  Name = 
REMARK  11 active torsions:
REMARK  status: ('A' for Active; 'I' for Inactive)
REMARK    1  A    between atoms: C_1  and  C_2
REMARK    2  A    between atoms: C_4  and  O_37
REMARK    3  A    between atoms: C_6  and  O_36
REMARK    4  A    between atoms: C_8  and  O_35
REMARK    5  A    between atoms: C_10  and  O_13
REMARK    6  A    between atoms: O_13  and  C_14
REMARK    7  A    between atoms: C_15  and  C_27
REMARK    8  A    between atoms: C_19  and  O_26
REMARK    9  A    between atoms: C_21  and  O_25
REMARK   10  A    between atoms: C_29  and  O_34
REMARK   11  A    between atoms: C_30  and  O_33
REMARK                            x       y       z     vdW  Elec       q    Type
REMARK                         _______ _______ _______ _____ _____    ______ ____
ROOT
ATOM      1  C   UNL     1       6.242  -1.015  24.536  0.00  0.00    +0.214 A 
ATOM      2  C   UNL     1       5.320  -2.190  24.653  0.00  0.00    +0.238 A 
ATOM      3  O   UNL     1       4.549  -2.327  25.602  0.00  0.00    -0.283 OA
ATOM      4  C   UNL     1       5.473  -3.282  23.693  0.00  0.00    +0.109 A 
ATOM      5  C   UNL     1       6.680  -3.349  23.004  0.00  0.00    +0.147 A 
ATOM      6  C   UNL     1       6.973  -4.471  22.222  0.00  0.00    +0.092 A 
ATOM      7  C   UNL     1       6.044  -5.505  22.134  0.00  0.00    +0.124 A 
ATOM      8  C   UNL     1       4.816  -5.427  22.781  0.00  0.00    +0.091 A 
ATOM      9  O   UNL     1       7.631  -2.367  23.079  0.00  0.00    -0.451 OA
ATOM     10  C   UNL     1       4.527  -4.308  23.556  0.00  0.00    +0.135 A 
ATOM     11  C   UNL     1       7.358  -1.193  23.790  0.00  0.00    +0.181 A 
ENDROOT
BRANCH  11  12
ATOM     12  C   UNL     1       8.485  -0.203  23.700  0.00  0.00    +0.025 A 
ATOM     13  C   UNL     1       9.343  -0.030  24.809  0.00  0.00    +0.015 A 
ATOM     14  C   UNL     1      10.406   0.881  24.785  0.00  0.00    +0.050 A 
ATOM     15  C   UNL     1      10.622   1.641  23.652  0.00  0.00    +0.158 A 
ATOM     16  C   UNL     1       9.794   1.496  22.546  0.00  0.00    +0.159 A 
ATOM     17  C   UNL     1       8.745   0.574  22.555  0.00  0.00    +0.060 A 
BRANCH  15  18
ATOM     18  O   UNL     1      11.656   2.531  23.627  0.00  0.00    -0.503 OA
ATOM     19  H   UNL     1      11.789   2.779  24.564  0.00  0.00    +0.292 HD
ENDBRANCH  15  18
BRANCH  16  20
ATOM     20  O   UNL     1      10.047   2.290  21.459  0.00  0.00    -0.503 OA
ATOM     21  H   UNL     1       9.313   2.924  21.376  0.00  0.00    +0.292 HD
ENDBRANCH  16  20
ENDBRANCH  11  12
BRANCH   7  22
ATOM     22  O   UNL     1       6.295  -6.638  21.418  0.00  0.00    -0.507 OA
ATOM     23  H   UNL     1       7.252  -6.729  21.285  0.00  0.00    +0.292 HD
ENDBRANCH   7  22
BRANCH  10  24
ATOM     24  O   UNL     1       3.304  -4.222  24.160  0.00  0.00    -0.506 OA
ATOM     25  H   UNL     1       2.606  -4.144  23.490  0.00  0.00    +0.292 HD
ENDBRANCH  10  24
BRANCH   1  26
ATOM     26  O   UNL     1       6.032   0.155  25.255  0.00  0.00    -0.453 OA
BRANCH  26  30
ATOM     27  C   UNL     1       6.384   3.318  22.283  0.00  0.00    +0.041 C 
ATOM     28  C   UNL     1       6.301   3.519  23.799  0.00  0.00    +0.150 C 
ATOM     29  O   UNL     1       6.644   2.343  24.539  0.00  0.00    -0.334 OA
ATOM     30  C   UNL     1       5.619   1.335  24.553  0.00  0.00    +0.339 C 
ATOM     31  C   UNL     1       4.332   1.872  25.220  0.00  0.00    +0.214 C 
ATOM     32  C   UNL     1       3.843   3.106  24.448  0.00  0.00    +0.180 C 
ATOM     33  C   UNL     1       4.986   4.136  24.308  0.00  0.00    +0.174 C 
BRANCH  31  34
ATOM     34  O   UNL     1       4.549   2.210  26.601  0.00  0.00    -0.383 OA
ATOM     35  H   UNL     1       5.512   2.318  26.717  0.00  0.00    +0.210 HD
ENDBRANCH  31  34
BRANCH  32  36
ATOM     36  O   UNL     1       3.238   2.714  23.210  0.00  0.00    -0.386 OA
ATOM     37  H   UNL     1       2.480   2.133  23.370  0.00  0.00    +0.210 HD
ENDBRANCH  32  36
BRANCH  33  38
ATOM     38  O   UNL     1       4.576   5.259  23.529  0.00  0.00    -0.387 OA
ATOM     39  H   UNL     1       5.099   6.026  23.821  0.00  0.00    +0.210 HD
ENDBRANCH  33  38
ENDBRANCH  26  30
ENDBRANCH   1  26
TORSDOF 10
ENDMDL
MODEL 5
REMARK VINA RESULT:      -7.0      2.409      6.535
REMARK  Name = 
REMARK  11 active torsions:
REMARK  status: ('A' for Active; 'I' for Inactive)
REMARK    1  A    between atoms: C_1  and  C_2
REMARK    2  A    between atoms: C_4  and  O_37
REMARK    3  A    between atoms: C_6  and  O_36
REMARK    4  A    between atoms: C_8  and  O_35
REMARK    5  A    between atoms: C_10  and  O_13
REMARK    6  A    between atoms: O_13  and  C_14
REMARK    7  A    between atoms: C_15  and  C_27
REMARK    8  A    between atoms: C_19  and  O_26
REMARK    9  A    between atoms: C_21  and  O_25
REMARK   10  A    between atoms: C_29  and  O_34
REMARK   11  A    between atoms: C_30  and  O_33
REMARK                            x       y       z     vdW  Elec       q    Type
REMARK                         _______ _______ _______ _____ _____    ______ ____
ROOT
ATOM      1  C   UNL     1       7.701  -2.009  25.353  0.00  0.00    +0.214 A 
ATOM      2  C   UNL     1       7.149  -3.392  25.531  0.00  0.00    +0.238 A 
ATOM      3  O   UNL     1       7.215  -3.991  26.602  0.00  0.00    -0.283 OA
ATOM      4  C   UNL     1       6.675  -4.100  24.342  0.00  0.00    +0.109 A 
ATOM      5  C   UNL     1       7.117  -3.627  23.111  0.00  0.00    +0.147 A 
ATOM      6  C   UNL     1       6.867  -4.369  21.951  0.00  0.00    +0.092 A 
ATOM      7  C   UNL     1       6.166  -5.570  22.045  0.00  0.00    +0.124 A 
ATOM      8  C   UNL     1       5.681  -6.027  23.265  0.00  0.00    +0.091 A 
ATOM      9  O   UNL     1       7.827  -2.465  22.974  0.00  0.00    -0.451 OA
ATOM     10  C   UNL     1       5.929  -5.285  24.415  0.00  0.00    +0.135 A 
ATOM     11  C   UNL     1       8.042  -1.651  24.093  0.00  0.00    +0.181 A 
ENDROOT
BRANCH  11  12
ATOM     12  C   UNL     1       8.772  -0.387  23.739  0.00  0.00    +0.025 A 
ATOM     13  C   UNL     1       9.983  -0.079  24.401  0.00  0.00    +0.015 A 
ATOM     14  C   UNL     1      10.704   1.087  24.117  0.00  0.00    +0.050 A 
ATOM     15  C   UNL     1      10.221   1.970  23.170  0.00  0.00    +0.158 A 
ATOM     16  C   UNL     1       9.032   1.697  22.503  0.00  0.00    +0.159 A 
ATOM     17  C   UNL     1       8.318   0.526  22.767  0.00  0.00    +0.060 A 
BRANCH  15  18
ATOM     18  O   UNL     1      10.920   3.107  22.893  0.00  0.00    -0.503 OA
ATOM     19  H   UNL     1      10.294   3.663  22.387  0.00  0.00    +0.292 HD
ENDBRANCH  15  18
BRANCH  16  20
ATOM     20  O   UNL     1       8.595   2.618  21.589  0.00  0.00    -0.503 OA
ATOM     21  H   UNL     1       9.216   3.367  21.602  0.00  0.00    +0.292 HD
ENDBRANCH  16  20
ENDBRANCH  11  12
BRANCH   7  22
ATOM     22  O   UNL     1       5.930  -6.351  20.953  0.00  0.00    -0.507 OA
ATOM     23  H   UNL     1       6.614  -6.185  20.284  0.00  0.00    +0.292 HD
ENDBRANCH   7  22
BRANCH  10  24
ATOM     24  O   UNL     1       5.418  -5.722  25.605  0.00  0.00    -0.506 OA
ATOM     25  H   UNL     1       5.986  -5.433  26.338  0.00  0.00    +0.292 HD
ENDBRANCH  10  24
BRANCH   1  26
ATOM     26  O   UNL     1       7.968  -1.183  26.437  0.00  0.00    -0.453 OA
BRANCH  26  30
ATOM     27  C   UNL     1       3.856  -0.748  27.804  0.00  0.00    +0.041 C 
ATOM     28  C   UNL     1       4.592   0.208  26.860  0.00  0.00    +0.150 C 
ATOM     29  O   UNL     1       5.730  -0.391  26.233  0.00  0.00    -0.334 OA
ATOM     30  C   UNL     1       6.875  -0.525  27.092  0.00  0.00    +0.339 C 
ATOM     31  C   UNL     1       7.361   0.860  27.576  0.00  0.00    +0.214 C 
ATOM     32  C   UNL     1       6.220   1.559  28.329  0.00  0.00    +0.180 C 
ATOM     33  C   UNL     1       4.943   1.581  27.461  0.00  0.00    +0.174 C 
BRANCH  31  34
ATOM     34  O   UNL     1       7.805   1.681  26.482  0.00  0.00    -0.383 OA
ATOM     35  H   UNL     1       8.271   1.092  25.859  0.00  0.00    +0.210 HD
ENDBRANCH  31  34
BRANCH  32  36
ATOM     36  O   UNL     1       6.049   0.980  29.628  0.00  0.00    -0.386 OA
ATOM     37  H   UNL     1       5.544   1.574  30.202  0.00  0.00    +0.210 HD
ENDBRANCH  32  36
BRANCH  33  38
ATOM     38  O   UNL     1       3.848   2.160  28.169  0.00  0.00    -0.387 OA
ATOM     39  H   UNL     1       3.029   1.883  27.722  0.00  0.00    +0.210 HD
ENDBRANCH  33  38
ENDBRANCH  26  30
ENDBRANCH   1  26
TORSDOF 10
ENDMDL
MODEL 6
REMARK VINA RESULT:      -7.0      2.477      7.432
REMARK  Name = 
REMARK  11 active torsions:
REMARK  status: ('A' for Active; 'I' for Inactive)
REMARK    1  A    between atoms: C_1  and  C_2
REMARK    2  A    between atoms: C_4  and  O_37
REMARK    3  A    between atoms: C_6  and  O_36
REMARK    4  A    between atoms: C_8  and  O_35
REMARK    5  A    between atoms: C_10  and  O_13
REMARK    6  A    between atoms: O_13  and  C_14
REMARK    7  A    between atoms: C_15  and  C_27
REMARK    8  A    between atoms: C_19  and  O_26
REMARK    9  A    between atoms: C_21  and  O_25
REMARK   10  A    between atoms: C_29  and  O_34
REMARK   11  A    between atoms: C_30  and  O_33
REMARK                            x       y       z     vdW  Elec       q    Type
REMARK                         _______ _______ _______ _____ _____    ______ ____
ROOT
ATOM      1  C   UNL     1       7.162  -2.191  24.845  0.00  0.00    +0.214 A 
ATOM      2  C   UNL     1       7.332  -3.287  23.836  0.00  0.00    +0.238 A 
ATOM      3  O   UNL     1       8.307  -3.346  23.090  0.00  0.00    -0.283 OA
ATOM      4  C   UNL     1       6.215  -4.208  23.629  0.00  0.00    +0.109 A 
ATOM      5  C   UNL     1       4.964  -3.788  24.069  0.00  0.00    +0.147 A 
ATOM      6  C   UNL     1       3.824  -4.525  23.729  0.00  0.00    +0.092 A 
ATOM      7  C   UNL     1       3.960  -5.680  22.961  0.00  0.00    +0.124 A 
ATOM      8  C   UNL     1       5.211  -6.132  22.555  0.00  0.00    +0.091 A 
ATOM      9  O   UNL     1       4.781  -2.649  24.807  0.00  0.00    -0.451 OA
ATOM     10  C   UNL     1       6.341  -5.398  22.898  0.00  0.00    +0.135 A 
ATOM     11  C   UNL     1       5.894  -1.916  25.233  0.00  0.00    +0.181 A 
ENDROOT
BRANCH  11  12
ATOM     12  C   UNL     1       5.504  -0.746  26.090  0.00  0.00    +0.025 A 
ATOM     13  C   UNL     1       5.202   0.491  25.476  0.00  0.00    +0.015 A 
ATOM     14  C   UNL     1       4.839   1.618  26.222  0.00  0.00    +0.050 A 
ATOM     15  C   UNL     1       4.779   1.528  27.600  0.00  0.00    +0.158 A 
ATOM     16  C   UNL     1       5.073   0.327  28.234  0.00  0.00    +0.159 A 
ATOM     17  C   UNL     1       5.417  -0.807  27.494  0.00  0.00    +0.060 A 
BRANCH  15  18
ATOM     18  O   UNL     1       4.427   2.624  28.330  0.00  0.00    -0.503 OA
ATOM     19  H   UNL     1       3.555   2.396  28.710  0.00  0.00    +0.292 HD
ENDBRANCH  15  18
BRANCH  16  20
ATOM     20  O   UNL     1       5.014   0.304  29.603  0.00  0.00    -0.503 OA
ATOM     21  H   UNL     1       5.563   1.036  29.935  0.00  0.00    +0.292 HD
ENDBRANCH  16  20
ENDBRANCH  11  12
BRANCH   7  22
ATOM     22  O   UNL     1       2.880  -6.412  22.568  0.00  0.00    -0.507 OA
ATOM     23  H   UNL     1       2.087  -5.853  22.588  0.00  0.00    +0.292 HD
ENDBRANCH   7  22
BRANCH  10  24
ATOM     24  O   UNL     1       7.571  -5.867  22.527  0.00  0.00    -0.506 OA
ATOM     25  H   UNL     1       8.192  -5.798  23.270  0.00  0.00    +0.292 HD
ENDBRANCH  10  24
BRANCH   1  26
ATOM     26  O   UNL     1       8.232  -1.411  25.265  0.00  0.00    -0.453 OA
BRANCH  26  30
ATOM     27  C   UNL     1       7.556   2.293  23.077  0.00  0.00    +0.041 C 
ATOM     28  C   UNL     1       8.124   0.998  22.490  0.00  0.00    +0.150 C 
ATOM     29  O   UNL     1       7.821  -0.155  23.282  0.00  0.00    -0.334 OA
ATOM     30  C   UNL     1       8.612  -0.274  24.476  0.00  0.00    +0.339 C 
ATOM     31  C   UNL     1      10.113  -0.405  24.128  0.00  0.00    +0.214 C 
ATOM     32  C   UNL     1      10.553   0.830  23.329  0.00  0.00    +0.180 C 
ATOM     33  C   UNL     1       9.617   1.045  22.120  0.00  0.00    +0.174 C 
BRANCH  31  34
ATOM     34  O   UNL     1      10.383  -1.600  23.375  0.00  0.00    -0.383 OA
ATOM     35  H   UNL     1      11.188  -1.429  22.852  0.00  0.00    +0.210 HD
ENDBRANCH  31  34
BRANCH  32  36
ATOM     36  O   UNL     1      10.681   1.965  24.194  0.00  0.00    -0.386 OA
ATOM     37  H   UNL     1      11.054   2.719  23.714  0.00  0.00    +0.210 HD
ENDBRANCH  32  36
BRANCH  33  38
ATOM     38  O   UNL     1       9.962   2.230  21.405  0.00  0.00    -0.387 OA
ATOM     39  H   UNL     1      10.903   2.412  21.571  0.00  0.00    +0.210 HD
ENDBRANCH  33  38
ENDBRANCH  26  30
ENDBRANCH   1  26
TORSDOF 10
ENDMDL
MODEL 7
REMARK VINA RESULT:      -6.9      2.322      6.299
REMARK  Name = 
REMARK  11 active torsions:
REMARK  status: ('A' for Active; 'I' for Inactive)
REMARK    1  A    between atoms: C_1  and  C_2
REMARK    2  A    between atoms: C_4  and  O_37
REMARK    3  A    between atoms: C_6  and  O_36
REMARK    4  A    between atoms: C_8  and  O_35
REMARK    5  A    between atoms: C_10  and  O_13
REMARK    6  A    between atoms: O_13  and  C_14
REMARK    7  A    between atoms: C_15  and  C_27
REMARK    8  A    between atoms: C_19  and  O_26
REMARK    9  A    between atoms: C_21  and  O_25
REMARK   10  A    between atoms: C_29  and  O_34
REMARK   11  A    between atoms: C_30  and  O_33
REMARK                            x       y       z     vdW  Elec       q    Type
REMARK                         _______ _______ _______ _____ _____    ______ ____
ROOT
ATOM      1  C   UNL     1       6.879  -1.600  25.634  0.00  0.00    +0.214 A 
ATOM      2  C   UNL     1       6.803  -0.758  26.872  0.00  0.00    +0.238 A 
ATOM      3  O   UNL     1       7.808  -0.374  27.467  0.00  0.00    -0.283 OA
ATOM      4  C   UNL     1       5.488  -0.540  27.474  0.00  0.00    +0.109 A 
ATOM      5  C   UNL     1       4.475  -1.420  27.109  0.00  0.00    +0.147 A 
ATOM      6  C   UNL     1       3.253  -1.395  27.790  0.00  0.00    +0.092 A 
ATOM      7  C   UNL     1       3.063  -0.476  28.820  0.00  0.00    +0.124 A 
ATOM      8  C   UNL     1       4.053   0.439  29.161  0.00  0.00    +0.091 A 
ATOM      9  O   UNL     1       4.625  -2.353  26.119  0.00  0.00    -0.451 OA
ATOM     10  C   UNL     1       5.265   0.412  28.480  0.00  0.00    +0.135 A 
ATOM     11  C   UNL     1       5.802  -2.373  25.361  0.00  0.00    +0.181 A 
ENDROOT
BRANCH  11  12
ATOM     12  C   UNL     1       5.756  -3.411  24.276  0.00  0.00    +0.025 A 
ATOM     13  C   UNL     1       5.759  -4.780  24.628  0.00  0.00    +0.015 A 
ATOM     14  C   UNL     1       5.723  -5.792  23.661  0.00  0.00    +0.050 A 
ATOM     15  C   UNL     1       5.694  -5.450  22.323  0.00  0.00    +0.158 A 
ATOM     16  C   UNL     1       5.693  -4.113  21.944  0.00  0.00    +0.159 A 
ATOM     17  C   UNL     1       5.708  -3.099  22.904  0.00  0.00    +0.060 A 
BRANCH  15  18
ATOM     18  O   UNL     1       5.661  -6.434  21.379  0.00  0.00    -0.503 OA
ATOM     19  H   UNL     1       6.249  -7.131  21.731  0.00  0.00    +0.292 HD
ENDBRANCH  15  18
BRANCH  16  20
ATOM     20  O   UNL     1       5.682  -3.837  20.602  0.00  0.00    -0.503 OA
ATOM     21  H   UNL     1       6.327  -3.127  20.440  0.00  0.00    +0.292 HD
ENDBRANCH  16  20
ENDBRANCH  11  12
BRANCH   7  22
ATOM     22  O   UNL     1       1.907  -0.435  29.542  0.00  0.00    -0.507 OA
ATOM     23  H   UNL     1       2.102  -0.133  30.444  0.00  0.00    +0.292 HD
ENDBRANCH   7  22
BRANCH  10  24
ATOM     24  O   UNL     1       6.221   1.337  28.796  0.00  0.00    -0.506 OA
ATOM     25  H   UNL     1       7.025   1.176  28.278  0.00  0.00    +0.292 HD
ENDBRANCH  10  24
BRANCH   1  26
ATOM     26  O   UNL     1       8.039  -1.681  24.875  0.00  0.00    -0.453 OA
BRANCH  26  30
ATOM     27  C   UNL     1       7.654   2.215  22.967  0.00  0.00    +0.041 C 
ATOM     28  C   UNL     1       8.206   0.946  22.309  0.00  0.00    +0.150 C 
ATOM     29  O   UNL     1       7.807  -0.252  22.982  0.00  0.00    -0.334 OA
ATOM     30  C   UNL     1       8.515  -0.503  24.208  0.00  0.00    +0.339 C 
ATOM     31  C   UNL     1      10.028  -0.673  23.942  0.00  0.00    +0.214 C 
ATOM     32  C   UNL     1      10.568   0.601  23.277  0.00  0.00    +0.180 C 
ATOM     33  C   UNL     1       9.720   0.955  22.035  0.00  0.00    +0.174 C 
BRANCH  31  34
ATOM     34  O   UNL     1      10.297  -1.815  23.109  0.00  0.00    -0.383 OA
ATOM     35  H   UNL     1      10.185  -2.606  23.670  0.00  0.00    +0.210 HD
ENDBRANCH  31  34
BRANCH  32  36
ATOM     36  O   UNL     1      10.686   1.656  24.239  0.00  0.00    -0.386 OA
ATOM     37  H   UNL     1       9.947   2.278  24.155  0.00  0.00    +0.210 HD
ENDBRANCH  32  36
BRANCH  33  38
ATOM     38  O   UNL     1      10.158   2.178  21.443  0.00  0.00    -0.387 OA
ATOM     39  H   UNL     1      11.012   2.006  21.011  0.00  0.00    +0.210 HD
ENDBRANCH  33  38
ENDBRANCH  26  30
ENDBRANCH   1  26
TORSDOF 10
ENDMDL
MODEL 8
REMARK VINA RESULT:      -6.7      2.555      6.489
REMARK  Name = 
REMARK  11 active torsions:
REMARK  status: ('A' for Active; 'I' for Inactive)
REMARK    1  A    between atoms: C_1  and  C_2
REMARK    2  A    between atoms: C_4  and  O_37
REMARK    3  A    between atoms: C_6  and  O_36
REMARK    4  A    between atoms: C_8  and  O_35
REMARK    5  A    between atoms: C_10  and  O_13
REMARK    6  A    between atoms: O_13  and  C_14
REMARK    7  A    between atoms: C_15  and  C_27
REMARK    8  A    between atoms: C_19  and  O_26
REMARK    9  A    between atoms: C_21  and  O_25
REMARK   10  A    between atoms: C_29  and  O_34
REMARK   11  A    between atoms: C_30  and  O_33
REMARK                            x       y       z     vdW  Elec       q    Type
REMARK                         _______ _______ _______ _____ _____    ______ ____
ROOT
ATOM      1  C   UNL     1       6.973  -3.019  25.958  0.00  0.00    +0.214 A 
ATOM      2  C   UNL     1       6.425  -4.205  26.692  0.00  0.00    +0.238 A 
ATOM      3  O   UNL     1       6.824  -4.526  27.810  0.00  0.00    -0.283 OA
ATOM      4  C   UNL     1       5.512  -5.095  25.975  0.00  0.00    +0.109 A 
ATOM      5  C   UNL     1       5.521  -5.018  24.587  0.00  0.00    +0.147 A 
ATOM      6  C   UNL     1       4.825  -5.970  23.833  0.00  0.00    +0.092 A 
ATOM      7  C   UNL     1       4.121  -6.978  24.488  0.00  0.00    +0.124 A 
ATOM      8  C   UNL     1       4.068  -7.036  25.876  0.00  0.00    +0.091 A 
ATOM      9  O   UNL     1       6.217  -4.058  23.902  0.00  0.00    -0.451 OA
ATOM     10  C   UNL     1       4.759  -6.086  26.621  0.00  0.00    +0.135 A 
ATOM     11  C   UNL     1       6.870  -3.042  24.608  0.00  0.00    +0.181 A 
ENDROOT
BRANCH  11  12
ATOM     12  C   UNL     1       7.514  -2.041  23.691  0.00  0.00    +0.025 A 
ATOM     13  C   UNL     1       6.860  -0.814  23.438  0.00  0.00    +0.015 A 
ATOM     14  C   UNL     1       7.408   0.154  22.588  0.00  0.00    +0.050 A 
ATOM     15  C   UNL     1       8.619  -0.094  21.970  0.00  0.00    +0.158 A 
ATOM     16  C   UNL     1       9.285  -1.292  22.196  0.00  0.00    +0.159 A 
ATOM     17  C   UNL     1       8.754  -2.254  23.058  0.00  0.00    +0.060 A 
BRANCH  15  18
ATOM     18  O   UNL     1       9.154   0.846  21.140  0.00  0.00    -0.503 OA
ATOM     19  H   UNL     1      10.110   0.842  21.349  0.00  0.00    +0.292 HD
ENDBRANCH  15  18
BRANCH  16  20
ATOM     20  O   UNL     1      10.472  -1.489  21.540  0.00  0.00    -0.503 OA
ATOM     21  H   UNL     1      10.963  -2.182  22.015  0.00  0.00    +0.292 HD
ENDBRANCH  16  20
ENDBRANCH  11  12
BRANCH   7  22
ATOM     22  O   UNL     1       3.459  -7.953  23.803  0.00  0.00    -0.507 OA
ATOM     23  H   UNL     1       3.083  -7.577  22.990  0.00  0.00    +0.292 HD
ENDBRANCH   7  22
BRANCH  10  24
ATOM     24  O   UNL     1       4.674  -6.127  27.985  0.00  0.00    -0.506 OA
ATOM     25  H   UNL     1       4.709  -5.228  28.348  0.00  0.00    +0.292 HD
ENDBRANCH  10  24
BRANCH   1  26
ATOM     26  O   UNL     1       7.665  -2.008  26.613  0.00  0.00    -0.453 OA
BRANCH  26  30
ATOM     27  C   UNL     1       4.148  -0.287  28.521  0.00  0.00    +0.041 C 
ATOM     28  C   UNL     1       4.882   0.292  27.308  0.00  0.00    +0.150 C 
ATOM     29  O   UNL     1       5.690  -0.674  26.628  0.00  0.00    -0.334 OA
ATOM     30  C   UNL     1       6.920  -0.993  27.301  0.00  0.00    +0.339 C 
ATOM     31  C   UNL     1       7.814   0.262  27.431  0.00  0.00    +0.214 C 
ATOM     32  C   UNL     1       7.053   1.342  28.214  0.00  0.00    +0.180 C 
ATOM     33  C   UNL     1       5.669   1.588  27.575  0.00  0.00    +0.174 C 
BRANCH  31  34
ATOM     34  O   UNL     1       8.207   0.770  26.145  0.00  0.00    -0.383 OA
ATOM     35  H   UNL     1       7.455   1.289  25.804  0.00  0.00    +0.210 HD
ENDBRANCH  31  34
BRANCH  32  36
ATOM     36  O   UNL     1       7.018   1.017  29.608  0.00  0.00    -0.386 OA
ATOM     37  H   UNL     1       7.438   1.716  30.132  0.00  0.00    +0.210 HD
ENDBRANCH  32  36
BRANCH  33  38
ATOM     38  O   UNL     1       4.914   2.535  28.329  0.00  0.00    -0.387 OA
ATOM     39  H   UNL     1       4.291   2.968  27.720  0.00  0.00    +0.210 HD
ENDBRANCH  33  38
ENDBRANCH  26  30
ENDBRANCH   1  26
TORSDOF 10
ENDMDL
MODEL 9
REMARK VINA RESULT:      -6.7      2.666      6.834
REMARK  Name = 
REMARK  11 active torsions:
REMARK  status: ('A' for Active; 'I' for Inactive)
REMARK    1  A    between atoms: C_1  and  C_2
REMARK    2  A    between atoms: C_4  and  O_37
REMARK    3  A    between atoms: C_6  and  O_36
REMARK    4  A    between atoms: C_8  and  O_35
REMARK    5  A    between atoms: C_10  and  O_13
REMARK    6  A    between atoms: O_13  and  C_14
REMARK    7  A    between atoms: C_15  and  C_27
REMARK    8  A    between atoms: C_19  and  O_26
REMARK    9  A    between atoms: C_21  and  O_25
REMARK   10  A    between atoms: C_29  and  O_34
REMARK   11  A    between atoms: C_30  and  O_33
REMARK                            x       y       z     vdW  Elec       q    Type
REMARK                         _______ _______ _______ _____ _____    ______ ____
ROOT
ATOM      1  C   UNL     1       7.371  -0.680  26.794  0.00  0.00    +0.214 A 
ATOM      2  C   UNL     1       6.608   0.290  27.644  0.00  0.00    +0.238 A 
ATOM      3  O   UNL     1       7.151   1.239  28.206  0.00  0.00    -0.283 OA
ATOM      4  C   UNL     1       5.208  -0.013  27.943  0.00  0.00    +0.109 A 
ATOM      5  C   UNL     1       4.799  -1.330  27.764  0.00  0.00    +0.147 A 
ATOM      6  C   UNL     1       3.537  -1.733  28.216  0.00  0.00    +0.092 A 
ATOM      7  C   UNL     1       2.701  -0.803  28.831  0.00  0.00    +0.124 A 
ATOM      8  C   UNL     1       3.084   0.526  28.973  0.00  0.00    +0.091 A 
ATOM      9  O   UNL     1       5.594  -2.282  27.186  0.00  0.00    -0.451 OA
ATOM     10  C   UNL     1       4.338   0.923  28.520  0.00  0.00    +0.135 A 
ATOM     11  C   UNL     1       6.836  -1.915  26.654  0.00  0.00    +0.181 A 
ENDROOT
BRANCH  11  12
ATOM     12  C   UNL     1       7.532  -3.072  25.997  0.00  0.00    +0.025 A 
ATOM     13  C   UNL     1       8.578  -3.731  26.683  0.00  0.00    +0.015 A 
ATOM     14  C   UNL     1       9.267  -4.811  26.120  0.00  0.00    +0.050 A 
ATOM     15  C   UNL     1       8.926  -5.245  24.852  0.00  0.00    +0.158 A 
ATOM     16  C   UNL     1       7.905  -4.617  24.150  0.00  0.00    +0.159 A 
ATOM     17  C   UNL     1       7.200  -3.552  24.715  0.00  0.00    +0.060 A 
BRANCH  15  18
ATOM     18  O   UNL     1       9.597  -6.296  24.300  0.00  0.00    -0.503 OA
ATOM     19  H   UNL     1       8.904  -6.824  23.857  0.00  0.00    +0.292 HD
ENDBRANCH  15  18
BRANCH  16  20
ATOM     20  O   UNL     1       7.626  -5.080  22.892  0.00  0.00    -0.503 OA
ATOM     21  H   UNL     1       6.839  -4.607  22.569  0.00  0.00    +0.292 HD
ENDBRANCH  16  20
ENDBRANCH  11  12
BRANCH   7  22
ATOM     22  O   UNL     1       1.479  -1.151  29.325  0.00  0.00    -0.507 OA
ATOM     23  H   UNL     1       0.903  -0.370  29.340  0.00  0.00    +0.292 HD
ENDBRANCH   7  22
BRANCH  10  24
ATOM     24  O   UNL     1       4.693   2.239  28.630  0.00  0.00    -0.506 OA
ATOM     25  H   UNL     1       5.396   2.448  27.993  0.00  0.00    +0.292 HD
ENDBRANCH  10  24
BRANCH   1  26
ATOM     26  O   UNL     1       8.625  -0.372  26.280  0.00  0.00    -0.453 OA
BRANCH  26  30
ATOM     27  C   UNL     1      10.010  -0.722  22.166  0.00  0.00    +0.041 C 
ATOM     28  C   UNL     1      10.261   0.468  23.097  0.00  0.00    +0.150 C 
ATOM     29  O   UNL     1      10.101   0.139  24.481  0.00  0.00    -0.334 OA
ATOM     30  C   UNL     1       8.732   0.015  24.903  0.00  0.00    +0.339 C 
ATOM     31  C   UNL     1       7.979   1.352  24.714  0.00  0.00    +0.214 C 
ATOM     32  C   UNL     1       8.036   1.757  23.234  0.00  0.00    +0.180 C 
ATOM     33  C   UNL     1       9.498   1.755  22.736  0.00  0.00    +0.174 C 
BRANCH  31  34
ATOM     34  O   UNL     1       8.534   2.396  25.533  0.00  0.00    -0.383 OA
ATOM     35  H   UNL     1       8.261   3.244  25.133  0.00  0.00    +0.210 HD
ENDBRANCH  31  34
BRANCH  32  36
ATOM     36  O   UNL     1       7.141   0.950  22.460  0.00  0.00    -0.386 OA
ATOM     37  H   UNL     1       6.517   0.484  23.037  0.00  0.00    +0.210 HD
ENDBRANCH  32  36
BRANCH  33  38
ATOM     38  O   UNL     1       9.569   2.056  21.344  0.00  0.00    -0.387 OA
ATOM     39  H   UNL     1      10.419   1.718  21.013  0.00  0.00    +0.210 HD
ENDBRANCH  33  38
ENDBRANCH  26  30
ENDBRANCH   1  26
TORSDOF 10
ENDMDL
