MODEL 1
REMARK VINA RESULT:      -7.5      0.000      0.000
REMARK  Name = 
REMARK  20 active torsions:
REMARK  status: ('A' for Active; 'I' for Inactive)
REMARK    1  A    between atoms: C_1  and  C_2
REMARK    2  A    between atoms: C_3  and  O_53
REMARK    3  A    between atoms: C_5  and  O_52
REMARK    4  A    between atoms: C_6  and  O_51
REMARK    5  A    between atoms: C_8  and  O_11
REMARK    6  A    between atoms: O_11  and  C_12
REMARK    7  A    between atoms: C_12  and  C_13
REMARK    8  A    between atoms: C_14  and  O_50
REMARK    9  A    between atoms: C_16  and  O_49
REMARK   10  A    between atoms: C_18  and  O_45
REMARK   11  A    between atoms: C_19  and  O_22
REMARK   12  A    between atoms: O_22  and  C_23
REMARK   13  A    between atoms: C_24  and  C_36
REMARK   14  A    between atoms: C_28  and  O_35
REMARK   15  A    between atoms: C_30  and  O_34
REMARK   16  A    between atoms: C_38  and  O_43
REMARK   17  A    between atoms: C_39  and  O_42
REMARK   18  A    between atoms: O_43  and  C_44
REMARK   19  A    between atoms: O_45  and  C_46
REMARK   20  A    between atoms: C_46  and  C_48
REMARK                            x       y       z     vdW  Elec       q    Type
REMARK                         _______ _______ _______ _____ _____    ______ ____
ROOT
ATOM      1  C   UNL     1       5.291  -1.319  25.609  0.00  0.00    +0.179 C 
ATOM      2  O   UNL     1       5.821  -0.439  24.590  0.00  0.00    -0.330 OA
ATOM      3  C   UNL     1       6.256   0.878  24.979  0.00  0.00    +0.352 C 
ATOM      4  C   UNL     1       5.232   1.653  25.862  0.00  0.00    +0.275 C 
ATOM      5  C   UNL     1       4.758   0.731  26.989  0.00  0.00    +0.192 C 
ATOM      6  C   UNL     1       4.210  -0.583  26.425  0.00  0.00    +0.178 C 
ENDROOT
BRANCH   6   7
ATOM      7  O   UNL     1       3.662  -1.351  27.498  0.00  0.00    -0.386 OA
ATOM      8  H   UNL     1       4.123  -2.210  27.500  0.00  0.00    +0.210 HD
ENDBRANCH   6   7
BRANCH   5   9
ATOM      9  O   UNL     1       3.748   1.361  27.792  0.00  0.00    -0.385 OA
ATOM     10  H   UNL     1       4.228   1.687  28.580  0.00  0.00    +0.210 HD
ENDBRANCH   5   9
BRANCH   4  11
ATOM     11  O   UNL     1       4.086   2.125  25.092  0.00  0.00    -0.452 OA
BRANCH  11  12
ATOM     12  C   UNL     1       3.789   3.453  25.222  0.00  0.00    +0.304 C 
ATOM     13  C   UNL     1       3.353   4.055  23.919  0.00  0.00    +0.136 C 
ATOM     14  O   UNL     1       3.909   4.123  26.241  0.00  0.00    -0.251 OA
ENDBRANCH  11  12
ENDBRANCH   4  11
BRANCH   3  15
ATOM     15  O   UNL     1       6.492   1.696  23.812  0.00  0.00    -0.452 OA
BRANCH  15  16
ATOM     16  C   UNL     1       7.685   2.373  23.590  0.00  0.00    +0.214 A 
ATOM     17  C   UNL     1       7.853   3.856  23.758  0.00  0.00    +0.238 A 
ATOM     18  O   UNL     1       6.890   4.603  23.874  0.00  0.00    -0.283 OA
ATOM     19  C   UNL     1       9.252   4.369  23.788  0.00  0.00    +0.109 A 
ATOM     20  C   UNL     1      10.267   3.523  23.363  0.00  0.00    +0.147 A 
ATOM     21  C   UNL     1      11.618   3.942  23.326  0.00  0.00    +0.092 A 
ATOM     22  C   UNL     1      11.911   5.227  23.740  0.00  0.00    +0.124 A 
ATOM     23  C   UNL     1      10.934   6.095  24.186  0.00  0.00    +0.091 A 
ATOM     24  O   UNL     1      10.035   2.240  22.966  0.00  0.00    -0.451 OA
ATOM     25  C   UNL     1       9.592   5.659  24.215  0.00  0.00    +0.135 A 
ATOM     26  C   UNL     1       8.799   1.689  23.247  0.00  0.00    +0.181 A 
BRANCH  26  27
ATOM     27  C   UNL     1       8.906   0.234  23.407  0.00  0.00    +0.025 A 
ATOM     28  C   UNL     1       9.548  -0.183  24.589  0.00  0.00    +0.015 A 
ATOM     29  C   UNL     1       9.876  -1.513  24.791  0.00  0.00    +0.050 A 
ATOM     30  C   UNL     1       9.413  -2.454  23.888  0.00  0.00    +0.158 A 
ATOM     31  C   UNL     1       8.672  -2.064  22.764  0.00  0.00    +0.162 A 
ATOM     32  C   UNL     1       8.514  -0.710  22.458  0.00  0.00    +0.061 A 
BRANCH  30  33
ATOM     33  O   UNL     1       9.604  -3.776  24.176  0.00  0.00    -0.503 OA
ATOM     34  H   UNL     1       9.442  -3.875  25.129  0.00  0.00    +0.292 HD
ENDBRANCH  30  33
BRANCH  31  35
ATOM     35  O   UNL     1       7.972  -2.964  21.999  0.00  0.00    -0.491 OA
ATOM     36  C   UNL     1       6.592  -2.991  22.397  0.00  0.00    +0.277 C 
ENDBRANCH  31  35
ENDBRANCH  26  27
BRANCH  25  37
ATOM     37  O   UNL     1       8.643   6.518  24.683  0.00  0.00    -0.506 OA
ATOM     38  H   UNL     1       8.065   6.068  25.317  0.00  0.00    +0.292 HD
ENDBRANCH  25  37
BRANCH  22  39
ATOM     39  O   UNL     1      13.201   5.691  23.731  0.00  0.00    -0.507 OA
ATOM     40  H   UNL     1      13.306   6.344  24.457  0.00  0.00    +0.292 HD
ENDBRANCH  22  39
ENDBRANCH  15  16
ENDBRANCH   3  15
BRANCH   1  41
ATOM     41  C   UNL     1       6.369  -2.137  26.430  0.00  0.00    +0.197 C 
BRANCH  41  42
ATOM     42  O   UNL     1       6.290  -3.564  26.170  0.00  0.00    -0.346 OA
BRANCH  42  46
ATOM     43  C   UNL     1       2.983  -4.393  29.061  0.00  0.00    +0.041 C 
ATOM     44  C   UNL     1       4.490  -4.407  29.333  0.00  0.00    +0.149 C 
ATOM     45  O   UNL     1       5.263  -3.709  28.337  0.00  0.00    -0.343 OA
ATOM     46  C   UNL     1       5.515  -4.383  27.100  0.00  0.00    +0.282 C 
ATOM     47  C   UNL     1       6.054  -5.833  27.293  0.00  0.00    +0.201 C 
ATOM     48  C   UNL     1       5.164  -6.609  28.285  0.00  0.00    +0.179 C 
ATOM     49  C   UNL     1       4.996  -5.832  29.596  0.00  0.00    +0.174 C 
BRANCH  49  50
ATOM     50  O   UNL     1       6.264  -5.792  30.273  0.00  0.00    -0.387 OA
ATOM     51  H   UNL     1       6.880  -6.350  29.750  0.00  0.00    +0.210 HD
ENDBRANCH  49  50
BRANCH  48  52
ATOM     52  O   UNL     1       5.764  -7.886  28.572  0.00  0.00    -0.386 OA
ATOM     53  H   UNL     1       6.356  -8.070  27.812  0.00  0.00    +0.210 HD
ENDBRANCH  48  52
BRANCH  47  54
ATOM     54  O   UNL     1       7.396  -5.827  27.814  0.00  0.00    -0.384 OA
ATOM     55  H   UNL     1       7.360  -5.290  28.629  0.00  0.00    +0.210 HD
ENDBRANCH  47  54
ENDBRANCH  42  46
ENDBRANCH  41  42
ENDBRANCH   1  41
TORSDOF 17
ENDMDL
MODEL 2
REMARK VINA RESULT:      -7.3      1.347      1.549
REMARK  Name = 
REMARK  20 active torsions:
REMARK  status: ('A' for Active; 'I' for Inactive)
REMARK    1  A    between atoms: C_1  and  C_2
REMARK    2  A    between atoms: C_3  and  O_53
REMARK    3  A    between atoms: C_5  and  O_52
REMARK    4  A    between atoms: C_6  and  O_51
REMARK    5  A    between atoms: C_8  and  O_11
REMARK    6  A    between atoms: O_11  and  C_12
REMARK    7  A    between atoms: C_12  and  C_13
REMARK    8  A    between atoms: C_14  and  O_50
REMARK    9  A    between atoms: C_16  and  O_49
REMARK   10  A    between atoms: C_18  and  O_45
REMARK   11  A    between atoms: C_19  and  O_22
REMARK   12  A    between atoms: O_22  and  C_23
REMARK   13  A    between atoms: C_24  and  C_36
REMARK   14  A    between atoms: C_28  and  O_35
REMARK   15  A    between atoms: C_30  and  O_34
REMARK   16  A    between atoms: C_38  and  O_43
REMARK   17  A    between atoms: C_39  and  O_42
REMARK   18  A    between atoms: O_43  and  C_44
REMARK   19  A    between atoms: O_45  and  C_46
REMARK   20  A    between atoms: C_46  and  C_48
REMARK                            x       y       z     vdW  Elec       q    Type
REMARK                         _______ _______ _______ _____ _____    ______ ____
ROOT
ATOM      1  C   UNL     1       5.300  -1.257  25.679  0.00  0.00    +0.179 C 
ATOM      2  O   UNL     1       5.848  -0.406  24.645  0.00  0.00    -0.330 OA
ATOM      3  C   UNL     1       6.205   0.947  24.988  0.00  0.00    +0.352 C 
ATOM      4  C   UNL     1       5.100   1.717  25.774  0.00  0.00    +0.275 C 
ATOM      5  C   UNL     1       4.603   0.832  26.920  0.00  0.00    +0.192 C 
ATOM      6  C   UNL     1       4.144  -0.532  26.396  0.00  0.00    +0.178 C 
ENDROOT
BRANCH   6   7
ATOM      7  O   UNL     1       3.570  -1.269  27.477  0.00  0.00    -0.386 OA
ATOM      8  H   UNL     1       3.343  -2.152  27.131  0.00  0.00    +0.210 HD
ENDBRANCH   6   7
BRANCH   5   9
ATOM      9  O   UNL     1       3.525   1.454  27.634  0.00  0.00    -0.385 OA
ATOM     10  H   UNL     1       3.423   0.915  28.445  0.00  0.00    +0.210 HD
ENDBRANCH   5   9
BRANCH   4  11
ATOM     11  O   UNL     1       3.980   2.098  24.920  0.00  0.00    -0.452 OA
BRANCH  11  12
ATOM     12  C   UNL     1       3.639   3.422  24.943  0.00  0.00    +0.304 C 
ATOM     13  C   UNL     1       3.444   3.969  23.560  0.00  0.00    +0.136 C 
ATOM     14  O   UNL     1       3.553   4.128  25.941  0.00  0.00    -0.251 OA
ENDBRANCH  11  12
ENDBRANCH   4  11
BRANCH   3  15
ATOM     15  O   UNL     1       6.470   1.715  23.795  0.00  0.00    -0.452 OA
BRANCH  15  16
ATOM     16  C   UNL     1       7.668   2.386  23.577  0.00  0.00    +0.214 A 
ATOM     17  C   UNL     1       7.845   3.867  23.744  0.00  0.00    +0.238 A 
ATOM     18  O   UNL     1       6.886   4.620  23.855  0.00  0.00    -0.283 OA
ATOM     19  C   UNL     1       9.247   4.372  23.778  0.00  0.00    +0.109 A 
ATOM     20  C   UNL     1      10.257   3.519  23.357  0.00  0.00    +0.147 A 
ATOM     21  C   UNL     1      11.611   3.930  23.325  0.00  0.00    +0.092 A 
ATOM     22  C   UNL     1      11.911   5.214  23.739  0.00  0.00    +0.124 A 
ATOM     23  C   UNL     1      10.938   6.088  24.180  0.00  0.00    +0.091 A 
ATOM     24  O   UNL     1      10.019   2.238  22.961  0.00  0.00    -0.451 OA
ATOM     25  C   UNL     1       9.593   5.660  24.205  0.00  0.00    +0.135 A 
ATOM     26  C   UNL     1       8.779   1.695  23.238  0.00  0.00    +0.181 A 
BRANCH  26  27
ATOM     27  C   UNL     1       8.877   0.239  23.400  0.00  0.00    +0.025 A 
ATOM     28  C   UNL     1       9.514  -0.180  24.584  0.00  0.00    +0.015 A 
ATOM     29  C   UNL     1       9.834  -1.512  24.787  0.00  0.00    +0.050 A 
ATOM     30  C   UNL     1       9.366  -2.452  23.885  0.00  0.00    +0.158 A 
ATOM     31  C   UNL     1       8.629  -2.058  22.759  0.00  0.00    +0.162 A 
ATOM     32  C   UNL     1       8.480  -0.704  22.452  0.00  0.00    +0.061 A 
BRANCH  30  33
ATOM     33  O   UNL     1       9.549  -3.775  24.175  0.00  0.00    -0.503 OA
ATOM     34  H   UNL     1      10.411  -4.021  23.800  0.00  0.00    +0.292 HD
ENDBRANCH  30  33
BRANCH  31  35
ATOM     35  O   UNL     1       7.924  -2.955  21.995  0.00  0.00    -0.491 OA
ATOM     36  C   UNL     1       6.552  -3.002  22.417  0.00  0.00    +0.277 C 
ENDBRANCH  31  35
ENDBRANCH  26  27
BRANCH  25  37
ATOM     37  O   UNL     1       8.647   6.526  24.668  0.00  0.00    -0.506 OA
ATOM     38  H   UNL     1       7.767   6.254  24.367  0.00  0.00    +0.292 HD
ENDBRANCH  25  37
BRANCH  22  39
ATOM     39  O   UNL     1      13.204   5.670  23.733  0.00  0.00    -0.507 OA
ATOM     40  H   UNL     1      13.768   5.010  23.274  0.00  0.00    +0.292 HD
ENDBRANCH  22  39
ENDBRANCH  15  16
ENDBRANCH   3  15
BRANCH   1  41
ATOM     41  C   UNL     1       6.363  -1.985  26.598  0.00  0.00    +0.197 C 
BRANCH  41  42
ATOM     42  O   UNL     1       6.481  -3.399  26.288  0.00  0.00    -0.346 OA
BRANCH  42  46
ATOM     43  C   UNL     1       2.098  -3.909  25.571  0.00  0.00    +0.041 C 
ATOM     44  C   UNL     1       3.013  -4.780  26.437  0.00  0.00    +0.149 C 
ATOM     45  O   UNL     1       4.252  -4.137  26.796  0.00  0.00    -0.343 OA
ATOM     46  C   UNL     1       5.287  -4.093  25.808  0.00  0.00    +0.282 C 
ATOM     47  C   UNL     1       5.562  -5.477  25.148  0.00  0.00    +0.201 C 
ATOM     48  C   UNL     1       4.241  -6.118  24.674  0.00  0.00    +0.179 C 
ATOM     49  C   UNL     1       3.216  -6.169  25.813  0.00  0.00    +0.174 C 
BRANCH  49  50
ATOM     50  O   UNL     1       3.679  -7.098  26.808  0.00  0.00    -0.387 OA
ATOM     51  H   UNL     1       4.546  -7.437  26.494  0.00  0.00    +0.210 HD
ENDBRANCH  49  50
BRANCH  48  52
ATOM     52  O   UNL     1       4.494  -7.458  24.213  0.00  0.00    -0.386 OA
ATOM     53  H   UNL     1       4.603  -7.995  25.027  0.00  0.00    +0.210 HD
ENDBRANCH  48  52
BRANCH  47  54
ATOM     54  O   UNL     1       6.186  -6.385  26.075  0.00  0.00    -0.384 OA
ATOM     55  H   UNL     1       6.038  -5.999  26.960  0.00  0.00    +0.210 HD
ENDBRANCH  47  54
ENDBRANCH  42  46
ENDBRANCH  41  42
ENDBRANCH   1  41
TORSDOF 17
ENDMDL
MODEL 3
REMARK VINA RESULT:      -7.2      2.402      8.205
REMARK  Name = 
REMARK  20 active torsions:
REMARK  status: ('A' for Active; 'I' for Inactive)
REMARK    1  A    between atoms: C_1  and  C_2
REMARK    2  A    between atoms: C_3  and  O_53
REMARK    3  A    between atoms: C_5  and  O_52
REMARK    4  A    between atoms: C_6  and  O_51
REMARK    5  A    between atoms: C_8  and  O_11
REMARK    6  A    between atoms: O_11  and  C_12
REMARK    7  A    between atoms: C_12  and  C_13
REMARK    8  A    between atoms: C_14  and  O_50
REMARK    9  A    between atoms: C_16  and  O_49
REMARK   10  A    between atoms: C_18  and  O_45
REMARK   11  A    between atoms: C_19  and  O_22
REMARK   12  A    between atoms: O_22  and  C_23
REMARK   13  A    between atoms: C_24  and  C_36
REMARK   14  A    between atoms: C_28  and  O_35
REMARK   15  A    between atoms: C_30  and  O_34
REMARK   16  A    between atoms: C_38  and  O_43
REMARK   17  A    between atoms: C_39  and  O_42
REMARK   18  A    between atoms: O_43  and  C_44
REMARK   19  A    between atoms: O_45  and  C_46
REMARK   20  A    between atoms: C_46  and  C_48
REMARK                            x       y       z     vdW  Elec       q    Type
REMARK                         _______ _______ _______ _____ _____    ______ ____
ROOT
ATOM      1  C   UNL     1       8.121   0.051  23.206  0.00  0.00    +0.179 C 
ATOM      2  O   UNL     1       7.479  -0.280  24.459  0.00  0.00    -0.330 OA
ATOM      3  C   UNL     1       8.267  -0.909  25.489  0.00  0.00    +0.352 C 
ATOM      4  C   UNL     1       9.111  -2.123  24.993  0.00  0.00    +0.275 C 
ATOM      5  C   UNL     1       9.855  -1.717  23.717  0.00  0.00    +0.192 C 
ATOM      6  C   UNL     1       8.880  -1.178  22.666  0.00  0.00    +0.178 C 
ENDROOT
BRANCH   6   7
ATOM      7  O   UNL     1       9.598  -0.937  21.455  0.00  0.00    -0.386 OA
ATOM      8  H   UNL     1      10.375  -0.396  21.686  0.00  0.00    +0.210 HD
ENDBRANCH   6   7
BRANCH   5   9
ATOM      9  O   UNL     1      10.587  -2.820  23.164  0.00  0.00    -0.385 OA
ATOM     10  H   UNL     1      10.245  -3.606  23.638  0.00  0.00    +0.210 HD
ENDBRANCH   5   9
BRANCH   4  11
ATOM     11  O   UNL     1       8.286  -3.299  24.733  0.00  0.00    -0.452 OA
BRANCH  11  12
ATOM     12  C   UNL     1       8.795  -4.489  25.173  0.00  0.00    +0.304 C 
ATOM     13  C   UNL     1       8.498  -4.717  26.626  0.00  0.00    +0.136 C 
ATOM     14  O   UNL     1       9.468  -5.274  24.515  0.00  0.00    -0.251 OA
ENDBRANCH  11  12
ENDBRANCH   4  11
BRANCH   3  15
ATOM     15  O   UNL     1       7.414  -1.407  26.543  0.00  0.00    -0.452 OA
BRANCH  15  16
ATOM     16  C   UNL     1       6.203  -0.814  26.879  0.00  0.00    +0.214 A 
ATOM     17  C   UNL     1       6.068   0.591  27.391  0.00  0.00    +0.238 A 
ATOM     18  O   UNL     1       7.039   1.232  27.772  0.00  0.00    -0.283 OA
ATOM     19  C   UNL     1       4.694   1.168  27.403  0.00  0.00    +0.109 A 
ATOM     20  C   UNL     1       3.622   0.302  27.241  0.00  0.00    +0.147 A 
ATOM     21  C   UNL     1       2.283   0.761  27.273  0.00  0.00    +0.092 A 
ATOM     22  C   UNL     1       2.065   2.113  27.462  0.00  0.00    +0.124 A 
ATOM     23  C   UNL     1       3.104   3.010  27.611  0.00  0.00    +0.091 A 
ATOM     24  O   UNL     1       3.782  -1.034  27.030  0.00  0.00    -0.451 OA
ATOM     25  C   UNL     1       4.431   2.532  27.575  0.00  0.00    +0.135 A 
ATOM     26  C   UNL     1       5.045  -1.491  26.706  0.00  0.00    +0.181 A 
BRANCH  26  27
ATOM     27  C   UNL     1       4.961  -2.701  25.879  0.00  0.00    +0.025 A 
ATOM     28  C   UNL     1       4.834  -3.902  26.603  0.00  0.00    +0.015 A 
ATOM     29  C   UNL     1       4.921  -5.129  25.968  0.00  0.00    +0.050 A 
ATOM     30  C   UNL     1       4.966  -5.159  24.585  0.00  0.00    +0.158 A 
ATOM     31  C   UNL     1       4.976  -3.969  23.844  0.00  0.00    +0.162 A 
ATOM     32  C   UNL     1       5.090  -2.736  24.490  0.00  0.00    +0.061 A 
BRANCH  30  33
ATOM     33  O   UNL     1       4.891  -6.372  23.961  0.00  0.00    -0.503 OA
ATOM     34  H   UNL     1       5.432  -6.301  23.157  0.00  0.00    +0.292 HD
ENDBRANCH  30  33
BRANCH  31  35
ATOM     35  O   UNL     1       4.749  -3.948  22.489  0.00  0.00    -0.491 OA
ATOM     36  C   UNL     1       5.790  -3.218  21.820  0.00  0.00    +0.277 C 
ENDBRANCH  31  35
ENDBRANCH  26  27
BRANCH  25  37
ATOM     37  O   UNL     1       5.446   3.434  27.697  0.00  0.00    -0.506 OA
ATOM     38  H   UNL     1       5.808   3.653  26.825  0.00  0.00    +0.292 HD
ENDBRANCH  25  37
BRANCH  22  39
ATOM     39  O   UNL     1       0.792   2.620  27.501  0.00  0.00    -0.507 OA
ATOM     40  H   UNL     1       0.572   2.988  26.616  0.00  0.00    +0.292 HD
ENDBRANCH  22  39
ENDBRANCH  15  16
ENDBRANCH   3  15
BRANCH   1  41
ATOM     41  C   UNL     1       8.892   1.432  23.179  0.00  0.00    +0.197 C 
BRANCH  41  42
ATOM     42  O   UNL     1       8.137   2.470  22.499  0.00  0.00    -0.346 OA
BRANCH  42  46
ATOM     43  C   UNL     1       9.340   6.598  23.722  0.00  0.00    +0.041 C 
ATOM     44  C   UNL     1       9.113   5.382  24.625  0.00  0.00    +0.149 C 
ATOM     45  O   UNL     1       9.141   4.125  23.920  0.00  0.00    -0.343 OA
ATOM     46  C   UNL     1       7.973   3.751  23.182  0.00  0.00    +0.282 C 
ATOM     47  C   UNL     1       6.660   3.883  24.010  0.00  0.00    +0.201 C 
ATOM     48  C   UNL     1       6.585   5.270  24.682  0.00  0.00    +0.179 C 
ATOM     49  C   UNL     1       7.856   5.557  25.490  0.00  0.00    +0.174 C 
BRANCH  49  50
ATOM     50  O   UNL     1       7.898   4.662  26.615  0.00  0.00    -0.387 OA
ATOM     51  H   UNL     1       6.965   4.463  26.851  0.00  0.00    +0.210 HD
ENDBRANCH  49  50
BRANCH  48  52
ATOM     52  O   UNL     1       5.449   5.316  25.565  0.00  0.00    -0.386 OA
ATOM     53  H   UNL     1       5.164   6.255  25.571  0.00  0.00    +0.210 HD
ENDBRANCH  48  52
BRANCH  47  54
ATOM     54  O   UNL     1       6.590   2.886  25.044  0.00  0.00    -0.384 OA
ATOM     55  H   UNL     1       7.425   2.967  25.545  0.00  0.00    +0.210 HD
ENDBRANCH  47  54
ENDBRANCH  42  46
ENDBRANCH  41  42
ENDBRANCH   1  41
TORSDOF 17
ENDMDL
MODEL 4
REMARK VINA RESULT:      -6.9      2.564      6.358
REMARK  Name = 
REMARK  20 active torsions:
REMARK  status: ('A' for Active; 'I' for Inactive)
REMARK    1  A    between atoms: C_1  and  C_2
REMARK    2  A    between atoms: C_3  and  O_53
REMARK    3  A    between atoms: C_5  and  O_52
REMARK    4  A    between atoms: C_6  and  O_51
REMARK    5  A    between atoms: C_8  and  O_11
REMARK    6  A    between atoms: O_11  and  C_12
REMARK    7  A    between atoms: C_12  and  C_13
REMARK    8  A    between atoms: C_14  and  O_50
REMARK    9  A    between atoms: C_16  and  O_49
REMARK   10  A    between atoms: C_18  and  O_45
REMARK   11  A    between atoms: C_19  and  O_22
REMARK   12  A    between atoms: O_22  and  C_23
REMARK   13  A    between atoms: C_24  and  C_36
REMARK   14  A    between atoms: C_28  and  O_35
REMARK   15  A    between atoms: C_30  and  O_34
REMARK   16  A    between atoms: C_38  and  O_43
REMARK   17  A    between atoms: C_39  and  O_42
REMARK   18  A    between atoms: O_43  and  C_44
REMARK   19  A    between atoms: O_45  and  C_46
REMARK   20  A    between atoms: C_46  and  C_48
REMARK                            x       y       z     vdW  Elec       q    Type
REMARK                         _______ _______ _______ _____ _____    ______ ____
ROOT
ATOM      1  C   UNL     1       6.817  -4.012  27.176  0.00  0.00    +0.179 C 
ATOM      2  O   UNL     1       6.659  -2.579  27.051  0.00  0.00    -0.330 OA
ATOM      3  C   UNL     1       6.646  -2.004  25.730  0.00  0.00    +0.352 C 
ATOM      4  C   UNL     1       7.809  -2.488  24.812  0.00  0.00    +0.275 C 
ATOM      5  C   UNL     1       7.894  -4.015  24.889  0.00  0.00    +0.192 C 
ATOM      6  C   UNL     1       8.025  -4.481  26.342  0.00  0.00    +0.178 C 
ENDROOT
BRANCH   6   7
ATOM      7  O   UNL     1       8.233  -5.894  26.354  0.00  0.00    -0.386 OA
ATOM      8  H   UNL     1       7.495  -6.296  25.858  0.00  0.00    +0.210 HD
ENDBRANCH   6   7
BRANCH   5   9
ATOM      9  O   UNL     1       9.001  -4.518  24.128  0.00  0.00    -0.385 OA
ATOM     10  H   UNL     1       9.212  -3.800  23.496  0.00  0.00    +0.210 HD
ENDBRANCH   5   9
BRANCH   4  11
ATOM     11  O   UNL     1       9.090  -1.900  25.189  0.00  0.00    -0.452 OA
BRANCH  11  12
ATOM     12  C   UNL     1       9.795  -1.312  24.176  0.00  0.00    +0.304 C 
ATOM     13  C   UNL     1      10.497  -0.069  24.637  0.00  0.00    +0.136 C 
ATOM     14  O   UNL     1       9.828  -1.684  23.009  0.00  0.00    -0.251 OA
ENDBRANCH  11  12
ENDBRANCH   4  11
BRANCH   3  15
ATOM     15  O   UNL     1       6.756  -0.565  25.807  0.00  0.00    -0.452 OA
BRANCH  15  16
ATOM     16  C   UNL     1       5.655   0.282  25.747  0.00  0.00    +0.214 A 
ATOM     17  C   UNL     1       4.527   0.265  26.738  0.00  0.00    +0.238 A 
ATOM     18  O   UNL     1       4.383  -0.655  27.532  0.00  0.00    -0.283 OA
ATOM     19  C   UNL     1       3.599   1.431  26.711  0.00  0.00    +0.109 A 
ATOM     20  C   UNL     1       3.645   2.276  25.611  0.00  0.00    +0.147 A 
ATOM     21  C   UNL     1       2.776   3.386  25.490  0.00  0.00    +0.092 A 
ATOM     22  C   UNL     1       1.874   3.620  26.511  0.00  0.00    +0.124 A 
ATOM     23  C   UNL     1       1.807   2.813  27.629  0.00  0.00    +0.091 A 
ATOM     24  O   UNL     1       4.529   2.104  24.589  0.00  0.00    -0.451 OA
ATOM     25  C   UNL     1       2.682   1.711  27.732  0.00  0.00    +0.135 A 
ATOM     26  C   UNL     1       5.578   1.225  24.782  0.00  0.00    +0.181 A 
BRANCH  26  27
ATOM     27  C   UNL     1       6.742   1.625  23.982  0.00  0.00    +0.025 A 
ATOM     28  C   UNL     1       6.869   0.953  22.751  0.00  0.00    +0.015 A 
ATOM     29  C   UNL     1       8.007   1.099  21.975  0.00  0.00    +0.050 A 
ATOM     30  C   UNL     1       8.946   2.046  22.345  0.00  0.00    +0.158 A 
ATOM     31  C   UNL     1       8.774   2.806  23.510  0.00  0.00    +0.162 A 
ATOM     32  C   UNL     1       7.731   2.519  24.393  0.00  0.00    +0.061 A 
BRANCH  30  33
ATOM     33  O   UNL     1       9.984   2.296  21.492  0.00  0.00    -0.503 OA
ATOM     34  H   UNL     1      10.792   2.276  22.032  0.00  0.00    +0.292 HD
ENDBRANCH  30  33
BRANCH  31  35
ATOM     35  O   UNL     1       9.525   3.927  23.771  0.00  0.00    -0.491 OA
ATOM     36  C   UNL     1       8.730   5.111  23.599  0.00  0.00    +0.277 C 
ENDBRANCH  31  35
ENDBRANCH  26  27
BRANCH  25  37
ATOM     37  O   UNL     1       2.622   0.940  28.854  0.00  0.00    -0.506 OA
ATOM     38  H   UNL     1       2.369   1.478  29.619  0.00  0.00    +0.292 HD
ENDBRANCH  25  37
BRANCH  22  39
ATOM     39  O   UNL     1       1.007   4.680  26.453  0.00  0.00    -0.507 OA
ATOM     40  H   UNL     1       1.528   5.513  26.441  0.00  0.00    +0.292 HD
ENDBRANCH  22  39
ENDBRANCH  15  16
ENDBRANCH   3  15
BRANCH   1  41
ATOM     41  C   UNL     1       5.486  -4.858  27.040  0.00  0.00    +0.197 C 
BRANCH  41  42
ATOM     42  O   UNL     1       5.157  -5.146  25.655  0.00  0.00    -0.346 OA
BRANCH  42  46
ATOM     43  C   UNL     1       0.874  -6.084  26.527  0.00  0.00    +0.041 C 
ATOM     44  C   UNL     1       2.025  -7.071  26.320  0.00  0.00    +0.149 C 
ATOM     45  O   UNL     1       3.330  -6.477  26.468  0.00  0.00    -0.343 OA
ATOM     46  C   UNL     1       3.838  -5.709  25.373  0.00  0.00    +0.282 C 
ATOM     47  C   UNL     1       3.726  -6.447  24.005  0.00  0.00    +0.201 C 
ATOM     48  C   UNL     1       2.298  -6.995  23.805  0.00  0.00    +0.179 C 
ATOM     49  C   UNL     1       1.865  -7.847  25.003  0.00  0.00    +0.174 C 
BRANCH  49  50
ATOM     50  O   UNL     1       2.662  -9.043  25.031  0.00  0.00    -0.387 OA
ATOM     51  H   UNL     1       3.389  -8.881  25.672  0.00  0.00    +0.210 HD
ENDBRANCH  49  50
BRANCH  48  52
ATOM     52  O   UNL     1       2.256  -7.806  22.616  0.00  0.00    -0.386 OA
ATOM     53  H   UNL     1       1.468  -7.497  22.120  0.00  0.00    +0.210 HD
ENDBRANCH  48  52
BRANCH  47  54
ATOM     54  O   UNL     1       4.640  -7.557  23.933  0.00  0.00    -0.384 OA
ATOM     55  H   UNL     1       4.957  -7.697  24.846  0.00  0.00    +0.210 HD
ENDBRANCH  47  54
ENDBRANCH  42  46
ENDBRANCH  41  42
ENDBRANCH   1  41
TORSDOF 17
ENDMDL
MODEL 5
REMARK VINA RESULT:      -6.9      2.040      3.066
REMARK  Name = 
REMARK  20 active torsions:
REMARK  status: ('A' for Active; 'I' for Inactive)
REMARK    1  A    between atoms: C_1  and  C_2
REMARK    2  A    between atoms: C_3  and  O_53
REMARK    3  A    between atoms: C_5  and  O_52
REMARK    4  A    between atoms: C_6  and  O_51
REMARK    5  A    between atoms: C_8  and  O_11
REMARK    6  A    between atoms: O_11  and  C_12
REMARK    7  A    between atoms: C_12  and  C_13
REMARK    8  A    between atoms: C_14  and  O_50
REMARK    9  A    between atoms: C_16  and  O_49
REMARK   10  A    between atoms: C_18  and  O_45
REMARK   11  A    between atoms: C_19  and  O_22
REMARK   12  A    between atoms: O_22  and  C_23
REMARK   13  A    between atoms: C_24  and  C_36
REMARK   14  A    between atoms: C_28  and  O_35
REMARK   15  A    between atoms: C_30  and  O_34
REMARK   16  A    between atoms: C_38  and  O_43
REMARK   17  A    between atoms: C_39  and  O_42
REMARK   18  A    between atoms: O_43  and  C_44
REMARK   19  A    between atoms: O_45  and  C_46
REMARK   20  A    between atoms: C_46  and  C_48
REMARK                            x       y       z     vdW  Elec       q    Type
REMARK                         _______ _______ _______ _____ _____    ______ ____
ROOT
ATOM      1  C   UNL     1       4.636   0.264  25.981  0.00  0.00    +0.179 C 
ATOM      2  O   UNL     1       5.183   1.082  24.921  0.00  0.00    -0.330 OA
ATOM      3  C   UNL     1       6.465   1.707  25.129  0.00  0.00    +0.352 C 
ATOM      4  C   UNL     1       6.597   2.452  26.492  0.00  0.00    +0.275 C 
ATOM      5  C   UNL     1       6.100   1.529  27.608  0.00  0.00    +0.192 C 
ATOM      6  C   UNL     1       4.680   1.036  27.315  0.00  0.00    +0.178 C 
ENDROOT
BRANCH   6   7
ATOM      7  O   UNL     1       4.211   0.289  28.439  0.00  0.00    -0.386 OA
ATOM      8  H   UNL     1       4.995  -0.096  28.873  0.00  0.00    +0.210 HD
ENDBRANCH   6   7
BRANCH   5   9
ATOM      9  O   UNL     1       6.119   2.189  28.882  0.00  0.00    -0.385 OA
ATOM     10  H   UNL     1       5.192   2.470  29.028  0.00  0.00    +0.210 HD
ENDBRANCH   5   9
BRANCH   4  11
ATOM     11  O   UNL     1       5.847   3.703  26.511  0.00  0.00    -0.452 OA
BRANCH  11  12
ATOM     12  C   UNL     1       6.443   4.744  27.167  0.00  0.00    +0.304 C 
ATOM     13  C   UNL     1       5.666   6.017  27.011  0.00  0.00    +0.136 C 
ATOM     14  O   UNL     1       7.511   4.702  27.767  0.00  0.00    -0.251 OA
ENDBRANCH  11  12
ENDBRANCH   4  11
BRANCH   3  15
ATOM     15  O   UNL     1       6.721   2.687  24.100  0.00  0.00    -0.452 OA
BRANCH  15  16
ATOM     16  C   UNL     1       8.000   3.112  23.761  0.00  0.00    +0.214 A 
ATOM     17  C   UNL     1       8.493   4.519  23.939  0.00  0.00    +0.238 A 
ATOM     18  O   UNL     1       7.726   5.444  24.176  0.00  0.00    -0.283 OA
ATOM     19  C   UNL     1       9.964   4.731  23.823  0.00  0.00    +0.109 A 
ATOM     20  C   UNL     1      10.727   3.712  23.270  0.00  0.00    +0.147 A 
ATOM     21  C   UNL     1      12.124   3.844  23.091  0.00  0.00    +0.092 A 
ATOM     22  C   UNL     1      12.723   5.022  23.496  0.00  0.00    +0.124 A 
ATOM     23  C   UNL     1      12.003   6.053  24.065  0.00  0.00    +0.091 A 
ATOM     24  O   UNL     1      10.190   2.524  22.876  0.00  0.00    -0.451 OA
ATOM     25  C   UNL     1      10.610   5.902  24.235  0.00  0.00    +0.135 A 
ATOM     26  C   UNL     1       8.903   2.228  23.281  0.00  0.00    +0.181 A 
BRANCH  26  27
ATOM     27  C   UNL     1       8.718   0.777  23.399  0.00  0.00    +0.025 A 
ATOM     28  C   UNL     1       8.378   0.127  22.198  0.00  0.00    +0.015 A 
ATOM     29  C   UNL     1       8.002  -1.206  22.191  0.00  0.00    +0.050 A 
ATOM     30  C   UNL     1       8.128  -1.937  23.359  0.00  0.00    +0.158 A 
ATOM     31  C   UNL     1       8.578  -1.328  24.539  0.00  0.00    +0.162 A 
ATOM     32  C   UNL     1       8.764   0.055  24.592  0.00  0.00    +0.061 A 
BRANCH  30  33
ATOM     33  O   UNL     1       7.908  -3.285  23.306  0.00  0.00    -0.503 OA
ATOM     34  H   UNL     1       7.059  -3.441  23.752  0.00  0.00    +0.292 HD
ENDBRANCH  30  33
BRANCH  31  35
ATOM     35  O   UNL     1       8.973  -2.056  25.635  0.00  0.00    -0.491 OA
ATOM     36  C   UNL     1       8.648  -1.353  26.844  0.00  0.00    +0.277 C 
ENDBRANCH  31  35
ENDBRANCH  26  27
BRANCH  25  37
ATOM     37  O   UNL     1       9.916   6.919  24.823  0.00  0.00    -0.506 OA
ATOM     38  H   UNL     1       9.343   7.354  24.174  0.00  0.00    +0.292 HD
ENDBRANCH  25  37
BRANCH  22  39
ATOM     39  O   UNL     1      14.074   5.209  23.352  0.00  0.00    -0.507 OA
ATOM     40  H   UNL     1      14.245   6.166  23.205  0.00  0.00    +0.292 HD
ENDBRANCH  22  39
ENDBRANCH  15  16
ENDBRANCH   3  15
BRANCH   1  41
ATOM     41  C   UNL     1       5.136  -1.237  26.010  0.00  0.00    +0.197 C 
BRANCH  41  42
ATOM     42  O   UNL     1       4.854  -1.935  24.768  0.00  0.00    -0.346 OA
BRANCH  42  46
ATOM     43  C   UNL     1       5.414  -5.976  26.595  0.00  0.00    +0.041 C 
ATOM     44  C   UNL     1       6.066  -5.424  25.324  0.00  0.00    +0.149 C 
ATOM     45  O   UNL     1       6.015  -3.987  25.226  0.00  0.00    -0.343 OA
ATOM     46  C   UNL     1       4.781  -3.394  24.808  0.00  0.00    +0.282 C 
ATOM     47  C   UNL     1       4.192  -4.051  23.524  0.00  0.00    +0.201 C 
ATOM     48  C   UNL     1       4.155  -5.586  23.674  0.00  0.00    +0.179 C 
ATOM     49  C   UNL     1       5.531  -6.132  24.070  0.00  0.00    +0.174 C 
BRANCH  49  50
ATOM     50  O   UNL     1       6.436  -5.943  22.969  0.00  0.00    -0.387 OA
ATOM     51  H   UNL     1       6.130  -6.536  22.249  0.00  0.00    +0.210 HD
ENDBRANCH  49  50
BRANCH  48  52
ATOM     52  O   UNL     1       3.758  -6.182  22.425  0.00  0.00    -0.386 OA
ATOM     53  H   UNL     1       4.590  -6.301  21.920  0.00  0.00    +0.210 HD
ENDBRANCH  48  52
BRANCH  47  54
ATOM     54  O   UNL     1       4.985  -3.739  22.364  0.00  0.00    -0.384 OA
ATOM     55  H   UNL     1       5.090  -2.767  22.372  0.00  0.00    +0.210 HD
ENDBRANCH  47  54
ENDBRANCH  42  46
ENDBRANCH  41  42
ENDBRANCH   1  41
TORSDOF 17
ENDMDL
MODEL 6
REMARK VINA RESULT:      -6.9      2.391      3.124
REMARK  Name = 
REMARK  20 active torsions:
REMARK  status: ('A' for Active; 'I' for Inactive)
REMARK    1  A    between atoms: C_1  and  C_2
REMARK    2  A    between atoms: C_3  and  O_53
REMARK    3  A    between atoms: C_5  and  O_52
REMARK    4  A    between atoms: C_6  and  O_51
REMARK    5  A    between atoms: C_8  and  O_11
REMARK    6  A    between atoms: O_11  and  C_12
REMARK    7  A    between atoms: C_12  and  C_13
REMARK    8  A    between atoms: C_14  and  O_50
REMARK    9  A    between atoms: C_16  and  O_49
REMARK   10  A    between atoms: C_18  and  O_45
REMARK   11  A    between atoms: C_19  and  O_22
REMARK   12  A    between atoms: O_22  and  C_23
REMARK   13  A    between atoms: C_24  and  C_36
REMARK   14  A    between atoms: C_28  and  O_35
REMARK   15  A    between atoms: C_30  and  O_34
REMARK   16  A    between atoms: C_38  and  O_43
REMARK   17  A    between atoms: C_39  and  O_42
REMARK   18  A    between atoms: O_43  and  C_44
REMARK   19  A    between atoms: O_45  and  C_46
REMARK   20  A    between atoms: C_46  and  C_48
REMARK                            x       y       z     vdW  Elec       q    Type
REMARK                         _______ _______ _______ _____ _____    ______ ____
ROOT
ATOM      1  C   UNL     1       4.591  -3.086  26.123  0.00  0.00    +0.179 C 
ATOM      2  O   UNL     1       4.867  -2.098  25.102  0.00  0.00    -0.330 OA
ATOM      3  C   UNL     1       5.562  -0.895  25.482  0.00  0.00    +0.352 C 
ATOM      4  C   UNL     1       4.979  -0.195  26.748  0.00  0.00    +0.275 C 
ATOM      5  C   UNL     1       4.784  -1.245  27.845  0.00  0.00    +0.192 C 
ATOM      6  C   UNL     1       3.928  -2.409  27.340  0.00  0.00    +0.178 C 
ENDROOT
BRANCH   6   7
ATOM      7  O   UNL     1       3.665  -3.294  28.431  0.00  0.00    -0.386 OA
ATOM      8  H   UNL     1       2.705  -3.460  28.439  0.00  0.00    +0.210 HD
ENDBRANCH   6   7
BRANCH   5   9
ATOM      9  O   UNL     1       4.172  -0.677  29.012  0.00  0.00    -0.385 OA
ATOM     10  H   UNL     1       4.312  -1.344  29.714  0.00  0.00    +0.210 HD
ENDBRANCH   5   9
BRANCH   4  11
ATOM     11  O   UNL     1       3.712   0.476  26.473  0.00  0.00    -0.452 OA
BRANCH  11  12
ATOM     12  C   UNL     1       3.598   1.750  26.954  0.00  0.00    +0.304 C 
ATOM     13  C   UNL     1       2.628   2.563  26.149  0.00  0.00    +0.136 C 
ATOM     14  O   UNL     1       4.235   2.230  27.885  0.00  0.00    -0.251 OA
ENDBRANCH  11  12
ENDBRANCH   4  11
BRANCH   3  15
ATOM     15  O   UNL     1       5.507   0.077  24.415  0.00  0.00    -0.452 OA
BRANCH  15  16
ATOM     16  C   UNL     1       6.616   0.800  23.991  0.00  0.00    +0.214 A 
ATOM     17  C   UNL     1       6.833   2.256  24.285  0.00  0.00    +0.238 A 
ATOM     18  O   UNL     1       5.933   2.965  24.717  0.00  0.00    -0.283 OA
ATOM     19  C   UNL     1       8.202   2.791  24.035  0.00  0.00    +0.109 A 
ATOM     20  C   UNL     1       9.074   2.020  23.279  0.00  0.00    +0.147 A 
ATOM     21  C   UNL     1      10.379   2.467  22.965  0.00  0.00    +0.092 A 
ATOM     22  C   UNL     1      10.776   3.702  23.443  0.00  0.00    +0.124 A 
ATOM     23  C   UNL     1       9.944   4.493  24.210  0.00  0.00    +0.091 A 
ATOM     24  O   UNL     1       8.742   0.787  22.804  0.00  0.00    -0.451 OA
ATOM     25  C   UNL     1       8.646   4.029  24.513  0.00  0.00    +0.135 A 
ATOM     26  C   UNL     1       7.607   0.183  23.310  0.00  0.00    +0.181 A 
BRANCH  26  27
ATOM     27  C   UNL     1       7.738  -1.279  23.269  0.00  0.00    +0.025 A 
ATOM     28  C   UNL     1       6.861  -1.924  22.375  0.00  0.00    +0.015 A 
ATOM     29  C   UNL     1       6.749  -3.304  22.359  0.00  0.00    +0.050 A 
ATOM     30  C   UNL     1       7.635  -4.050  23.115  0.00  0.00    +0.158 A 
ATOM     31  C   UNL     1       8.592  -3.422  23.924  0.00  0.00    +0.162 A 
ATOM     32  C   UNL     1       8.572  -2.035  24.092  0.00  0.00    +0.061 A 
BRANCH  30  33
ATOM     33  O   UNL     1       7.623  -5.409  22.973  0.00  0.00    -0.503 OA
ATOM     34  H   UNL     1       8.546  -5.701  23.050  0.00  0.00    +0.292 HD
ENDBRANCH  30  33
BRANCH  31  35
ATOM     35  O   UNL     1       9.650  -4.104  24.473  0.00  0.00    -0.491 OA
ATOM     36  C   UNL     1       9.288  -4.639  25.755  0.00  0.00    +0.277 C 
ENDBRANCH  31  35
ENDBRANCH  26  27
BRANCH  25  37
ATOM     37  O   UNL     1       7.846   4.809  25.295  0.00  0.00    -0.506 OA
ATOM     38  H   UNL     1       7.162   5.234  24.756  0.00  0.00    +0.292 HD
ENDBRANCH  25  37
BRANCH  22  39
ATOM     39  O   UNL     1      12.028   4.190  23.174  0.00  0.00    -0.507 OA
ATOM     40  H   UNL     1      12.595   3.450  22.864  0.00  0.00    +0.292 HD
ENDBRANCH  22  39
ENDBRANCH  15  16
ENDBRANCH   3  15
BRANCH   1  41
ATOM     41  C   UNL     1       5.767  -4.100  26.425  0.00  0.00    +0.197 C 
BRANCH  41  42
ATOM     42  O   UNL     1       5.555  -5.391  25.795  0.00  0.00    -0.346 OA
BRANCH  42  46
ATOM     43  C   UNL     1       1.287  -6.085  26.930  0.00  0.00    +0.041 C 
ATOM     44  C   UNL     1       2.333  -7.131  26.534  0.00  0.00    +0.149 C 
ATOM     45  O   UNL     1       3.690  -6.656  26.628  0.00  0.00    -0.343 OA
ATOM     46  C   UNL     1       4.176  -5.821  25.571  0.00  0.00    +0.282 C 
ATOM     47  C   UNL     1       3.899  -6.407  24.154  0.00  0.00    +0.201 C 
ATOM     48  C   UNL     1       2.420  -6.822  24.024  0.00  0.00    +0.179 C 
ATOM     49  C   UNL     1       2.008  -7.755  25.169  0.00  0.00    +0.174 C 
BRANCH  49  50
ATOM     50  O   UNL     1       2.702  -9.005  25.016  0.00  0.00    -0.387 OA
ATOM     51  H   UNL     1       3.656  -8.787  24.918  0.00  0.00    +0.210 HD
ENDBRANCH  49  50
BRANCH  48  52
ATOM     52  O   UNL     1       2.219  -7.504  22.771  0.00  0.00    -0.386 OA
ATOM     53  H   UNL     1       1.336  -7.214  22.458  0.00  0.00    +0.210 HD
ENDBRANCH  48  52
BRANCH  47  54
ATOM     54  O   UNL     1       4.709  -7.570  23.901  0.00  0.00    -0.384 OA
ATOM     55  H   UNL     1       5.227  -7.360  23.100  0.00  0.00    +0.210 HD
ENDBRANCH  47  54
ENDBRANCH  42  46
ENDBRANCH  41  42
ENDBRANCH   1  41
TORSDOF 17
ENDMDL
MODEL 7
REMARK VINA RESULT:      -6.9      2.138      7.692
REMARK  Name = 
REMARK  20 active torsions:
REMARK  status: ('A' for Active; 'I' for Inactive)
REMARK    1  A    between atoms: C_1  and  C_2
REMARK    2  A    between atoms: C_3  and  O_53
REMARK    3  A    between atoms: C_5  and  O_52
REMARK    4  A    between atoms: C_6  and  O_51
REMARK    5  A    between atoms: C_8  and  O_11
REMARK    6  A    between atoms: O_11  and  C_12
REMARK    7  A    between atoms: C_12  and  C_13
REMARK    8  A    between atoms: C_14  and  O_50
REMARK    9  A    between atoms: C_16  and  O_49
REMARK   10  A    between atoms: C_18  and  O_45
REMARK   11  A    between atoms: C_19  and  O_22
REMARK   12  A    between atoms: O_22  and  C_23
REMARK   13  A    between atoms: C_24  and  C_36
REMARK   14  A    between atoms: C_28  and  O_35
REMARK   15  A    between atoms: C_30  and  O_34
REMARK   16  A    between atoms: C_38  and  O_43
REMARK   17  A    between atoms: C_39  and  O_42
REMARK   18  A    between atoms: O_43  and  C_44
REMARK   19  A    between atoms: O_45  and  C_46
REMARK   20  A    between atoms: C_46  and  C_48
REMARK                            x       y       z     vdW  Elec       q    Type
REMARK                         _______ _______ _______ _____ _____    ______ ____
ROOT
ATOM      1  C   UNL     1       8.001  -3.021  24.317  0.00  0.00    +0.179 C 
ATOM      2  O   UNL     1       7.102  -2.392  25.261  0.00  0.00    -0.330 OA
ATOM      3  C   UNL     1       7.303  -2.636  26.667  0.00  0.00    +0.352 C 
ATOM      4  C   UNL     1       7.481  -4.142  27.032  0.00  0.00    +0.275 C 
ATOM      5  C   UNL     1       8.507  -4.762  26.080  0.00  0.00    +0.192 C 
ATOM      6  C   UNL     1       8.106  -4.529  24.620  0.00  0.00    +0.178 C 
ENDROOT
BRANCH   6   7
ATOM      7  O   UNL     1       9.017  -5.235  23.776  0.00  0.00    -0.386 OA
ATOM      8  H   UNL     1       9.749  -4.624  23.572  0.00  0.00    +0.210 HD
ENDBRANCH   6   7
BRANCH   5   9
ATOM      9  O   UNL     1       8.655  -6.170  26.313  0.00  0.00    -0.385 OA
ATOM     10  H   UNL     1       8.804  -6.552  25.424  0.00  0.00    +0.210 HD
ENDBRANCH   5   9
BRANCH   4  11
ATOM     11  O   UNL     1       6.225  -4.880  26.957  0.00  0.00    -0.452 OA
BRANCH  11  12
ATOM     12  C   UNL     1       5.938  -5.676  28.031  0.00  0.00    +0.304 C 
ATOM     13  C   UNL     1       4.497  -5.567  28.435  0.00  0.00    +0.136 C 
ATOM     14  O   UNL     1       6.740  -6.361  28.656  0.00  0.00    -0.251 OA
ENDBRANCH  11  12
ENDBRANCH   4  11
BRANCH   3  15
ATOM     15  O   UNL     1       6.170  -2.161  27.427  0.00  0.00    -0.452 OA
BRANCH  15  16
ATOM     16  C   UNL     1       5.562  -0.934  27.191  0.00  0.00    +0.214 A 
ATOM     17  C   UNL     1       6.274   0.385  27.262  0.00  0.00    +0.238 A 
ATOM     18  O   UNL     1       7.386   0.489  27.764  0.00  0.00    -0.283 OA
ATOM     19  C   UNL     1       5.564   1.559  26.680  0.00  0.00    +0.109 A 
ATOM     20  C   UNL     1       4.211   1.430  26.401  0.00  0.00    +0.147 A 
ATOM     21  C   UNL     1       3.453   2.505  25.880  0.00  0.00    +0.092 A 
ATOM     22  C   UNL     1       4.102   3.702  25.642  0.00  0.00    +0.124 A 
ATOM     23  C   UNL     1       5.450   3.867  25.890  0.00  0.00    +0.091 A 
ATOM     24  O   UNL     1       3.529   0.267  26.597  0.00  0.00    -0.451 OA
ATOM     25  C   UNL     1       6.188   2.783  26.410  0.00  0.00    +0.135 A 
ATOM     26  C   UNL     1       4.261  -0.882  26.826  0.00  0.00    +0.181 A 
BRANCH  26  27
ATOM     27  C   UNL     1       3.533  -2.064  26.349  0.00  0.00    +0.025 A 
ATOM     28  C   UNL     1       2.435  -2.441  27.146  0.00  0.00    +0.015 A 
ATOM     29  C   UNL     1       1.766  -3.632  26.919  0.00  0.00    +0.050 A 
ATOM     30  C   UNL     1       2.084  -4.367  25.791  0.00  0.00    +0.158 A 
ATOM     31  C   UNL     1       3.099  -3.941  24.922  0.00  0.00    +0.162 A 
ATOM     32  C   UNL     1       3.904  -2.851  25.259  0.00  0.00    +0.061 A 
BRANCH  30  33
ATOM     33  O   UNL     1       1.314  -5.454  25.488  0.00  0.00    -0.503 OA
ATOM     34  H   UNL     1       1.069  -5.364  24.552  0.00  0.00    +0.292 HD
ENDBRANCH  30  33
BRANCH  31  35
ATOM     35  O   UNL     1       3.265  -4.479  23.669  0.00  0.00    -0.491 OA
ATOM     36  C   UNL     1       4.568  -5.069  23.548  0.00  0.00    +0.277 C 
ENDBRANCH  31  35
ENDBRANCH  26  27
BRANCH  25  37
ATOM     37  O   UNL     1       7.524   2.954  26.625  0.00  0.00    -0.506 OA
ATOM     38  H   UNL     1       7.862   2.258  27.208  0.00  0.00    +0.292 HD
ENDBRANCH  25  37
BRANCH  22  39
ATOM     39  O   UNL     1       3.423   4.781  25.136  0.00  0.00    -0.507 OA
ATOM     40  H   UNL     1       3.566   4.815  24.165  0.00  0.00    +0.292 HD
ENDBRANCH  22  39
ENDBRANCH  15  16
ENDBRANCH   3  15
BRANCH   1  41
ATOM     41  C   UNL     1       9.358  -2.252  24.051  0.00  0.00    +0.197 C 
BRANCH  41  42
ATOM     42  O   UNL     1       9.476  -1.051  24.859  0.00  0.00    -0.346 OA
BRANCH  42  46
ATOM     43  C   UNL     1       6.544   1.563  22.724  0.00  0.00    +0.041 C 
ATOM     44  C   UNL     1       7.966   1.199  22.287  0.00  0.00    +0.149 C 
ATOM     45  O   UNL     1       8.496   0.037  22.954  0.00  0.00    -0.343 OA
ATOM     46  C   UNL     1       8.986   0.203  24.289  0.00  0.00    +0.282 C 
ATOM     47  C   UNL     1       9.961   1.409  24.436  0.00  0.00    +0.201 C 
ATOM     48  C   UNL     1       9.347   2.677  23.809  0.00  0.00    +0.179 C 
ATOM     49  C   UNL     1       8.902   2.415  22.366  0.00  0.00    +0.174 C 
BRANCH  49  50
ATOM     50  O   UNL     1      10.070   2.196  21.556  0.00  0.00    -0.387 OA
ATOM     51  H   UNL     1       9.794   1.608  20.818  0.00  0.00    +0.210 HD
ENDBRANCH  49  50
BRANCH  48  52
ATOM     52  O   UNL     1      10.321   3.737  23.812  0.00  0.00    -0.386 OA
ATOM     53  H   UNL     1      11.192   3.287  23.856  0.00  0.00    +0.210 HD
ENDBRANCH  48  52
BRANCH  47  54
ATOM     54  O   UNL     1      11.215   1.152  23.776  0.00  0.00    -0.384 OA
ATOM     55  H   UNL     1      11.175   0.218  23.491  0.00  0.00    +0.210 HD
ENDBRANCH  47  54
ENDBRANCH  42  46
ENDBRANCH  41  42
ENDBRANCH   1  41
TORSDOF 17
ENDMDL
MODEL 8
REMARK VINA RESULT:      -6.8      2.846      8.485
REMARK  Name = 
REMARK  20 active torsions:
REMARK  status: ('A' for Active; 'I' for Inactive)
REMARK    1  A    between atoms: C_1  and  C_2
REMARK    2  A    between atoms: C_3  and  O_53
REMARK    3  A    between atoms: C_5  and  O_52
REMARK    4  A    between atoms: C_6  and  O_51
REMARK    5  A    between atoms: C_8  and  O_11
REMARK    6  A    between atoms: O_11  and  C_12
REMARK    7  A    between atoms: C_12  and  C_13
REMARK    8  A    between atoms: C_14  and  O_50
REMARK    9  A    between atoms: C_16  and  O_49
REMARK   10  A    between atoms: C_18  and  O_45
REMARK   11  A    between atoms: C_19  and  O_22
REMARK   12  A    between atoms: O_22  and  C_23
REMARK   13  A    between atoms: C_24  and  C_36
REMARK   14  A    between atoms: C_28  and  O_35
REMARK   15  A    between atoms: C_30  and  O_34
REMARK   16  A    between atoms: C_38  and  O_43
REMARK   17  A    between atoms: C_39  and  O_42
REMARK   18  A    between atoms: O_43  and  C_44
REMARK   19  A    between atoms: O_45  and  C_46
REMARK   20  A    between atoms: C_46  and  C_48
REMARK                            x       y       z     vdW  Elec       q    Type
REMARK                         _______ _______ _______ _____ _____    ______ ____
ROOT
ATOM      1  C   UNL     1       7.607  -2.230  25.754  0.00  0.00    +0.179 C 
ATOM      2  O   UNL     1       6.277  -2.335  26.313  0.00  0.00    -0.330 OA
ATOM      3  C   UNL     1       6.062  -3.247  27.407  0.00  0.00    +0.352 C 
ATOM      4  C   UNL     1       6.649  -4.672  27.173  0.00  0.00    +0.275 C 
ATOM      5  C   UNL     1       8.089  -4.535  26.673  0.00  0.00    +0.192 C 
ATOM      6  C   UNL     1       8.153  -3.636  25.435  0.00  0.00    +0.178 C 
ENDROOT
BRANCH   6   7
ATOM      7  O   UNL     1       9.490  -3.644  24.929  0.00  0.00    -0.386 OA
ATOM      8  H   UNL     1       9.989  -4.300  25.451  0.00  0.00    +0.210 HD
ENDBRANCH   6   7
BRANCH   5   9
ATOM      9  O   UNL     1       8.659  -5.814  26.359  0.00  0.00    -0.385 OA
ATOM     10  H   UNL     1       9.423  -5.609  25.781  0.00  0.00    +0.210 HD
ENDBRANCH   5   9
BRANCH   4  11
ATOM     11  O   UNL     1       5.862  -5.442  26.215  0.00  0.00    -0.452 OA
BRANCH  11  12
ATOM     12  C   UNL     1       5.307  -6.596  26.694  0.00  0.00    +0.304 C 
ATOM     13  C   UNL     1       4.304  -7.169  25.735  0.00  0.00    +0.136 C 
ATOM     14  O   UNL     1       5.524  -7.102  27.789  0.00  0.00    -0.251 OA
ENDBRANCH  11  12
ENDBRANCH   4  11
BRANCH   3  15
ATOM     15  O   UNL     1       4.648  -3.421  27.648  0.00  0.00    -0.452 OA
BRANCH  15  16
ATOM     16  C   UNL     1       3.742  -2.367  27.623  0.00  0.00    +0.214 A 
ATOM     17  C   UNL     1       3.836  -1.156  28.505  0.00  0.00    +0.238 A 
ATOM     18  O   UNL     1       4.587  -1.122  29.472  0.00  0.00    -0.283 OA
ATOM     19  C   UNL     1       2.979   0.006  28.137  0.00  0.00    +0.109 A 
ATOM     20  C   UNL     1       1.954  -0.203  27.224  0.00  0.00    +0.147 A 
ATOM     21  C   UNL     1       1.072   0.837  26.845  0.00  0.00    +0.092 A 
ATOM     22  C   UNL     1       1.263   2.087  27.404  0.00  0.00    +0.124 A 
ATOM     23  C   UNL     1       2.279   2.340  28.303  0.00  0.00    +0.091 A 
ATOM     24  O   UNL     1       1.737  -1.408  26.627  0.00  0.00    -0.451 OA
ATOM     25  C   UNL     1       3.149   1.290  28.668  0.00  0.00    +0.135 A 
ATOM     26  C   UNL     1       2.723  -2.370  26.734  0.00  0.00    +0.181 A 
BRANCH  26  27
ATOM     27  C   UNL     1       2.700  -3.266  25.571  0.00  0.00    +0.025 A 
ATOM     28  C   UNL     1       1.539  -4.053  25.456  0.00  0.00    +0.015 A 
ATOM     29  C   UNL     1       1.454  -5.064  24.514  0.00  0.00    +0.050 A 
ATOM     30  C   UNL     1       2.462  -5.181  23.573  0.00  0.00    +0.158 A 
ATOM     31  C   UNL     1       3.573  -4.326  23.606  0.00  0.00    +0.162 A 
ATOM     32  C   UNL     1       3.752  -3.442  24.672  0.00  0.00    +0.061 A 
BRANCH  30  33
ATOM     33  O   UNL     1       2.296  -6.075  22.553  0.00  0.00    -0.503 OA
ATOM     34  H   UNL     1       1.390  -6.415  22.632  0.00  0.00    +0.292 HD
ENDBRANCH  30  33
BRANCH  31  35
ATOM     35  O   UNL     1       4.450  -4.224  22.554  0.00  0.00    -0.491 OA
ATOM     36  C   UNL     1       5.445  -3.225  22.828  0.00  0.00    +0.277 C 
ENDBRANCH  31  35
ENDBRANCH  26  27
BRANCH  25  37
ATOM     37  O   UNL     1       4.164   1.563  29.536  0.00  0.00    -0.506 OA
ATOM     38  H   UNL     1       3.992   1.150  30.395  0.00  0.00    +0.292 HD
ENDBRANCH  25  37
BRANCH  22  39
ATOM     39  O   UNL     1       0.443   3.135  27.076  0.00  0.00    -0.507 OA
ATOM     40  H   UNL     1       0.327   3.704  27.869  0.00  0.00    +0.292 HD
ENDBRANCH  22  39
ENDBRANCH  15  16
ENDBRANCH   3  15
BRANCH   1  41
ATOM     41  C   UNL     1       8.586  -1.240  26.507  0.00  0.00    +0.197 C 
BRANCH  41  42
ATOM     42  O   UNL     1       8.733   0.025  25.808  0.00  0.00    -0.346 OA
BRANCH  42  46
ATOM     43  C   UNL     1       9.232  -1.668  21.701  0.00  0.00    +0.041 C 
ATOM     44  C   UNL     1       9.835  -0.377  22.262  0.00  0.00    +0.149 C 
ATOM     45  O   UNL     1       9.835  -0.317  23.702  0.00  0.00    -0.343 OA
ATOM     46  C   UNL     1       8.605   0.017  24.352  0.00  0.00    +0.282 C 
ATOM     47  C   UNL     1       7.920   1.282  23.753  0.00  0.00    +0.201 C 
ATOM     48  C   UNL     1       7.831   1.168  22.217  0.00  0.00    +0.179 C 
ATOM     49  C   UNL     1       9.205   0.862  21.609  0.00  0.00    +0.174 C 
BRANCH  49  50
ATOM     50  O   UNL     1      10.055   2.007  21.792  0.00  0.00    -0.387 OA
ATOM     51  H   UNL     1       9.966   2.275  22.734  0.00  0.00    +0.210 HD
ENDBRANCH  49  50
BRANCH  48  52
ATOM     52  O   UNL     1       7.343   2.407  21.670  0.00  0.00    -0.386 OA
ATOM     53  H   UNL     1       6.658   2.716  22.301  0.00  0.00    +0.210 HD
ENDBRANCH  48  52
BRANCH  47  54
ATOM     54  O   UNL     1       8.661   2.476  24.066  0.00  0.00    -0.384 OA
ATOM     55  H   UNL     1       8.684   2.995  23.238  0.00  0.00    +0.210 HD
ENDBRANCH  47  54
ENDBRANCH  42  46
ENDBRANCH  41  42
ENDBRANCH   1  41
TORSDOF 17
ENDMDL
MODEL 9
REMARK VINA RESULT:      -6.6      2.588      5.769
REMARK  Name = 
REMARK  20 active torsions:
REMARK  status: ('A' for Active; 'I' for Inactive)
REMARK    1  A    between atoms: C_1  and  C_2
REMARK    2  A    between atoms: C_3  and  O_53
REMARK    3  A    between atoms: C_5  and  O_52
REMARK    4  A    between atoms: C_6  and  O_51
REMARK    5  A    between atoms: C_8  and  O_11
REMARK    6  A    between atoms: O_11  and  C_12
REMARK    7  A    between atoms: C_12  and  C_13
REMARK    8  A    between atoms: C_14  and  O_50
REMARK    9  A    between atoms: C_16  and  O_49
REMARK   10  A    between atoms: C_18  and  O_45
REMARK   11  A    between atoms: C_19  and  O_22
REMARK   12  A    between atoms: O_22  and  C_23
REMARK   13  A    between atoms: C_24  and  C_36
REMARK   14  A    between atoms: C_28  and  O_35
REMARK   15  A    between atoms: C_30  and  O_34
REMARK   16  A    between atoms: C_38  and  O_43
REMARK   17  A    between atoms: C_39  and  O_42
REMARK   18  A    between atoms: O_43  and  C_44
REMARK   19  A    between atoms: O_45  and  C_46
REMARK   20  A    between atoms: C_46  and  C_48
REMARK                            x       y       z     vdW  Elec       q    Type
REMARK                         _______ _______ _______ _____ _____    ______ ____
ROOT
ATOM      1  C   UNL     1       8.818  -4.262  26.512  0.00  0.00    +0.179 C 
ATOM      2  O   UNL     1       8.628  -2.873  26.871  0.00  0.00    -0.330 OA
ATOM      3  C   UNL     1       7.849  -2.038  25.993  0.00  0.00    +0.352 C 
ATOM      4  C   UNL     1       8.253  -2.142  24.491  0.00  0.00    +0.275 C 
ATOM      5  C   UNL     1       8.356  -3.622  24.110  0.00  0.00    +0.192 C 
ATOM      6  C   UNL     1       9.308  -4.362  25.053  0.00  0.00    +0.178 C 
ENDROOT
BRANCH   6   7
ATOM      7  O   UNL     1       9.473  -5.701  24.582  0.00  0.00    -0.386 OA
ATOM      8  H   UNL     1      10.344  -5.745  24.146  0.00  0.00    +0.210 HD
ENDBRANCH   6   7
BRANCH   5   9
ATOM      9  O   UNL     1       8.806  -3.785  22.757  0.00  0.00    -0.385 OA
ATOM     10  H   UNL     1       8.303  -4.556  22.422  0.00  0.00    +0.210 HD
ENDBRANCH   5   9
BRANCH   4  11
ATOM     11  O   UNL     1       9.518  -1.469  24.211  0.00  0.00    -0.452 OA
BRANCH  11  12
ATOM     12  C   UNL     1       9.833  -1.321  22.889  0.00  0.00    +0.304 C 
ATOM     13  C   UNL     1       8.789  -0.532  22.155  0.00  0.00    +0.136 C 
ATOM     14  O   UNL     1      10.802  -1.807  22.319  0.00  0.00    -0.251 OA
ENDBRANCH  11  12
ENDBRANCH   4  11
BRANCH   3  15
ATOM     15  O   UNL     1       7.994  -0.648  26.360  0.00  0.00    -0.452 OA
BRANCH  15  16
ATOM     16  C   UNL     1       7.274   0.374  25.752  0.00  0.00    +0.214 A 
ATOM     17  C   UNL     1       7.879   1.396  24.833  0.00  0.00    +0.238 A 
ATOM     18  O   UNL     1       9.091   1.542  24.743  0.00  0.00    -0.283 OA
ATOM     19  C   UNL     1       6.928   2.216  24.030  0.00  0.00    +0.109 A 
ATOM     20  C   UNL     1       5.589   2.205  24.394  0.00  0.00    +0.147 A 
ATOM     21  C   UNL     1       4.625   2.981  23.707  0.00  0.00    +0.092 A 
ATOM     22  C   UNL     1       5.052   3.754  22.643  0.00  0.00    +0.124 A 
ATOM     23  C   UNL     1       6.372   3.781  22.240  0.00  0.00    +0.091 A 
ATOM     24  O   UNL     1       5.113   1.445  25.419  0.00  0.00    -0.451 OA
ATOM     25  C   UNL     1       7.317   3.000  22.937  0.00  0.00    +0.135 A 
ATOM     26  C   UNL     1       5.938   0.463  25.934  0.00  0.00    +0.181 A 
BRANCH  26  27
ATOM     27  C   UNL     1       5.145  -0.646  26.477  0.00  0.00    +0.025 A 
ATOM     28  C   UNL     1       5.144  -0.737  27.882  0.00  0.00    +0.015 A 
ATOM     29  C   UNL     1       4.588  -1.831  28.525  0.00  0.00    +0.050 A 
ATOM     30  C   UNL     1       3.882  -2.753  27.773  0.00  0.00    +0.158 A 
ATOM     31  C   UNL     1       3.776  -2.613  26.382  0.00  0.00    +0.162 A 
ATOM     32  C   UNL     1       4.503  -1.624  25.716  0.00  0.00    +0.061 A 
BRANCH  30  33
ATOM     33  O   UNL     1       3.203  -3.741  28.430  0.00  0.00    -0.503 OA
ATOM     34  H   UNL     1       3.739  -4.547  28.342  0.00  0.00    +0.292 HD
ENDBRANCH  30  33
BRANCH  31  35
ATOM     35  O   UNL     1       2.877  -3.337  25.638  0.00  0.00    -0.491 OA
ATOM     36  C   UNL     1       1.551  -2.810  25.807  0.00  0.00    +0.277 C 
ENDBRANCH  31  35
ENDBRANCH  26  27
BRANCH  25  37
ATOM     37  O   UNL     1       8.612   3.017  22.509  0.00  0.00    -0.506 OA
ATOM     38  H   UNL     1       8.930   3.929  22.437  0.00  0.00    +0.292 HD
ENDBRANCH  25  37
BRANCH  22  39
ATOM     39  O   UNL     1       4.167   4.526  21.937  0.00  0.00    -0.507 OA
ATOM     40  H   UNL     1       4.673   5.177  21.403  0.00  0.00    +0.292 HD
ENDBRANCH  22  39
ENDBRANCH  15  16
ENDBRANCH   3  15
BRANCH   1  41
ATOM     41  C   UNL     1       7.653  -5.243  26.941  0.00  0.00    +0.197 C 
BRANCH  41  42
ATOM     42  O   UNL     1       6.361  -4.815  26.436  0.00  0.00    -0.346 OA
BRANCH  42  46
ATOM     43  C   UNL     1       5.828  -5.919  22.137  0.00  0.00    +0.041 C 
ATOM     44  C   UNL     1       4.784  -5.327  23.088  0.00  0.00    +0.149 C 
ATOM     45  O   UNL     1       5.354  -4.707  24.258  0.00  0.00    -0.343 OA
ATOM     46  C   UNL     1       5.785  -5.564  25.320  0.00  0.00    +0.282 C 
ATOM     47  C   UNL     1       4.712  -6.617  25.729  0.00  0.00    +0.201 C 
ATOM     48  C   UNL     1       4.177  -7.351  24.482  0.00  0.00    +0.179 C 
ATOM     49  C   UNL     1       3.691  -6.353  23.425  0.00  0.00    +0.174 C 
BRANCH  49  50
ATOM     50  O   UNL     1       2.520  -5.684  23.926  0.00  0.00    -0.387 OA
ATOM     51  H   UNL     1       2.121  -5.208  23.164  0.00  0.00    +0.210 HD
ENDBRANCH  49  50
BRANCH  48  52
ATOM     52  O   UNL     1       3.080  -8.203  24.859  0.00  0.00    -0.386 OA
ATOM     53  H   UNL     1       2.271  -7.714  24.597  0.00  0.00    +0.210 HD
ENDBRANCH  48  52
BRANCH  47  54
ATOM     54  O   UNL     1       3.595  -5.997  26.391  0.00  0.00    -0.384 OA
ATOM     55  H   UNL     1       3.963  -5.221  26.856  0.00  0.00    +0.210 HD
ENDBRANCH  47  54
ENDBRANCH  42  46
ENDBRANCH  41  42
ENDBRANCH   1  41
TORSDOF 17
ENDMDL
