MODEL 1
REMARK VINA RESULT:      -7.5      0.000      0.000
REMARK  Name = 
REMARK  21 active torsions:
REMARK  status: ('A' for Active; 'I' for Inactive)
REMARK    1  A    between atoms: C_1  and  C_2
REMARK    2  A    between atoms: C_3  and  O_52
REMARK    3  A    between atoms: C_5  and  O_48
REMARK    4  A    between atoms: C_6  and  O_47
REMARK    5  A    between atoms: C_8  and  O_11
REMARK    6  A    between atoms: O_11  and  C_12
REMARK    7  A    between atoms: C_12  and  C_13
REMARK    8  A    between atoms: C_14  and  O_46
REMARK    9  A    between atoms: C_16  and  O_45
REMARK   10  A    between atoms: C_18  and  O_44
REMARK   11  A    between atoms: C_19  and  O_22
REMARK   12  A    between atoms: O_22  and  C_23
REMARK   13  A    between atoms: C_24  and  C_36
REMARK   14  A    between atoms: C_28  and  O_35
REMARK   15  A    between atoms: C_30  and  O_34
REMARK   16  A    between atoms: C_38  and  O_43
REMARK   17  A    between atoms: C_39  and  O_42
REMARK   18  A    between atoms: O_48  and  C_49
REMARK   19  A    between atoms: C_49  and  C_51
REMARK   20  A    between atoms: O_52  and  C_53
REMARK   21  A    between atoms: C_53  and  C_55
REMARK                            x       y       z     vdW  Elec       q    Type
REMARK                         _______ _______ _______ _____ _____    ______ ____
ROOT
ATOM      1  C   UNL     1       5.002   0.186  26.592  0.00  0.00    +0.179 C 
ATOM      2  O   UNL     1       5.514   0.971  25.497  0.00  0.00    -0.331 OA
ATOM      3  C   UNL     1       6.848   1.537  25.619  0.00  0.00    +0.340 C 
ATOM      4  C   UNL     1       6.989   2.314  26.956  0.00  0.00    +0.214 C 
ATOM      5  C   UNL     1       6.709   1.319  28.083  0.00  0.00    +0.180 C 
ATOM      6  C   UNL     1       5.258   0.846  27.975  0.00  0.00    +0.177 C 
ENDROOT
BRANCH   6   7
ATOM      7  O   UNL     1       4.984  -0.023  29.082  0.00  0.00    -0.386 OA
ATOM      8  H   UNL     1       5.740  -0.631  29.169  0.00  0.00    +0.210 HD
ENDBRANCH   6   7
BRANCH   5   9
ATOM      9  O   UNL     1       6.931   1.894  29.376  0.00  0.00    -0.386 OA
ATOM     10  H   UNL     1       6.048   1.942  29.790  0.00  0.00    +0.210 HD
ENDBRANCH   5   9
BRANCH   4  11
ATOM     11  O   UNL     1       6.066   3.426  27.039  0.00  0.00    -0.383 OA
ATOM     12  H   UNL     1       5.227   3.153  26.628  0.00  0.00    +0.210 HD
ENDBRANCH   4  11
BRANCH   3  13
ATOM     13  O   UNL     1       7.004   2.423  24.498  0.00  0.00    -0.453 OA
BRANCH  13  14
ATOM     14  C   UNL     1       8.245   2.918  24.118  0.00  0.00    +0.214 A 
ATOM     15  C   UNL     1       8.699   4.305  24.390  0.00  0.00    +0.238 A 
ATOM     16  O   UNL     1       7.981   5.085  24.976  0.00  0.00    -0.283 OA
ATOM     17  C   UNL     1      10.118   4.636  24.031  0.00  0.00    +0.109 A 
ATOM     18  C   UNL     1      10.868   3.684  23.343  0.00  0.00    +0.147 A 
ATOM     19  C   UNL     1      12.204   3.908  22.986  0.00  0.00    +0.092 A 
ATOM     20  C   UNL     1      12.802   5.104  23.349  0.00  0.00    +0.124 A 
ATOM     21  C   UNL     1      12.084   6.067  24.052  0.00  0.00    +0.091 A 
ATOM     22  O   UNL     1      10.372   2.453  23.021  0.00  0.00    -0.451 OA
ATOM     23  C   UNL     1      10.747   5.832  24.390  0.00  0.00    +0.135 A 
ATOM     24  C   UNL     1       9.146   2.101  23.532  0.00  0.00    +0.181 A 
BRANCH  24  25
ATOM     25  C   UNL     1       9.016   0.650  23.649  0.00  0.00    +0.025 A 
ATOM     26  C   UNL     1       9.821   0.032  24.625  0.00  0.00    +0.015 A 
ATOM     27  C   UNL     1       9.818  -1.348  24.776  0.00  0.00    +0.050 A 
ATOM     28  C   UNL     1       8.938  -2.100  24.004  0.00  0.00    +0.158 A 
ATOM     29  C   UNL     1       8.117  -1.482  23.058  0.00  0.00    +0.159 A 
ATOM     30  C   UNL     1       8.188  -0.114  22.836  0.00  0.00    +0.060 A 
BRANCH  28  31
ATOM     31  O   UNL     1       8.842  -3.445  24.214  0.00  0.00    -0.503 OA
ATOM     32  H   UNL     1       7.895  -3.630  24.359  0.00  0.00    +0.292 HD
ENDBRANCH  28  31
BRANCH  29  33
ATOM     33  O   UNL     1       7.161  -2.160  22.357  0.00  0.00    -0.503 OA
ATOM     34  H   UNL     1       6.426  -2.324  22.970  0.00  0.00    +0.292 HD
ENDBRANCH  29  33
ENDBRANCH  24  25
BRANCH  23  35
ATOM     35  O   UNL     1      10.078   6.777  25.113  0.00  0.00    -0.506 OA
ATOM     36  H   UNL     1       9.494   6.352  25.765  0.00  0.00    +0.292 HD
ENDBRANCH  23  35
BRANCH  20  37
ATOM     37  O   UNL     1      14.104   5.371  23.053  0.00  0.00    -0.507 OA
ATOM     38  H   UNL     1      14.452   4.682  22.462  0.00  0.00    +0.292 HD
ENDBRANCH  20  37
ENDBRANCH  13  14
ENDBRANCH   3  13
BRANCH   1  39
ATOM     39  C   UNL     1       5.434  -1.307  26.558  0.00  0.00    +0.197 C 
BRANCH  39  40
ATOM     40  O   UNL     1       4.400  -2.258  26.800  0.00  0.00    -0.346 OA
BRANCH  40  44
ATOM     41  C   UNL     1       5.535  -6.397  26.757  0.00  0.00    +0.042 C 
ATOM     42  C   UNL     1       6.041  -5.338  25.781  0.00  0.00    +0.163 C 
ATOM     43  O   UNL     1       5.757  -4.015  26.258  0.00  0.00    -0.342 OA
ATOM     44  C   UNL     1       4.396  -3.536  26.172  0.00  0.00    +0.283 C 
ATOM     45  C   UNL     1       3.904  -3.629  24.696  0.00  0.00    +0.214 C 
ATOM     46  C   UNL     1       4.056  -5.104  24.272  0.00  0.00    +0.253 C 
ATOM     47  C   UNL     1       5.526  -5.571  24.345  0.00  0.00    +0.248 C 
BRANCH  45  48
ATOM     48  O   UNL     1       4.592  -2.733  23.813  0.00  0.00    -0.383 OA
ATOM     49  H   UNL     1       4.830  -1.930  24.315  0.00  0.00    +0.210 HD
ENDBRANCH  45  48
BRANCH  46  50
ATOM     50  O   UNL     1       3.493  -5.349  22.968  0.00  0.00    -0.455 OA
BRANCH  50  51
ATOM     51  C   UNL     1       2.272  -5.977  23.028  0.00  0.00    +0.304 C 
ATOM     52  C   UNL     1       2.344  -7.260  23.803  0.00  0.00    +0.136 C 
ATOM     53  O   UNL     1       1.256  -5.572  22.477  0.00  0.00    -0.251 OA
ENDBRANCH  50  51
ENDBRANCH  46  50
BRANCH  47  54
ATOM     54  O   UNL     1       6.334  -4.809  23.401  0.00  0.00    -0.455 OA
BRANCH  54  55
ATOM     55  C   UNL     1       7.092  -5.546  22.529  0.00  0.00    +0.304 C 
ATOM     56  C   UNL     1       6.428  -5.644  21.190  0.00  0.00    +0.136 C 
ATOM     57  O   UNL     1       8.185  -6.032  22.801  0.00  0.00    -0.251 OA
ENDBRANCH  54  55
ENDBRANCH  47  54
ENDBRANCH  40  44
ENDBRANCH  39  40
ENDBRANCH   1  39
TORSDOF 18
ENDMDL
MODEL 2
REMARK VINA RESULT:      -7.3      2.445      6.525
REMARK  Name = 
REMARK  21 active torsions:
REMARK  status: ('A' for Active; 'I' for Inactive)
REMARK    1  A    between atoms: C_1  and  C_2
REMARK    2  A    between atoms: C_3  and  O_52
REMARK    3  A    between atoms: C_5  and  O_48
REMARK    4  A    between atoms: C_6  and  O_47
REMARK    5  A    between atoms: C_8  and  O_11
REMARK    6  A    between atoms: O_11  and  C_12
REMARK    7  A    between atoms: C_12  and  C_13
REMARK    8  A    between atoms: C_14  and  O_46
REMARK    9  A    between atoms: C_16  and  O_45
REMARK   10  A    between atoms: C_18  and  O_44
REMARK   11  A    between atoms: C_19  and  O_22
REMARK   12  A    between atoms: O_22  and  C_23
REMARK   13  A    between atoms: C_24  and  C_36
REMARK   14  A    between atoms: C_28  and  O_35
REMARK   15  A    between atoms: C_30  and  O_34
REMARK   16  A    between atoms: C_38  and  O_43
REMARK   17  A    between atoms: C_39  and  O_42
REMARK   18  A    between atoms: O_48  and  C_49
REMARK   19  A    between atoms: C_49  and  C_51
REMARK   20  A    between atoms: O_52  and  C_53
REMARK   21  A    between atoms: C_53  and  C_55
REMARK                            x       y       z     vdW  Elec       q    Type
REMARK                         _______ _______ _______ _____ _____    ______ ____
ROOT
ATOM      1  C   UNL     1       9.890  -1.416  23.912  0.00  0.00    +0.179 C 
ATOM      2  O   UNL     1       9.424  -0.524  24.944  0.00  0.00    -0.331 OA
ATOM      3  C   UNL     1       8.353   0.405  24.620  0.00  0.00    +0.340 C 
ATOM      4  C   UNL     1       8.695   1.200  23.330  0.00  0.00    +0.214 C 
ATOM      5  C   UNL     1       8.890   0.175  22.213  0.00  0.00    +0.180 C 
ATOM      6  C   UNL     1      10.099  -0.699  22.549  0.00  0.00    +0.177 C 
ENDROOT
BRANCH   6   7
ATOM      7  O   UNL     1      10.320  -1.603  21.458  0.00  0.00    -0.386 OA
ATOM      8  H   UNL     1       9.449  -1.924  21.165  0.00  0.00    +0.210 HD
ENDBRANCH   6   7
BRANCH   5   9
ATOM      9  O   UNL     1       9.090   0.800  20.938  0.00  0.00    -0.386 OA
ATOM     10  H   UNL     1       8.223   1.183  20.703  0.00  0.00    +0.210 HD
ENDBRANCH   5   9
BRANCH   4  11
ATOM     11  O   UNL     1       9.894   1.996  23.483  0.00  0.00    -0.383 OA
ATOM     12  H   UNL     1       9.681   2.755  24.055  0.00  0.00    +0.210 HD
ENDBRANCH   4  11
BRANCH   3  13
ATOM     13  O   UNL     1       8.246   1.291  25.748  0.00  0.00    -0.453 OA
BRANCH  13  14
ATOM     14  C   UNL     1       7.016   1.689  26.256  0.00  0.00    +0.214 A 
ATOM     15  C   UNL     1       6.356   1.043  27.419  0.00  0.00    +0.238 A 
ATOM     16  O   UNL     1       6.884   0.115  27.990  0.00  0.00    -0.283 OA
ATOM     17  C   UNL     1       5.094   1.681  27.922  0.00  0.00    +0.109 A 
ATOM     18  C   UNL     1       4.547   2.735  27.193  0.00  0.00    +0.147 A 
ATOM     19  C   UNL     1       3.381   3.396  27.603  0.00  0.00    +0.092 A 
ATOM     20  C   UNL     1       2.769   3.001  28.781  0.00  0.00    +0.124 A 
ATOM     21  C   UNL     1       3.301   1.964  29.540  0.00  0.00    +0.091 A 
ATOM     22  O   UNL     1       5.137   3.230  26.065  0.00  0.00    -0.451 OA
ATOM     23  C   UNL     1       4.459   1.307  29.110  0.00  0.00    +0.135 A 
ATOM     24  C   UNL     1       6.388   2.766  25.737  0.00  0.00    +0.181 A 
BRANCH  24  25
ATOM     25  C   UNL     1       7.130   3.747  24.950  0.00  0.00    +0.025 A 
ATOM     26  C   UNL     1       8.209   4.377  25.600  0.00  0.00    +0.015 A 
ATOM     27  C   UNL     1       8.940   5.368  24.960  0.00  0.00    +0.050 A 
ATOM     28  C   UNL     1       8.642   5.665  23.634  0.00  0.00    +0.158 A 
ATOM     29  C   UNL     1       7.591   5.017  22.980  0.00  0.00    +0.159 A 
ATOM     30  C   UNL     1       6.796   4.096  23.647  0.00  0.00    +0.060 A 
BRANCH  28  31
ATOM     31  O   UNL     1       9.419   6.557  22.954  0.00  0.00    -0.503 OA
ATOM     32  H   UNL     1       8.857   6.925  22.248  0.00  0.00    +0.292 HD
ENDBRANCH  28  31
BRANCH  29  33
ATOM     33  O   UNL     1       7.331   5.192  21.651  0.00  0.00    -0.503 OA
ATOM     34  H   UNL     1       8.137   4.939  21.172  0.00  0.00    +0.292 HD
ENDBRANCH  29  33
ENDBRANCH  24  25
BRANCH  23  35
ATOM     35  O   UNL     1       4.982   0.318  29.893  0.00  0.00    -0.506 OA
ATOM     36  H   UNL     1       5.165  -0.474  29.360  0.00  0.00    +0.292 HD
ENDBRANCH  23  35
BRANCH  20  37
ATOM     37  O   UNL     1       1.648   3.619  29.247  0.00  0.00    -0.507 OA
ATOM     38  H   UNL     1       1.887   4.226  29.968  0.00  0.00    +0.292 HD
ENDBRANCH  20  37
ENDBRANCH  13  14
ENDBRANCH   3  13
BRANCH   1  39
ATOM     39  C   UNL     1       9.053  -2.719  23.775  0.00  0.00    +0.197 C 
BRANCH  39  40
ATOM     40  O   UNL     1       8.862  -3.462  24.977  0.00  0.00    -0.346 OA
BRANCH  40  44
ATOM     41  C   UNL     1       4.992  -2.407  26.504  0.00  0.00    +0.042 C 
ATOM     42  C   UNL     1       6.056  -3.187  27.273  0.00  0.00    +0.163 C 
ATOM     43  O   UNL     1       7.338  -3.080  26.636  0.00  0.00    -0.342 OA
ATOM     44  C   UNL     1       7.564  -3.838  25.427  0.00  0.00    +0.283 C 
ATOM     45  C   UNL     1       7.289  -5.348  25.699  0.00  0.00    +0.214 C 
ATOM     46  C   UNL     1       5.838  -5.447  26.215  0.00  0.00    +0.253 C 
ATOM     47  C   UNL     1       5.642  -4.652  27.524  0.00  0.00    +0.248 C 
BRANCH  45  48
ATOM     48  O   UNL     1       8.231  -5.940  26.604  0.00  0.00    -0.383 OA
ATOM     49  H   UNL     1       8.680  -5.223  27.091  0.00  0.00    +0.210 HD
ENDBRANCH  45  48
BRANCH  46  50
ATOM     50  O   UNL     1       5.413  -6.815  26.364  0.00  0.00    -0.455 OA
BRANCH  50  51
ATOM     51  C   UNL     1       4.303  -7.109  25.609  0.00  0.00    +0.304 C 
ATOM     52  C   UNL     1       3.033  -6.904  26.382  0.00  0.00    +0.136 C 
ATOM     53  O   UNL     1       4.338  -7.537  24.462  0.00  0.00    -0.251 OA
ENDBRANCH  50  51
ENDBRANCH  46  50
BRANCH  47  54
ATOM     54  O   UNL     1       6.470  -5.224  28.579  0.00  0.00    -0.455 OA
BRANCH  54  55
ATOM     55  C   UNL     1       5.919  -6.272  29.271  0.00  0.00    +0.304 C 
ATOM     56  C   UNL     1       4.557  -5.920  29.785  0.00  0.00    +0.136 C 
ATOM     57  O   UNL     1       6.459  -7.364  29.419  0.00  0.00    -0.251 OA
ENDBRANCH  54  55
ENDBRANCH  47  54
ENDBRANCH  40  44
ENDBRANCH  39  40
ENDBRANCH   1  39
TORSDOF 18
ENDMDL
MODEL 3
REMARK VINA RESULT:      -7.3      2.481      6.190
REMARK  Name = 
REMARK  21 active torsions:
REMARK  status: ('A' for Active; 'I' for Inactive)
REMARK    1  A    between atoms: C_1  and  C_2
REMARK    2  A    between atoms: C_3  and  O_52
REMARK    3  A    between atoms: C_5  and  O_48
REMARK    4  A    between atoms: C_6  and  O_47
REMARK    5  A    between atoms: C_8  and  O_11
REMARK    6  A    between atoms: O_11  and  C_12
REMARK    7  A    between atoms: C_12  and  C_13
REMARK    8  A    between atoms: C_14  and  O_46
REMARK    9  A    between atoms: C_16  and  O_45
REMARK   10  A    between atoms: C_18  and  O_44
REMARK   11  A    between atoms: C_19  and  O_22
REMARK   12  A    between atoms: O_22  and  C_23
REMARK   13  A    between atoms: C_24  and  C_36
REMARK   14  A    between atoms: C_28  and  O_35
REMARK   15  A    between atoms: C_30  and  O_34
REMARK   16  A    between atoms: C_38  and  O_43
REMARK   17  A    between atoms: C_39  and  O_42
REMARK   18  A    between atoms: O_48  and  C_49
REMARK   19  A    between atoms: C_49  and  C_51
REMARK   20  A    between atoms: O_52  and  C_53
REMARK   21  A    between atoms: C_53  and  C_55
REMARK                            x       y       z     vdW  Elec       q    Type
REMARK                         _______ _______ _______ _____ _____    ______ ____
ROOT
ATOM      1  C   UNL     1       5.163   0.378  26.390  0.00  0.00    +0.179 C 
ATOM      2  O   UNL     1       6.233  -0.354  25.758  0.00  0.00    -0.331 OA
ATOM      3  C   UNL     1       7.497  -0.476  26.467  0.00  0.00    +0.340 C 
ATOM      4  C   UNL     1       7.996   0.919  26.933  0.00  0.00    +0.214 C 
ATOM      5  C   UNL     1       6.911   1.501  27.840  0.00  0.00    +0.180 C 
ATOM      6  C   UNL     1       5.641   1.718  27.015  0.00  0.00    +0.177 C 
ENDROOT
BRANCH   6   7
ATOM      7  O   UNL     1       4.658   2.338  27.855  0.00  0.00    -0.386 OA
ATOM      8  H   UNL     1       5.082   2.522  28.712  0.00  0.00    +0.210 HD
ENDBRANCH   6   7
BRANCH   5   9
ATOM      9  O   UNL     1       7.315   2.742  28.433  0.00  0.00    -0.386 OA
ATOM     10  H   UNL     1       6.735   2.854  29.211  0.00  0.00    +0.210 HD
ENDBRANCH   5   9
BRANCH   4  11
ATOM     11  O   UNL     1       8.238   1.810  25.819  0.00  0.00    -0.383 OA
ATOM     12  H   UNL     1       9.139   1.645  25.491  0.00  0.00    +0.210 HD
ENDBRANCH   4  11
BRANCH   3  13
ATOM     13  O   UNL     1       8.419  -1.058  25.530  0.00  0.00    -0.453 OA
BRANCH  13  14
ATOM     14  C   UNL     1       8.019  -2.002  24.594  0.00  0.00    +0.214 A 
ATOM     15  C   UNL     1       7.474  -3.337  24.949  0.00  0.00    +0.238 A 
ATOM     16  O   UNL     1       7.352  -3.665  26.109  0.00  0.00    -0.283 OA
ATOM     17  C   UNL     1       6.965  -4.184  23.820  0.00  0.00    +0.109 A 
ATOM     18  C   UNL     1       7.162  -3.737  22.514  0.00  0.00    +0.147 A 
ATOM     19  C   UNL     1       6.702  -4.459  21.405  0.00  0.00    +0.092 A 
ATOM     20  C   UNL     1       6.012  -5.641  21.616  0.00  0.00    +0.124 A 
ATOM     21  C   UNL     1       5.784  -6.104  22.908  0.00  0.00    +0.091 A 
ATOM     22  O   UNL     1       7.764  -2.544  22.230  0.00  0.00    -0.451 OA
ATOM     23  C   UNL     1       6.260  -5.377  24.005  0.00  0.00    +0.135 A 
ATOM     24  C   UNL     1       8.041  -1.699  23.278  0.00  0.00    +0.181 A 
BRANCH  24  25
ATOM     25  C   UNL     1       8.084  -0.306  22.840  0.00  0.00    +0.025 A 
ATOM     26  C   UNL     1       6.865   0.397  22.886  0.00  0.00    +0.015 A 
ATOM     27  C   UNL     1       6.787   1.708  22.435  0.00  0.00    +0.050 A 
ATOM     28  C   UNL     1       7.954   2.340  22.018  0.00  0.00    +0.158 A 
ATOM     29  C   UNL     1       9.168   1.650  22.003  0.00  0.00    +0.159 A 
ATOM     30  C   UNL     1       9.233   0.311  22.361  0.00  0.00    +0.060 A 
BRANCH  28  31
ATOM     31  O   UNL     1       7.916   3.660  21.675  0.00  0.00    -0.503 OA
ATOM     32  H   UNL     1       6.973   3.906  21.640  0.00  0.00    +0.292 HD
ENDBRANCH  28  31
BRANCH  29  33
ATOM     33  O   UNL     1      10.356   2.257  21.709  0.00  0.00    -0.503 OA
ATOM     34  H   UNL     1      10.201   3.214  21.756  0.00  0.00    +0.292 HD
ENDBRANCH  29  33
ENDBRANCH  24  25
BRANCH  23  35
ATOM     35  O   UNL     1       5.989  -5.833  25.262  0.00  0.00    -0.506 OA
ATOM     36  H   UNL     1       6.303  -6.748  25.364  0.00  0.00    +0.292 HD
ENDBRANCH  23  35
BRANCH  20  37
ATOM     37  O   UNL     1       5.518  -6.376  20.581  0.00  0.00    -0.507 OA
ATOM     38  H   UNL     1       4.890  -7.037  20.921  0.00  0.00    +0.292 HD
ENDBRANCH  20  37
ENDBRANCH  13  14
ENDBRANCH   3  13
BRANCH   1  39
ATOM     39  C   UNL     1       4.312  -0.469  27.378  0.00  0.00    +0.197 C 
BRANCH  39  40
ATOM     40  O   UNL     1       3.002  -0.811  26.932  0.00  0.00    -0.346 OA
BRANCH  40  44
ATOM     41  C   UNL     1       0.757  -3.970  28.777  0.00  0.00    +0.042 C 
ATOM     42  C   UNL     1       2.277  -3.945  28.626  0.00  0.00    +0.163 C 
ATOM     43  O   UNL     1       2.743  -2.630  28.290  0.00  0.00    -0.342 OA
ATOM     44  C   UNL     1       2.536  -2.157  26.940  0.00  0.00    +0.283 C 
ATOM     45  C   UNL     1       3.172  -3.162  25.933  0.00  0.00    +0.214 C 
ATOM     46  C   UNL     1       2.516  -4.532  26.202  0.00  0.00    +0.253 C 
ATOM     47  C   UNL     1       2.785  -5.020  27.642  0.00  0.00    +0.248 C 
BRANCH  45  48
ATOM     48  O   UNL     1       4.603  -3.216  26.015  0.00  0.00    -0.383 OA
ATOM     49  H   UNL     1       4.845  -3.654  26.853  0.00  0.00    +0.210 HD
ENDBRANCH  45  48
BRANCH  46  50
ATOM     50  O   UNL     1       2.915  -5.519  25.231  0.00  0.00    -0.455 OA
BRANCH  50  51
ATOM     51  C   UNL     1       2.158  -5.469  24.086  0.00  0.00    +0.304 C 
ATOM     52  C   UNL     1       0.751  -5.933  24.328  0.00  0.00    +0.136 C 
ATOM     53  O   UNL     1       2.584  -5.139  22.986  0.00  0.00    -0.251 OA
ENDBRANCH  50  51
ENDBRANCH  46  50
BRANCH  47  54
ATOM     54  O   UNL     1       4.215  -5.228  27.835  0.00  0.00    -0.455 OA
BRANCH  54  55
ATOM     55  C   UNL     1       4.588  -6.482  28.246  0.00  0.00    +0.304 C 
ATOM     56  C   UNL     1       3.620  -7.029  29.249  0.00  0.00    +0.136 C 
ATOM     57  O   UNL     1       5.568  -7.086  27.822  0.00  0.00    -0.251 OA
ENDBRANCH  54  55
ENDBRANCH  47  54
ENDBRANCH  40  44
ENDBRANCH  39  40
ENDBRANCH   1  39
TORSDOF 18
ENDMDL
MODEL 4
REMARK VINA RESULT:      -7.2      2.383      6.813
REMARK  Name = 
REMARK  21 active torsions:
REMARK  status: ('A' for Active; 'I' for Inactive)
REMARK    1  A    between atoms: C_1  and  C_2
REMARK    2  A    between atoms: C_3  and  O_52
REMARK    3  A    between atoms: C_5  and  O_48
REMARK    4  A    between atoms: C_6  and  O_47
REMARK    5  A    between atoms: C_8  and  O_11
REMARK    6  A    between atoms: O_11  and  C_12
REMARK    7  A    between atoms: C_12  and  C_13
REMARK    8  A    between atoms: C_14  and  O_46
REMARK    9  A    between atoms: C_16  and  O_45
REMARK   10  A    between atoms: C_18  and  O_44
REMARK   11  A    between atoms: C_19  and  O_22
REMARK   12  A    between atoms: O_22  and  C_23
REMARK   13  A    between atoms: C_24  and  C_36
REMARK   14  A    between atoms: C_28  and  O_35
REMARK   15  A    between atoms: C_30  and  O_34
REMARK   16  A    between atoms: C_38  and  O_43
REMARK   17  A    between atoms: C_39  and  O_42
REMARK   18  A    between atoms: O_48  and  C_49
REMARK   19  A    between atoms: C_49  and  C_51
REMARK   20  A    between atoms: O_52  and  C_53
REMARK   21  A    between atoms: C_53  and  C_55
REMARK                            x       y       z     vdW  Elec       q    Type
REMARK                         _______ _______ _______ _____ _____    ______ ____
ROOT
ATOM      1  C   UNL     1       9.601  -1.697  23.863  0.00  0.00    +0.179 C 
ATOM      2  O   UNL     1       9.038  -0.872  24.903  0.00  0.00    -0.331 OA
ATOM      3  C   UNL     1       8.118   0.187  24.519  0.00  0.00    +0.340 C 
ATOM      4  C   UNL     1       8.739   1.070  23.402  0.00  0.00    +0.214 C 
ATOM      5  C   UNL     1       9.040   0.148  22.220  0.00  0.00    +0.180 C 
ATOM      6  C   UNL     1      10.099  -0.871  22.645  0.00  0.00    +0.177 C 
ENDROOT
BRANCH   6   7
ATOM      7  O   UNL     1      10.431  -1.678  21.507  0.00  0.00    -0.386 OA
ATOM      8  H   UNL     1      10.629  -1.073  20.769  0.00  0.00    +0.210 HD
ENDBRANCH   6   7
BRANCH   5   9
ATOM      9  O   UNL     1       9.506   0.875  21.076  0.00  0.00    -0.386 OA
ATOM     10  H   UNL     1       8.710   1.301  20.703  0.00  0.00    +0.210 HD
ENDBRANCH   5   9
BRANCH   4  11
ATOM     11  O   UNL     1       9.954   1.724  23.839  0.00  0.00    -0.383 OA
ATOM     12  H   UNL     1       9.745   2.655  24.027  0.00  0.00    +0.210 HD
ENDBRANCH   4  11
BRANCH   3  13
ATOM     13  O   UNL     1       7.890   0.961  25.709  0.00  0.00    -0.453 OA
BRANCH  13  14
ATOM     14  C   UNL     1       6.611   1.288  26.140  0.00  0.00    +0.214 A 
ATOM     15  C   UNL     1       5.874   0.533  27.185  0.00  0.00    +0.238 A 
ATOM     16  O   UNL     1       6.378  -0.429  27.722  0.00  0.00    -0.283 OA
ATOM     17  C   UNL     1       4.557   1.099  27.628  0.00  0.00    +0.109 A 
ATOM     18  C   UNL     1       4.043   2.199  26.942  0.00  0.00    +0.147 A 
ATOM     19  C   UNL     1       2.828   2.797  27.304  0.00  0.00    +0.092 A 
ATOM     20  C   UNL     1       2.130   2.292  28.388  0.00  0.00    +0.124 A 
ATOM     21  C   UNL     1       2.626   1.206  29.103  0.00  0.00    +0.091 A 
ATOM     22  O   UNL     1       4.711   2.799  25.914  0.00  0.00    -0.451 OA
ATOM     23  C   UNL     1       3.835   0.612  28.722  0.00  0.00    +0.135 A 
ATOM     24  C   UNL     1       5.998   2.391  25.659  0.00  0.00    +0.181 A 
BRANCH  24  25
ATOM     25  C   UNL     1       6.775   3.451  25.022  0.00  0.00    +0.025 A 
ATOM     26  C   UNL     1       7.693   4.129  25.847  0.00  0.00    +0.015 A 
ATOM     27  C   UNL     1       8.437   5.192  25.353  0.00  0.00    +0.050 A 
ATOM     28  C   UNL     1       8.322   5.518  24.006  0.00  0.00    +0.158 A 
ATOM     29  C   UNL     1       7.434   4.823  23.181  0.00  0.00    +0.159 A 
ATOM     30  C   UNL     1       6.618   3.824  23.693  0.00  0.00    +0.060 A 
BRANCH  28  31
ATOM     31  O   UNL     1       9.124   6.487  23.478  0.00  0.00    -0.503 OA
ATOM     32  H   UNL     1       8.965   7.290  24.007  0.00  0.00    +0.292 HD
ENDBRANCH  28  31
BRANCH  29  33
ATOM     33  O   UNL     1       7.366   5.029  21.833  0.00  0.00    -0.503 OA
ATOM     34  H   UNL     1       7.882   4.321  21.414  0.00  0.00    +0.292 HD
ENDBRANCH  29  33
ENDBRANCH  24  25
BRANCH  23  35
ATOM     35  O   UNL     1       4.318  -0.427  29.463  0.00  0.00    -0.506 OA
ATOM     36  H   UNL     1       5.018  -0.893  28.975  0.00  0.00    +0.292 HD
ENDBRANCH  23  35
BRANCH  20  37
ATOM     37  O   UNL     1       0.957   2.845  28.804  0.00  0.00    -0.507 OA
ATOM     38  H   UNL     1       0.558   2.283  29.490  0.00  0.00    +0.292 HD
ENDBRANCH  20  37
ENDBRANCH  13  14
ENDBRANCH   3  13
BRANCH   1  39
ATOM     39  C   UNL     1       8.698  -2.891  23.443  0.00  0.00    +0.197 C 
BRANCH  39  40
ATOM     40  O   UNL     1       8.922  -4.114  24.140  0.00  0.00    -0.346 OA
BRANCH  40  44
ATOM     41  C   UNL     1       5.190  -6.216  24.410  0.00  0.00    +0.042 C 
ATOM     42  C   UNL     1       5.431  -4.789  24.899  0.00  0.00    +0.163 C 
ATOM     43  O   UNL     1       6.653  -4.259  24.365  0.00  0.00    -0.342 OA
ATOM     44  C   UNL     1       7.901  -4.729  24.921  0.00  0.00    +0.283 C 
ATOM     45  C   UNL     1       7.908  -4.490  26.460  0.00  0.00    +0.214 C 
ATOM     46  C   UNL     1       6.676  -5.227  27.027  0.00  0.00    +0.253 C 
ATOM     47  C   UNL     1       5.360  -4.676  26.436  0.00  0.00    +0.248 C 
BRANCH  45  48
ATOM     48  O   UNL     1       7.926  -3.101  26.818  0.00  0.00    -0.383 OA
ATOM     49  H   UNL     1       8.848  -2.784  26.772  0.00  0.00    +0.210 HD
ENDBRANCH  45  48
BRANCH  46  50
ATOM     50  O   UNL     1       6.653  -5.205  28.468  0.00  0.00    -0.455 OA
BRANCH  50  51
ATOM     51  C   UNL     1       5.877  -6.206  28.999  0.00  0.00    +0.304 C 
ATOM     52  C   UNL     1       4.996  -5.701  30.104  0.00  0.00    +0.136 C 
ATOM     53  O   UNL     1       5.929  -7.380  28.655  0.00  0.00    -0.251 OA
ENDBRANCH  50  51
ENDBRANCH  46  50
BRANCH  47  54
ATOM     54  O   UNL     1       5.191  -3.280  26.821  0.00  0.00    -0.455 OA
BRANCH  54  55
ATOM     55  C   UNL     1       3.911  -2.792  26.759  0.00  0.00    +0.304 C 
ATOM     56  C   UNL     1       3.037  -3.445  27.785  0.00  0.00    +0.136 C 
ATOM     57  O   UNL     1       3.542  -1.914  25.986  0.00  0.00    -0.251 OA
ENDBRANCH  54  55
ENDBRANCH  47  54
ENDBRANCH  40  44
ENDBRANCH  39  40
ENDBRANCH   1  39
TORSDOF 18
ENDMDL
MODEL 5
REMARK VINA RESULT:      -7.1      1.603      2.795
REMARK  Name = 
REMARK  21 active torsions:
REMARK  status: ('A' for Active; 'I' for Inactive)
REMARK    1  A    between atoms: C_1  and  C_2
REMARK    2  A    between atoms: C_3  and  O_52
REMARK    3  A    between atoms: C_5  and  O_48
REMARK    4  A    between atoms: C_6  and  O_47
REMARK    5  A    between atoms: C_8  and  O_11
REMARK    6  A    between atoms: O_11  and  C_12
REMARK    7  A    between atoms: C_12  and  C_13
REMARK    8  A    between atoms: C_14  and  O_46
REMARK    9  A    between atoms: C_16  and  O_45
REMARK   10  A    between atoms: C_18  and  O_44
REMARK   11  A    between atoms: C_19  and  O_22
REMARK   12  A    between atoms: O_22  and  C_23
REMARK   13  A    between atoms: C_24  and  C_36
REMARK   14  A    between atoms: C_28  and  O_35
REMARK   15  A    between atoms: C_30  and  O_34
REMARK   16  A    between atoms: C_38  and  O_43
REMARK   17  A    between atoms: C_39  and  O_42
REMARK   18  A    between atoms: O_48  and  C_49
REMARK   19  A    between atoms: C_49  and  C_51
REMARK   20  A    between atoms: O_52  and  C_53
REMARK   21  A    between atoms: C_53  and  C_55
REMARK                            x       y       z     vdW  Elec       q    Type
REMARK                         _______ _______ _______ _____ _____    ______ ____
ROOT
ATOM      1  C   UNL     1       5.025  -0.108  26.057  0.00  0.00    +0.179 C 
ATOM      2  O   UNL     1       5.779   0.407  24.940  0.00  0.00    -0.331 OA
ATOM      3  C   UNL     1       6.278   1.770  25.016  0.00  0.00    +0.340 C 
ATOM      4  C   UNL     1       5.132   2.749  25.394  0.00  0.00    +0.214 C 
ATOM      5  C   UNL     1       4.580   2.290  26.744  0.00  0.00    +0.180 C 
ATOM      6  C   UNL     1       3.963   0.900  26.579  0.00  0.00    +0.177 C 
ENDROOT
BRANCH   6   7
ATOM      7  O   UNL     1       3.379   0.515  27.830  0.00  0.00    -0.386 OA
ATOM      8  H   UNL     1       2.669  -0.124  27.636  0.00  0.00    +0.210 HD
ENDBRANCH   6   7
BRANCH   5   9
ATOM      9  O   UNL     1       3.594   3.195  27.258  0.00  0.00    -0.386 OA
ATOM     10  H   UNL     1       2.742   2.868  26.909  0.00  0.00    +0.210 HD
ENDBRANCH   5   9
BRANCH   4  11
ATOM     11  O   UNL     1       4.075   2.757  24.406  0.00  0.00    -0.383 OA
ATOM     12  H   UNL     1       4.039   3.645  24.009  0.00  0.00    +0.210 HD
ENDBRANCH   4  11
BRANCH   3  13
ATOM     13  O   UNL     1       6.794   2.074  23.709  0.00  0.00    -0.453 OA
BRANCH  13  14
ATOM     14  C   UNL     1       8.067   2.598  23.524  0.00  0.00    +0.214 A 
ATOM     15  C   UNL     1       8.420   4.016  23.786  0.00  0.00    +0.238 A 
ATOM     16  O   UNL     1       7.586   4.797  24.186  0.00  0.00    -0.283 OA
ATOM     17  C   UNL     1       9.870   4.386  23.663  0.00  0.00    +0.109 A 
ATOM     18  C   UNL     1      10.760   3.430  23.178  0.00  0.00    +0.147 A 
ATOM     19  C   UNL     1      12.131   3.690  23.050  0.00  0.00    +0.092 A 
ATOM     20  C   UNL     1      12.616   4.928  23.437  0.00  0.00    +0.124 A 
ATOM     21  C   UNL     1      11.755   5.897  23.941  0.00  0.00    +0.091 A 
ATOM     22  O   UNL     1      10.369   2.163  22.851  0.00  0.00    -0.451 OA
ATOM     23  C   UNL     1      10.386   5.626  24.052  0.00  0.00    +0.135 A 
ATOM     24  C   UNL     1       9.083   1.788  23.158  0.00  0.00    +0.181 A 
BRANCH  24  25
ATOM     25  C   UNL     1       8.981   0.343  23.341  0.00  0.00    +0.025 A 
ATOM     26  C   UNL     1       8.854  -0.424  22.167  0.00  0.00    +0.015 A 
ATOM     27  C   UNL     1       8.690  -1.801  22.235  0.00  0.00    +0.050 A 
ATOM     28  C   UNL     1       8.741  -2.418  23.481  0.00  0.00    +0.158 A 
ATOM     29  C   UNL     1       8.900  -1.659  24.643  0.00  0.00    +0.159 A 
ATOM     30  C   UNL     1       8.966  -0.274  24.587  0.00  0.00    +0.060 A 
BRANCH  28  31
ATOM     31  O   UNL     1       8.692  -3.779  23.559  0.00  0.00    -0.503 OA
ATOM     32  H   UNL     1       9.409  -4.043  24.164  0.00  0.00    +0.292 HD
ENDBRANCH  28  31
BRANCH  29  33
ATOM     33  O   UNL     1       9.068  -2.224  25.875  0.00  0.00    -0.503 OA
ATOM     34  H   UNL     1       9.770  -1.722  26.320  0.00  0.00    +0.292 HD
ENDBRANCH  29  33
ENDBRANCH  24  25
BRANCH  23  35
ATOM     35  O   UNL     1       9.570   6.580  24.585  0.00  0.00    -0.506 OA
ATOM     36  H   UNL     1       8.640   6.378  24.386  0.00  0.00    +0.292 HD
ENDBRANCH  23  35
BRANCH  20  37
ATOM     37  O   UNL     1      13.942   5.233  23.360  0.00  0.00    -0.507 OA
ATOM     38  H   UNL     1      14.058   6.047  22.841  0.00  0.00    +0.292 HD
ENDBRANCH  20  37
ENDBRANCH  13  14
ENDBRANCH   3  13
BRANCH   1  39
ATOM     39  C   UNL     1       5.903  -0.692  27.199  0.00  0.00    +0.197 C 
BRANCH  39  40
ATOM     40  O   UNL     1       6.355  -2.030  27.010  0.00  0.00    -0.346 OA
BRANCH  40  44
ATOM     41  C   UNL     1       2.606  -4.113  27.176  0.00  0.00    +0.042 C 
ATOM     42  C   UNL     1       3.959  -4.710  27.554  0.00  0.00    +0.163 C 
ATOM     43  O   UNL     1       4.949  -3.685  27.721  0.00  0.00    -0.342 OA
ATOM     44  C   UNL     1       5.486  -3.055  26.537  0.00  0.00    +0.283 C 
ATOM     45  C   UNL     1       6.077  -4.142  25.591  0.00  0.00    +0.214 C 
ATOM     46  C   UNL     1       4.934  -5.132  25.286  0.00  0.00    +0.253 C 
ATOM     47  C   UNL     1       4.409  -5.810  26.570  0.00  0.00    +0.248 C 
BRANCH  45  48
ATOM     48  O   UNL     1       7.234  -4.795  26.132  0.00  0.00    -0.383 OA
ATOM     49  H   UNL     1       7.136  -5.756  25.997  0.00  0.00    +0.210 HD
ENDBRANCH  45  48
BRANCH  46  50
ATOM     50  O   UNL     1       5.318  -6.108  24.297  0.00  0.00    -0.455 OA
BRANCH  50  51
ATOM     51  C   UNL     1       5.207  -5.632  23.014  0.00  0.00    +0.304 C 
ATOM     52  C   UNL     1       6.389  -6.017  22.172  0.00  0.00    +0.136 C 
ATOM     53  O   UNL     1       4.286  -4.933  22.610  0.00  0.00    -0.251 OA
ENDBRANCH  50  51
ENDBRANCH  46  50
BRANCH  47  54
ATOM     54  O   UNL     1       5.466  -6.611  27.174  0.00  0.00    -0.455 OA
BRANCH  54  55
ATOM     55  C   UNL     1       5.288  -6.943  28.493  0.00  0.00    +0.304 C 
ATOM     56  C   UNL     1       6.443  -6.474  29.325  0.00  0.00    +0.136 C 
ATOM     57  O   UNL     1       4.299  -7.517  28.935  0.00  0.00    -0.251 OA
ENDBRANCH  54  55
ENDBRANCH  47  54
ENDBRANCH  40  44
ENDBRANCH  39  40
ENDBRANCH   1  39
TORSDOF 18
ENDMDL
MODEL 6
REMARK VINA RESULT:      -7.1      2.422      5.928
REMARK  Name = 
REMARK  21 active torsions:
REMARK  status: ('A' for Active; 'I' for Inactive)
REMARK    1  A    between atoms: C_1  and  C_2
REMARK    2  A    between atoms: C_3  and  O_52
REMARK    3  A    between atoms: C_5  and  O_48
REMARK    4  A    between atoms: C_6  and  O_47
REMARK    5  A    between atoms: C_8  and  O_11
REMARK    6  A    between atoms: O_11  and  C_12
REMARK    7  A    between atoms: C_12  and  C_13
REMARK    8  A    between atoms: C_14  and  O_46
REMARK    9  A    between atoms: C_16  and  O_45
REMARK   10  A    between atoms: C_18  and  O_44
REMARK   11  A    between atoms: C_19  and  O_22
REMARK   12  A    between atoms: O_22  and  C_23
REMARK   13  A    between atoms: C_24  and  C_36
REMARK   14  A    between atoms: C_28  and  O_35
REMARK   15  A    between atoms: C_30  and  O_34
REMARK   16  A    between atoms: C_38  and  O_43
REMARK   17  A    between atoms: C_39  and  O_42
REMARK   18  A    between atoms: O_48  and  C_49
REMARK   19  A    between atoms: C_49  and  C_51
REMARK   20  A    between atoms: O_52  and  C_53
REMARK   21  A    between atoms: C_53  and  C_55
REMARK                            x       y       z     vdW  Elec       q    Type
REMARK                         _______ _______ _______ _____ _____    ______ ____
ROOT
ATOM      1  C   UNL     1       9.610   0.858  24.668  0.00  0.00    +0.179 C 
ATOM      2  O   UNL     1       8.991   2.125  24.367  0.00  0.00    -0.331 OA
ATOM      3  C   UNL     1       8.108   2.204  23.215  0.00  0.00    +0.340 C 
ATOM      4  C   UNL     1       8.809   1.630  21.953  0.00  0.00    +0.214 C 
ATOM      5  C   UNL     1       9.175   0.179  22.267  0.00  0.00    +0.180 C 
ATOM      6  C   UNL     1      10.194   0.162  23.408  0.00  0.00    +0.177 C 
ENDROOT
BRANCH   6   7
ATOM      7  O   UNL     1      10.589  -1.197  23.639  0.00  0.00    -0.386 OA
ATOM      8  H   UNL     1      10.374  -1.704  22.835  0.00  0.00    +0.210 HD
ENDBRANCH   6   7
BRANCH   5   9
ATOM      9  O   UNL     1       9.721  -0.497  21.127  0.00  0.00    -0.386 OA
ATOM     10  H   UNL     1      10.569  -0.871  21.433  0.00  0.00    +0.210 HD
ENDBRANCH   5   9
BRANCH   4  11
ATOM     11  O   UNL     1      10.000   2.375  21.606  0.00  0.00    -0.383 OA
ATOM     12  H   UNL     1       9.838   2.827  20.759  0.00  0.00    +0.210 HD
ENDBRANCH   4  11
BRANCH   3  13
ATOM     13  O   UNL     1       7.813   3.600  23.039  0.00  0.00    -0.453 OA
BRANCH  13  14
ATOM     14  C   UNL     1       6.952   4.282  23.890  0.00  0.00    +0.214 A 
ATOM     15  C   UNL     1       5.611   3.780  24.282  0.00  0.00    +0.238 A 
ATOM     16  O   UNL     1       5.202   2.720  23.863  0.00  0.00    -0.283 OA
ATOM     17  C   UNL     1       4.865   4.575  25.314  0.00  0.00    +0.109 A 
ATOM     18  C   UNL     1       5.402   5.793  25.729  0.00  0.00    +0.147 A 
ATOM     19  C   UNL     1       4.777   6.587  26.700  0.00  0.00    +0.092 A 
ATOM     20  C   UNL     1       3.603   6.135  27.279  0.00  0.00    +0.124 A 
ATOM     21  C   UNL     1       3.052   4.915  26.899  0.00  0.00    +0.091 A 
ATOM     22  O   UNL     1       6.594   6.266  25.261  0.00  0.00    -0.451 OA
ATOM     23  C   UNL     1       3.682   4.140  25.919  0.00  0.00    +0.135 A 
ATOM     24  C   UNL     1       7.351   5.432  24.473  0.00  0.00    +0.181 A 
BRANCH  24  25
ATOM     25  C   UNL     1       8.771   5.766  24.557  0.00  0.00    +0.025 A 
ATOM     26  C   UNL     1       9.196   6.371  25.755  0.00  0.00    +0.015 A 
ATOM     27  C   UNL     1      10.513   6.782  25.913  0.00  0.00    +0.050 A 
ATOM     28  C   UNL     1      11.423   6.505  24.898  0.00  0.00    +0.158 A 
ATOM     29  C   UNL     1      11.006   5.875  23.723  0.00  0.00    +0.159 A 
ATOM     30  C   UNL     1       9.672   5.551  23.522  0.00  0.00    +0.060 A 
BRANCH  28  31
ATOM     31  O   UNL     1      12.743   6.802  25.080  0.00  0.00    -0.503 OA
ATOM     32  H   UNL     1      13.227   6.330  24.378  0.00  0.00    +0.292 HD
ENDBRANCH  28  31
BRANCH  29  33
ATOM     33  O   UNL     1      11.879   5.482  22.748  0.00  0.00    -0.503 OA
ATOM     34  H   UNL     1      12.576   4.968  23.187  0.00  0.00    +0.292 HD
ENDBRANCH  29  33
ENDBRANCH  24  25
BRANCH  23  35
ATOM     35  O   UNL     1       3.142   2.930  25.592  0.00  0.00    -0.506 OA
ATOM     36  H   UNL     1       3.286   2.291  26.310  0.00  0.00    +0.292 HD
ENDBRANCH  23  35
BRANCH  20  37
ATOM     37  O   UNL     1       2.961   6.848  28.246  0.00  0.00    -0.507 OA
ATOM     38  H   UNL     1       3.338   6.630  29.116  0.00  0.00    +0.292 HD
ENDBRANCH  20  37
ENDBRANCH  13  14
ENDBRANCH   3  13
BRANCH   1  39
ATOM     39  C   UNL     1       8.723  -0.095  25.517  0.00  0.00    +0.197 C 
BRANCH  39  40
ATOM     40  O   UNL     1       7.708  -0.796  24.804  0.00  0.00    -0.346 OA
BRANCH  40  44
ATOM     41  C   UNL     1       9.270  -4.721  25.561  0.00  0.00    +0.042 C 
ATOM     42  C   UNL     1       8.664  -4.258  24.239  0.00  0.00    +0.163 C 
ATOM     43  O   UNL     1       8.555  -2.828  24.192  0.00  0.00    -0.342 OA
ATOM     44  C   UNL     1       7.510  -2.198  24.966  0.00  0.00    +0.283 C 
ATOM     45  C   UNL     1       6.129  -2.797  24.562  0.00  0.00    +0.214 C 
ATOM     46  C   UNL     1       6.223  -4.319  24.796  0.00  0.00    +0.253 C 
ATOM     47  C   UNL     1       7.326  -4.962  23.929  0.00  0.00    +0.248 C 
BRANCH  45  48
ATOM     48  O   UNL     1       5.743  -2.474  23.219  0.00  0.00    -0.383 OA
ATOM     49  H   UNL     1       6.206  -3.082  22.612  0.00  0.00    +0.210 HD
ENDBRANCH  45  48
BRANCH  46  50
ATOM     50  O   UNL     1       4.953  -4.972  24.598  0.00  0.00    -0.455 OA
BRANCH  50  51
ATOM     51  C   UNL     1       4.902  -6.215  25.180  0.00  0.00    +0.304 C 
ATOM     52  C   UNL     1       5.373  -6.183  26.605  0.00  0.00    +0.136 C 
ATOM     53  O   UNL     1       4.565  -7.239  24.599  0.00  0.00    -0.251 OA
ENDBRANCH  50  51
ENDBRANCH  46  50
BRANCH  47  54
ATOM     54  O   UNL     1       7.001  -4.805  22.517  0.00  0.00    -0.455 OA
BRANCH  54  55
ATOM     55  C   UNL     1       6.698  -5.957  21.839  0.00  0.00    +0.304 C 
ATOM     56  C   UNL     1       6.116  -5.651  20.493  0.00  0.00    +0.136 C 
ATOM     57  O   UNL     1       6.907  -7.088  22.267  0.00  0.00    -0.251 OA
ENDBRANCH  54  55
ENDBRANCH  47  54
ENDBRANCH  40  44
ENDBRANCH  39  40
ENDBRANCH   1  39
TORSDOF 18
ENDMDL
MODEL 7
REMARK VINA RESULT:      -6.9      2.434      5.946
REMARK  Name = 
REMARK  21 active torsions:
REMARK  status: ('A' for Active; 'I' for Inactive)
REMARK    1  A    between atoms: C_1  and  C_2
REMARK    2  A    between atoms: C_3  and  O_52
REMARK    3  A    between atoms: C_5  and  O_48
REMARK    4  A    between atoms: C_6  and  O_47
REMARK    5  A    between atoms: C_8  and  O_11
REMARK    6  A    between atoms: O_11  and  C_12
REMARK    7  A    between atoms: C_12  and  C_13
REMARK    8  A    between atoms: C_14  and  O_46
REMARK    9  A    between atoms: C_16  and  O_45
REMARK   10  A    between atoms: C_18  and  O_44
REMARK   11  A    between atoms: C_19  and  O_22
REMARK   12  A    between atoms: O_22  and  C_23
REMARK   13  A    between atoms: C_24  and  C_36
REMARK   14  A    between atoms: C_28  and  O_35
REMARK   15  A    between atoms: C_30  and  O_34
REMARK   16  A    between atoms: C_38  and  O_43
REMARK   17  A    between atoms: C_39  and  O_42
REMARK   18  A    between atoms: O_48  and  C_49
REMARK   19  A    between atoms: C_49  and  C_51
REMARK   20  A    between atoms: O_52  and  C_53
REMARK   21  A    between atoms: C_53  and  C_55
REMARK                            x       y       z     vdW  Elec       q    Type
REMARK                         _______ _______ _______ _____ _____    ______ ____
ROOT
ATOM      1  C   UNL     1       9.504  -1.166  24.910  0.00  0.00    +0.179 C 
ATOM      2  O   UNL     1       9.181   0.232  25.054  0.00  0.00    -0.331 OA
ATOM      3  C   UNL     1       8.486   0.894  23.962  0.00  0.00    +0.340 C 
ATOM      4  C   UNL     1       9.222   0.644  22.617  0.00  0.00    +0.214 C 
ATOM      5  C   UNL     1       9.262  -0.871  22.406  0.00  0.00    +0.180 C 
ATOM      6  C   UNL     1      10.102  -1.503  23.516  0.00  0.00    +0.177 C 
ENDROOT
BRANCH   6   7
ATOM      7  O   UNL     1      10.198  -2.911  23.262  0.00  0.00    -0.386 OA
ATOM      8  H   UNL     1       9.435  -3.161  22.711  0.00  0.00    +0.210 HD
ENDBRANCH   6   7
BRANCH   5   9
ATOM      9  O   UNL     1       9.811  -1.220  21.129  0.00  0.00    -0.386 OA
ATOM     10  H   UNL     1       9.101  -1.710  20.671  0.00  0.00    +0.210 HD
ENDBRANCH   5   9
BRANCH   4  11
ATOM     11  O   UNL     1      10.568   1.175  22.627  0.00  0.00    -0.383 OA
ATOM     12  H   UNL     1      10.960   1.021  21.749  0.00  0.00    +0.210 HD
ENDBRANCH   4  11
BRANCH   3  13
ATOM     13  O   UNL     1       8.487   2.295  24.287  0.00  0.00    -0.453 OA
BRANCH  13  14
ATOM     14  C   UNL     1       7.504   3.159  23.821  0.00  0.00    +0.214 A 
ATOM     15  C   UNL     1       6.054   2.839  23.827  0.00  0.00    +0.238 A 
ATOM     16  O   UNL     1       5.658   1.778  24.256  0.00  0.00    -0.283 OA
ATOM     17  C   UNL     1       5.117   3.935  23.412  0.00  0.00    +0.109 A 
ATOM     18  C   UNL     1       5.659   5.119  22.915  0.00  0.00    +0.147 A 
ATOM     19  C   UNL     1       4.854   6.196  22.522  0.00  0.00    +0.092 A 
ATOM     20  C   UNL     1       3.479   6.087  22.653  0.00  0.00    +0.124 A 
ATOM     21  C   UNL     1       2.909   4.925  23.163  0.00  0.00    +0.091 A 
ATOM     22  O   UNL     1       7.005   5.330  22.830  0.00  0.00    -0.451 OA
ATOM     23  C   UNL     1       3.727   3.853  23.540  0.00  0.00    +0.135 A 
ATOM     24  C   UNL     1       7.839   4.396  23.398  0.00  0.00    +0.181 A 
BRANCH  24  25
ATOM     25  C   UNL     1       9.115   4.991  23.786  0.00  0.00    +0.025 A 
ATOM     26  C   UNL     1       9.049   6.068  24.691  0.00  0.00    +0.015 A 
ATOM     27  C   UNL     1      10.201   6.741  25.076  0.00  0.00    +0.050 A 
ATOM     28  C   UNL     1      11.429   6.275  24.619  0.00  0.00    +0.158 A 
ATOM     29  C   UNL     1      11.496   5.186  23.747  0.00  0.00    +0.159 A 
ATOM     30  C   UNL     1      10.341   4.572  23.283  0.00  0.00    +0.060 A 
BRANCH  28  31
ATOM     31  O   UNL     1      12.579   6.854  25.073  0.00  0.00    -0.503 OA
ATOM     32  H   UNL     1      13.309   6.282  24.772  0.00  0.00    +0.292 HD
ENDBRANCH  28  31
BRANCH  29  33
ATOM     33  O   UNL     1      12.678   4.622  23.360  0.00  0.00    -0.503 OA
ATOM     34  H   UNL     1      12.472   3.730  23.038  0.00  0.00    +0.292 HD
ENDBRANCH  29  33
ENDBRANCH  24  25
BRANCH  23  35
ATOM     35  O   UNL     1       3.145   2.739  24.072  0.00  0.00    -0.506 OA
ATOM     36  H   UNL     1       3.440   2.610  24.990  0.00  0.00    +0.292 HD
ENDBRANCH  23  35
BRANCH  20  37
ATOM     37  O   UNL     1       2.644   7.108  22.313  0.00  0.00    -0.507 OA
ATOM     38  H   UNL     1       2.424   7.046  21.367  0.00  0.00    +0.292 HD
ENDBRANCH  20  37
ENDBRANCH  13  14
ENDBRANCH   3  13
BRANCH   1  39
ATOM     39  C   UNL     1       8.349  -2.128  25.309  0.00  0.00    +0.197 C 
BRANCH  39  40
ATOM     40  O   UNL     1       7.437  -2.466  24.268  0.00  0.00    -0.346 OA
BRANCH  40  44
ATOM     41  C   UNL     1       7.148  -6.124  22.041  0.00  0.00    +0.042 C 
ATOM     42  C   UNL     1       5.999  -5.146  22.274  0.00  0.00    +0.163 C 
ATOM     43  O   UNL     1       6.484  -3.880  22.746  0.00  0.00    -0.342 OA
ATOM     44  C   UNL     1       6.927  -3.788  24.119  0.00  0.00    +0.283 C 
ATOM     45  C   UNL     1       5.779  -4.245  25.068  0.00  0.00    +0.214 C 
ATOM     46  C   UNL     1       5.403  -5.681  24.648  0.00  0.00    +0.253 C 
ATOM     47  C   UNL     1       4.903  -5.735  23.187  0.00  0.00    +0.248 C 
BRANCH  45  48
ATOM     48  O   UNL     1       4.650  -3.360  25.058  0.00  0.00    -0.383 OA
ATOM     49  H   UNL     1       4.972  -2.451  25.209  0.00  0.00    +0.210 HD
ENDBRANCH  45  48
BRANCH  46  50
ATOM     50  O   UNL     1       4.448  -6.273  25.550  0.00  0.00    -0.455 OA
BRANCH  50  51
ATOM     51  C   UNL     1       4.913  -6.342  26.841  0.00  0.00    +0.304 C 
ATOM     52  C   UNL     1       3.918  -5.793  27.821  0.00  0.00    +0.136 C 
ATOM     53  O   UNL     1       6.023  -6.751  27.157  0.00  0.00    -0.251 OA
ENDBRANCH  50  51
ENDBRANCH  46  50
BRANCH  47  54
ATOM     54  O   UNL     1       3.678  -4.957  23.054  0.00  0.00    -0.455 OA
BRANCH  54  55
ATOM     55  C   UNL     1       2.509  -5.673  23.063  0.00  0.00    +0.304 C 
ATOM     56  C   UNL     1       1.416  -4.907  23.743  0.00  0.00    +0.136 C 
ATOM     57  O   UNL     1       2.371  -6.779  22.552  0.00  0.00    -0.251 OA
ENDBRANCH  54  55
ENDBRANCH  47  54
ENDBRANCH  40  44
ENDBRANCH  39  40
ENDBRANCH   1  39
TORSDOF 18
ENDMDL
MODEL 8
REMARK VINA RESULT:      -6.9      1.792      2.140
REMARK  Name = 
REMARK  21 active torsions:
REMARK  status: ('A' for Active; 'I' for Inactive)
REMARK    1  A    between atoms: C_1  and  C_2
REMARK    2  A    between atoms: C_3  and  O_52
REMARK    3  A    between atoms: C_5  and  O_48
REMARK    4  A    between atoms: C_6  and  O_47
REMARK    5  A    between atoms: C_8  and  O_11
REMARK    6  A    between atoms: O_11  and  C_12
REMARK    7  A    between atoms: C_12  and  C_13
REMARK    8  A    between atoms: C_14  and  O_46
REMARK    9  A    between atoms: C_16  and  O_45
REMARK   10  A    between atoms: C_18  and  O_44
REMARK   11  A    between atoms: C_19  and  O_22
REMARK   12  A    between atoms: O_22  and  C_23
REMARK   13  A    between atoms: C_24  and  C_36
REMARK   14  A    between atoms: C_28  and  O_35
REMARK   15  A    between atoms: C_30  and  O_34
REMARK   16  A    between atoms: C_38  and  O_43
REMARK   17  A    between atoms: C_39  and  O_42
REMARK   18  A    between atoms: O_48  and  C_49
REMARK   19  A    between atoms: C_49  and  C_51
REMARK   20  A    between atoms: O_52  and  C_53
REMARK   21  A    between atoms: C_53  and  C_55
REMARK                            x       y       z     vdW  Elec       q    Type
REMARK                         _______ _______ _______ _____ _____    ______ ____
ROOT
ATOM      1  C   UNL     1       4.855  -0.600  25.910  0.00  0.00    +0.179 C 
ATOM      2  O   UNL     1       5.688  -0.099  24.845  0.00  0.00    -0.331 OA
ATOM      3  C   UNL     1       6.170   1.270  24.934  0.00  0.00    +0.340 C 
ATOM      4  C   UNL     1       4.991   2.245  25.205  0.00  0.00    +0.214 C 
ATOM      5  C   UNL     1       4.341   1.805  26.517  0.00  0.00    +0.180 C 
ATOM      6  C   UNL     1       3.749   0.407  26.331  0.00  0.00    +0.177 C 
ENDROOT
BRANCH   6   7
ATOM      7  O   UNL     1       3.073   0.039  27.540  0.00  0.00    -0.386 OA
ATOM      8  H   UNL     1       3.750  -0.269  28.170  0.00  0.00    +0.210 HD
ENDBRANCH   6   7
BRANCH   5   9
ATOM      9  O   UNL     1       3.312   2.710  26.936  0.00  0.00    -0.386 OA
ATOM     10  H   UNL     1       3.538   2.946  27.857  0.00  0.00    +0.210 HD
ENDBRANCH   5   9
BRANCH   4  11
ATOM     11  O   UNL     1       4.013   2.225  24.139  0.00  0.00    -0.383 OA
ATOM     12  H   UNL     1       3.438   3.004  24.242  0.00  0.00    +0.210 HD
ENDBRANCH   4  11
BRANCH   3  13
ATOM     13  O   UNL     1       6.782   1.555  23.665  0.00  0.00    -0.453 OA
BRANCH  13  14
ATOM     14  C   UNL     1       7.957   2.289  23.563  0.00  0.00    +0.214 A 
ATOM     15  C   UNL     1       8.024   3.764  23.725  0.00  0.00    +0.238 A 
ATOM     16  O   UNL     1       7.024   4.404  23.963  0.00  0.00    -0.283 OA
ATOM     17  C   UNL     1       9.390   4.385  23.718  0.00  0.00    +0.109 A 
ATOM     18  C   UNL     1      10.485   3.576  23.419  0.00  0.00    +0.147 A 
ATOM     19  C   UNL     1      11.795   4.074  23.408  0.00  0.00    +0.092 A 
ATOM     20  C   UNL     1      12.007   5.405  23.725  0.00  0.00    +0.124 A 
ATOM     21  C   UNL     1      10.936   6.234  24.045  0.00  0.00    +0.091 A 
ATOM     22  O   UNL     1      10.363   2.238  23.173  0.00  0.00    -0.451 OA
ATOM     23  C   UNL     1       9.632   5.723  24.040  0.00  0.00    +0.135 A 
ATOM     24  C   UNL     1       9.135   1.656  23.381  0.00  0.00    +0.181 A 
BRANCH  24  25
ATOM     25  C   UNL     1       9.266   0.234  23.687  0.00  0.00    +0.025 A 
ATOM     26  C   UNL     1       9.680  -0.594  22.626  0.00  0.00    +0.015 A 
ATOM     27  C   UNL     1       9.778  -1.968  22.796  0.00  0.00    +0.050 A 
ATOM     28  C   UNL     1       9.544  -2.501  24.059  0.00  0.00    +0.158 A 
ATOM     29  C   UNL     1       9.165  -1.674  25.120  0.00  0.00    +0.159 A 
ATOM     30  C   UNL     1       8.971  -0.313  24.930  0.00  0.00    +0.060 A 
BRANCH  28  31
ATOM     31  O   UNL     1       9.742  -3.834  24.273  0.00  0.00    -0.503 OA
ATOM     32  H   UNL     1      10.503  -3.903  24.878  0.00  0.00    +0.292 HD
ENDBRANCH  28  31
BRANCH  29  33
ATOM     33  O   UNL     1       9.033  -2.132  26.400  0.00  0.00    -0.503 OA
ATOM     34  H   UNL     1       9.432  -1.462  26.979  0.00  0.00    +0.292 HD
ENDBRANCH  29  33
ENDBRANCH  24  25
BRANCH  23  35
ATOM     35  O   UNL     1       8.604   6.547  24.395  0.00  0.00    -0.506 OA
ATOM     36  H   UNL     1       7.754   6.161  24.126  0.00  0.00    +0.292 HD
ENDBRANCH  23  35
BRANCH  20  37
ATOM     37  O   UNL     1      13.258   5.943  23.756  0.00  0.00    -0.507 OA
ATOM     38  H   UNL     1      13.377   6.443  24.581  0.00  0.00    +0.292 HD
ENDBRANCH  20  37
ENDBRANCH  13  14
ENDBRANCH   3  13
BRANCH   1  39
ATOM     39  C   UNL     1       5.647  -1.156  27.127  0.00  0.00    +0.197 C 
BRANCH  39  40
ATOM     40  O   UNL     1       5.053  -2.263  27.800  0.00  0.00    -0.346 OA
BRANCH  40  44
ATOM     41  C   UNL     1       7.761  -5.511  27.064  0.00  0.00    +0.042 C 
ATOM     42  C   UNL     1       6.965  -4.772  25.991  0.00  0.00    +0.163 C 
ATOM     43  O   UNL     1       6.430  -3.541  26.499  0.00  0.00    -0.342 OA
ATOM     44  C   UNL     1       5.293  -3.606  27.389  0.00  0.00    +0.283 C 
ATOM     45  C   UNL     1       4.133  -4.382  26.697  0.00  0.00    +0.214 C 
ATOM     46  C   UNL     1       4.692  -5.771  26.324  0.00  0.00    +0.253 C 
ATOM     47  C   UNL     1       5.883  -5.664  25.347  0.00  0.00    +0.248 C 
BRANCH  45  48
ATOM     48  O   UNL     1       3.587  -3.692  25.565  0.00  0.00    -0.383 OA
ATOM     49  H   UNL     1       2.633  -3.556  25.719  0.00  0.00    +0.210 HD
ENDBRANCH  45  48
BRANCH  46  50
ATOM     50  O   UNL     1       3.666  -6.642  25.807  0.00  0.00    -0.455 OA
BRANCH  50  51
ATOM     51  C   UNL     1       2.624  -6.810  26.685  0.00  0.00    +0.304 C 
ATOM     52  C   UNL     1       1.294  -6.676  26.003  0.00  0.00    +0.136 C 
ATOM     53  O   UNL     1       2.754  -6.996  27.888  0.00  0.00    -0.251 OA
ENDBRANCH  50  51
ENDBRANCH  46  50
BRANCH  47  54
ATOM     54  O   UNL     1       5.440  -5.072  24.090  0.00  0.00    -0.455 OA
BRANCH  54  55
ATOM     55  C   UNL     1       6.432  -4.635  23.251  0.00  0.00    +0.304 C 
ATOM     56  C   UNL     1       6.184  -3.223  22.816  0.00  0.00    +0.136 C 
ATOM     57  O   UNL     1       7.408  -5.303  22.926  0.00  0.00    -0.251 OA
ENDBRANCH  54  55
ENDBRANCH  47  54
ENDBRANCH  40  44
ENDBRANCH  39  40
ENDBRANCH   1  39
TORSDOF 18
ENDMDL
MODEL 9
REMARK VINA RESULT:      -6.9      2.077      8.804
REMARK  Name = 
REMARK  21 active torsions:
REMARK  status: ('A' for Active; 'I' for Inactive)
REMARK    1  A    between atoms: C_1  and  C_2
REMARK    2  A    between atoms: C_3  and  O_52
REMARK    3  A    between atoms: C_5  and  O_48
REMARK    4  A    between atoms: C_6  and  O_47
REMARK    5  A    between atoms: C_8  and  O_11
REMARK    6  A    between atoms: O_11  and  C_12
REMARK    7  A    between atoms: C_12  and  C_13
REMARK    8  A    between atoms: C_14  and  O_46
REMARK    9  A    between atoms: C_16  and  O_45
REMARK   10  A    between atoms: C_18  and  O_44
REMARK   11  A    between atoms: C_19  and  O_22
REMARK   12  A    between atoms: O_22  and  C_23
REMARK   13  A    between atoms: C_24  and  C_36
REMARK   14  A    between atoms: C_28  and  O_35
REMARK   15  A    between atoms: C_30  and  O_34
REMARK   16  A    between atoms: C_38  and  O_43
REMARK   17  A    between atoms: C_39  and  O_42
REMARK   18  A    between atoms: O_48  and  C_49
REMARK   19  A    between atoms: C_49  and  C_51
REMARK   20  A    between atoms: O_52  and  C_53
REMARK   21  A    between atoms: C_53  and  C_55
REMARK                            x       y       z     vdW  Elec       q    Type
REMARK                         _______ _______ _______ _____ _____    ______ ____
ROOT
ATOM      1  C   UNL     1       8.647  -3.728  23.991  0.00  0.00    +0.179 C 
ATOM      2  O   UNL     1       7.331  -3.139  24.020  0.00  0.00    -0.331 OA
ATOM      3  C   UNL     1       6.648  -3.042  25.300  0.00  0.00    +0.340 C 
ATOM      4  C   UNL     1       6.642  -4.419  26.019  0.00  0.00    +0.214 C 
ATOM      5  C   UNL     1       8.103  -4.832  26.205  0.00  0.00    +0.180 C 
ATOM      6  C   UNL     1       8.739  -5.033  24.829  0.00  0.00    +0.177 C 
ENDROOT
BRANCH   6   7
ATOM      7  O   UNL     1      10.082  -5.497  25.016  0.00  0.00    -0.386 OA
ATOM      8  H   UNL     1      10.297  -5.395  25.961  0.00  0.00    +0.210 HD
ENDBRANCH   6   7
BRANCH   5   9
ATOM      9  O   UNL     1       8.227  -6.036  26.972  0.00  0.00    -0.386 OA
ATOM     10  H   UNL     1       7.353  -6.167  27.386  0.00  0.00    +0.210 HD
ENDBRANCH   5   9
BRANCH   4  11
ATOM     11  O   UNL     1       5.938  -5.427  25.257  0.00  0.00    -0.383 OA
ATOM     12  H   UNL     1       6.329  -6.293  25.467  0.00  0.00    +0.210 HD
ENDBRANCH   4  11
BRANCH   3  13
ATOM     13  O   UNL     1       5.307  -2.620  25.000  0.00  0.00    -0.453 OA
BRANCH  13  14
ATOM     14  C   UNL     1       4.516  -1.963  25.933  0.00  0.00    +0.214 A 
ATOM     15  C   UNL     1       4.654  -0.520  26.260  0.00  0.00    +0.238 A 
ATOM     16  O   UNL     1       5.487   0.161  25.706  0.00  0.00    -0.283 OA
ATOM     17  C   UNL     1       3.633   0.062  27.193  0.00  0.00    +0.109 A 
ATOM     18  C   UNL     1       2.720  -0.799  27.800  0.00  0.00    +0.147 A 
ATOM     19  C   UNL     1       1.725  -0.332  28.669  0.00  0.00    +0.092 A 
ATOM     20  C   UNL     1       1.634   1.028  28.914  0.00  0.00    +0.124 A 
ATOM     21  C   UNL     1       2.520   1.915  28.309  0.00  0.00    +0.091 A 
ATOM     22  O   UNL     1       2.698  -2.140  27.547  0.00  0.00    -0.451 OA
ATOM     23  C   UNL     1       3.515   1.431  27.452  0.00  0.00    +0.135 A 
ATOM     24  C   UNL     1       3.507  -2.618  26.544  0.00  0.00    +0.181 A 
BRANCH  24  25
ATOM     25  C   UNL     1       2.972  -3.851  25.972  0.00  0.00    +0.025 A 
ATOM     26  C   UNL     1       2.769  -4.916  26.871  0.00  0.00    +0.015 A 
ATOM     27  C   UNL     1       2.321  -6.149  26.419  0.00  0.00    +0.050 A 
ATOM     28  C   UNL     1       1.992  -6.287  25.075  0.00  0.00    +0.158 A 
ATOM     29  C   UNL     1       2.163  -5.220  24.189  0.00  0.00    +0.159 A 
ATOM     30  C   UNL     1       2.703  -4.016  24.619  0.00  0.00    +0.060 A 
BRANCH  28  31
ATOM     31  O   UNL     1       1.448  -7.457  24.633  0.00  0.00    -0.503 OA
ATOM     32  H   UNL     1       2.192  -8.076  24.512  0.00  0.00    +0.292 HD
ENDBRANCH  28  31
BRANCH  29  33
ATOM     33  O   UNL     1       1.752  -5.269  22.888  0.00  0.00    -0.503 OA
ATOM     34  H   UNL     1       2.390  -5.827  22.413  0.00  0.00    +0.292 HD
ENDBRANCH  29  33
ENDBRANCH  24  25
BRANCH  23  35
ATOM     35  O   UNL     1       4.346   2.325  26.842  0.00  0.00    -0.506 OA
ATOM     36  H   UNL     1       5.223   1.930  26.701  0.00  0.00    +0.292 HD
ENDBRANCH  23  35
BRANCH  20  37
ATOM     37  O   UNL     1       0.674   1.546  29.729  0.00  0.00    -0.507 OA
ATOM     38  H   UNL     1      -0.159   1.635  29.235  0.00  0.00    +0.292 HD
ENDBRANCH  20  37
ENDBRANCH  13  14
ENDBRANCH   3  13
BRANCH   1  39
ATOM     39  C   UNL     1       9.795  -2.731  24.316  0.00  0.00    +0.197 C 
BRANCH  39  40
ATOM     40  O   UNL     1      10.078  -1.762  23.309  0.00  0.00    -0.346 OA
BRANCH  40  44
ATOM     41  C   UNL     1       8.389   1.554  21.172  0.00  0.00    +0.042 C 
ATOM     42  C   UNL     1       9.669   1.606  22.003  0.00  0.00    +0.163 C 
ATOM     43  O   UNL     1      10.148   0.286  22.299  0.00  0.00    -0.342 OA
ATOM     44  C   UNL     1       9.450  -0.483  23.303  0.00  0.00    +0.283 C 
ATOM     45  C   UNL     1       9.406   0.321  24.638  0.00  0.00    +0.214 C 
ATOM     46  C   UNL     1       8.721   1.666  24.320  0.00  0.00    +0.253 C 
ATOM     47  C   UNL     1       9.512   2.474  23.268  0.00  0.00    +0.248 C 
BRANCH  45  48
ATOM     48  O   UNL     1      10.698   0.494  25.237  0.00  0.00    -0.383 OA
ATOM     49  H   UNL     1      11.281   0.930  24.587  0.00  0.00    +0.210 HD
ENDBRANCH  45  48
BRANCH  46  50
ATOM     50  O   UNL     1       8.487   2.444  25.511  0.00  0.00    -0.455 OA
BRANCH  50  51
ATOM     51  C   UNL     1       7.384   3.255  25.403  0.00  0.00    +0.304 C 
ATOM     52  C   UNL     1       7.454   4.419  26.348  0.00  0.00    +0.136 C 
ATOM     53  O   UNL     1       6.430   3.035  24.667  0.00  0.00    -0.251 OA
ENDBRANCH  50  51
ENDBRANCH  46  50
BRANCH  47  54
ATOM     54  O   UNL     1      10.826   2.821  23.795  0.00  0.00    -0.455 OA
BRANCH  54  55
ATOM     55  C   UNL     1      11.248   4.103  23.557  0.00  0.00    +0.304 C 
ATOM     56  C   UNL     1      10.138   5.085  23.776  0.00  0.00    +0.136 C 
ATOM     57  O   UNL     1      12.394   4.407  23.239  0.00  0.00    -0.251 OA
ENDBRANCH  54  55
ENDBRANCH  47  54
ENDBRANCH  40  44
ENDBRANCH  39  40
ENDBRANCH   1  39
TORSDOF 18
ENDMDL
