MODEL 1
REMARK VINA RESULT:      -7.2      0.000      0.000
REMARK  Name = 
REMARK  13 active torsions:
REMARK  status: ('A' for Active; 'I' for Inactive)
REMARK    1  A    between atoms: C_1  and  O_2
REMARK    2  A    between atoms: O_2  and  C_3
REMARK    3  A    between atoms: C_4  and  C_16
REMARK    4  A    between atoms: C_8  and  O_15
REMARK    5  A    between atoms: C_10  and  O_14
REMARK    6  A    between atoms: C_18  and  O_37
REMARK    7  A    between atoms: C_19  and  O_22
REMARK    8  A    between atoms: O_22  and  C_23
REMARK    9  A    between atoms: C_25  and  O_36
REMARK   10  A    between atoms: C_27  and  O_35
REMARK   11  A    between atoms: C_28  and  O_34
REMARK   12  A    between atoms: C_29  and  C_32
REMARK   13  A    between atoms: C_32  and  O_33
REMARK                            x       y       z     vdW  Elec       q    Type
REMARK                         _______ _______ _______ _____ _____    ______ ____
ROOT
ATOM      1  C   UNL     1       8.438   0.969  24.044  0.00  0.00    +0.025 A 
ATOM      2  C   UNL     1       7.789   0.620  22.853  0.00  0.00    +0.015 A 
ATOM      3  C   UNL     1       7.400  -0.702  22.603  0.00  0.00    +0.050 A 
ATOM      4  C   UNL     1       7.664  -1.708  23.534  0.00  0.00    +0.165 A 
ATOM      5  C   UNL     1       8.283  -1.345  24.739  0.00  0.00    +0.159 A 
ATOM      6  C   UNL     1       8.668  -0.024  25.002  0.00  0.00    +0.060 A 
ENDROOT
BRANCH   1  17
ATOM      7  C   UNL     1       8.233   3.312  24.831  0.00  0.00    +0.211 A 
ATOM      8  C   UNL     1       8.794   4.700  24.785  0.00  0.00    +0.238 A 
ATOM      9  O   UNL     1       8.104   5.681  25.033  0.00  0.00    -0.283 OA
ATOM     10  C   UNL     1      10.201   4.835  24.353  0.00  0.00    +0.109 A 
ATOM     11  C   UNL     1      10.802   3.729  23.749  0.00  0.00    +0.147 A 
ATOM     12  C   UNL     1      12.101   3.811  23.239  0.00  0.00    +0.092 A 
ATOM     13  C   UNL     1      12.803   5.003  23.358  0.00  0.00    +0.124 A 
ATOM     14  C   UNL     1      12.234   6.111  23.982  0.00  0.00    +0.091 A 
ATOM     15  O   UNL     1      10.170   2.522  23.612  0.00  0.00    -0.451 OA
ATOM     16  C   UNL     1      10.935   6.024  24.477  0.00  0.00    +0.135 A 
ATOM     17  C   UNL     1       8.938   2.341  24.215  0.00  0.00    +0.181 A 
BRANCH   7  19
ATOM     18  C   UNL     1       6.977   2.939  26.805  0.00  0.00    +0.277 C 
ATOM     19  O   UNL     1       6.981   3.054  25.384  0.00  0.00    -0.488 OA
ENDBRANCH   7  19
BRANCH  13  20
ATOM     20  O   UNL     1      14.074   5.135  22.878  0.00  0.00    -0.507 OA
ATOM     21  H   UNL     1      14.437   5.988  23.170  0.00  0.00    +0.292 HD
ENDBRANCH  13  20
BRANCH  16  22
ATOM     22  O   UNL     1      10.403   7.107  25.122  0.00  0.00    -0.506 OA
ATOM     23  H   UNL     1       9.865   6.816  25.876  0.00  0.00    +0.292 HD
ENDBRANCH  16  22
ENDBRANCH   1  17
BRANCH   5  24
ATOM     24  O   UNL     1       8.498  -2.323  25.675  0.00  0.00    -0.503 OA
ATOM     25  H   UNL     1       9.379  -2.709  25.541  0.00  0.00    +0.292 HD
ENDBRANCH   5  24
BRANCH   4  26
ATOM     26  O   UNL     1       7.391  -3.048  23.375  0.00  0.00    -0.457 OA
BRANCH  26  27
ATOM     27  C   UNL     1       6.332  -3.413  22.493  0.00  0.00    +0.339 C 
ATOM     28  O   UNL     1       5.056  -3.389  23.136  0.00  0.00    -0.331 OA
ATOM     29  C   UNL     1       4.742  -4.493  24.011  0.00  0.00    +0.179 C 
ATOM     30  C   UNL     1       4.978  -5.862  23.349  0.00  0.00    +0.177 C 
ATOM     31  C   UNL     1       6.380  -5.941  22.723  0.00  0.00    +0.180 C 
ATOM     32  C   UNL     1       6.596  -4.759  21.776  0.00  0.00    +0.214 C 
BRANCH  30  33
ATOM     33  O   UNL     1       3.967  -6.062  22.335  0.00  0.00    -0.386 OA
ATOM     34  H   UNL     1       3.700  -7.004  22.381  0.00  0.00    +0.210 HD
ENDBRANCH  30  33
BRANCH  31  35
ATOM     35  O   UNL     1       6.527  -7.169  21.993  0.00  0.00    -0.386 OA
ATOM     36  H   UNL     1       5.781  -7.192  21.364  0.00  0.00    +0.210 HD
ENDBRANCH  31  35
BRANCH  32  37
ATOM     37  O   UNL     1       5.666  -4.923  20.667  0.00  0.00    -0.383 OA
ATOM     38  H   UNL     1       6.122  -4.650  19.850  0.00  0.00    +0.210 HD
ENDBRANCH  32  37
BRANCH  29  39
ATOM     39  C   UNL     1       5.380  -4.379  25.408  0.00  0.00    +0.190 C 
BRANCH  39  40
ATOM     40  O   UNL     1       5.534  -3.045  25.869  0.00  0.00    -0.392 OA
ATOM     41  H   UNL     1       6.101  -3.065  26.668  0.00  0.00    +0.210 HD
ENDBRANCH  39  40
ENDBRANCH  29  39
ENDBRANCH  26  27
ENDBRANCH   4  26
TORSDOF 12
ENDMDL
MODEL 2
REMARK VINA RESULT:      -7.0      1.350      2.601
REMARK  Name = 
REMARK  13 active torsions:
REMARK  status: ('A' for Active; 'I' for Inactive)
REMARK    1  A    between atoms: C_1  and  O_2
REMARK    2  A    between atoms: O_2  and  C_3
REMARK    3  A    between atoms: C_4  and  C_16
REMARK    4  A    between atoms: C_8  and  O_15
REMARK    5  A    between atoms: C_10  and  O_14
REMARK    6  A    between atoms: C_18  and  O_37
REMARK    7  A    between atoms: C_19  and  O_22
REMARK    8  A    between atoms: O_22  and  C_23
REMARK    9  A    between atoms: C_25  and  O_36
REMARK   10  A    between atoms: C_27  and  O_35
REMARK   11  A    between atoms: C_28  and  O_34
REMARK   12  A    between atoms: C_29  and  C_32
REMARK   13  A    between atoms: C_32  and  O_33
REMARK                            x       y       z     vdW  Elec       q    Type
REMARK                         _______ _______ _______ _____ _____    ______ ____
ROOT
ATOM      1  C   UNL     1       8.911   0.685  23.316  0.00  0.00    +0.025 A 
ATOM      2  C   UNL     1       9.911  -0.295  23.294  0.00  0.00    +0.015 A 
ATOM      3  C   UNL     1       9.595  -1.646  23.101  0.00  0.00    +0.050 A 
ATOM      4  C   UNL     1       8.268  -2.048  22.938  0.00  0.00    +0.165 A 
ATOM      5  C   UNL     1       7.276  -1.057  22.925  0.00  0.00    +0.159 A 
ATOM      6  C   UNL     1       7.583   0.297  23.109  0.00  0.00    +0.060 A 
ENDROOT
BRANCH   1  17
ATOM      7  C   UNL     1       8.439   2.918  24.285  0.00  0.00    +0.211 A 
ATOM      8  C   UNL     1       8.871   4.348  24.401  0.00  0.00    +0.238 A 
ATOM      9  O   UNL     1       8.079   5.238  24.680  0.00  0.00    -0.283 OA
ATOM     10  C   UNL     1      10.286   4.643  24.088  0.00  0.00    +0.109 A 
ATOM     11  C   UNL     1      11.025   3.653  23.437  0.00  0.00    +0.147 A 
ATOM     12  C   UNL     1      12.342   3.893  23.034  0.00  0.00    +0.092 A 
ATOM     13  C   UNL     1      12.922   5.125  23.307  0.00  0.00    +0.124 A 
ATOM     14  C   UNL     1      12.213   6.118  23.981  0.00  0.00    +0.091 A 
ATOM     15  O   UNL     1      10.517   2.414  23.150  0.00  0.00    -0.451 OA
ATOM     16  C   UNL     1      10.897   5.874  24.368  0.00  0.00    +0.135 A 
ATOM     17  C   UNL     1       9.270   2.073  23.642  0.00  0.00    +0.181 A 
BRANCH   7  19
ATOM     18  C   UNL     1       7.086   2.287  26.125  0.00  0.00    +0.277 C 
ATOM     19  O   UNL     1       7.182   2.504  24.719  0.00  0.00    -0.488 OA
ENDBRANCH   7  19
BRANCH  13  20
ATOM     20  O   UNL     1      14.203   5.409  22.937  0.00  0.00    -0.507 OA
ATOM     21  H   UNL     1      14.579   6.054  23.559  0.00  0.00    +0.292 HD
ENDBRANCH  13  20
BRANCH  16  22
ATOM     22  O   UNL     1      10.226   6.843  25.063  0.00  0.00    -0.506 OA
ATOM     23  H   UNL     1       9.743   6.447  25.807  0.00  0.00    +0.292 HD
ENDBRANCH  16  22
ENDBRANCH   1  17
BRANCH   5  24
ATOM     24  O   UNL     1       5.978  -1.446  22.715  0.00  0.00    -0.503 OA
ATOM     25  H   UNL     1       5.722  -2.093  23.393  0.00  0.00    +0.292 HD
ENDBRANCH   5  24
BRANCH   4  26
ATOM     26  O   UNL     1       7.828  -3.346  22.806  0.00  0.00    -0.457 OA
BRANCH  26  27
ATOM     27  C   UNL     1       8.193  -4.281  23.818  0.00  0.00    +0.339 C 
ATOM     28  O   UNL     1       7.545  -5.544  23.651  0.00  0.00    -0.331 OA
ATOM     29  C   UNL     1       6.158  -5.626  24.039  0.00  0.00    +0.179 C 
ATOM     30  C   UNL     1       5.904  -5.082  25.455  0.00  0.00    +0.177 C 
ATOM     31  C   UNL     1       6.520  -3.684  25.632  0.00  0.00    +0.180 C 
ATOM     32  C   UNL     1       8.000  -3.714  25.245  0.00  0.00    +0.214 C 
BRANCH  30  33
ATOM     33  O   UNL     1       6.476  -6.003  26.411  0.00  0.00    -0.386 OA
ATOM     34  H   UNL     1       6.774  -6.790  25.907  0.00  0.00    +0.210 HD
ENDBRANCH  30  33
BRANCH  31  35
ATOM     35  O   UNL     1       6.393  -3.256  26.998  0.00  0.00    -0.386 OA
ATOM     36  H   UNL     1       6.862  -3.929  27.528  0.00  0.00    +0.210 HD
ENDBRANCH  31  35
BRANCH  32  37
ATOM     37  O   UNL     1       8.679  -4.562  26.215  0.00  0.00    -0.383 OA
ATOM     38  H   UNL     1       8.260  -4.420  27.083  0.00  0.00    +0.210 HD
ENDBRANCH  32  37
BRANCH  29  39
ATOM     39  C   UNL     1       5.185  -5.057  22.988  0.00  0.00    +0.190 C 
BRANCH  39  40
ATOM     40  O   UNL     1       5.645  -5.167  21.650  0.00  0.00    -0.392 OA
ATOM     41  H   UNL     1       6.484  -5.673  21.660  0.00  0.00    +0.210 HD
ENDBRANCH  39  40
ENDBRANCH  29  39
ENDBRANCH  26  27
ENDBRANCH   4  26
TORSDOF 12
ENDMDL
MODEL 3
REMARK VINA RESULT:      -7.0      1.450      2.068
REMARK  Name = 
REMARK  13 active torsions:
REMARK  status: ('A' for Active; 'I' for Inactive)
REMARK    1  A    between atoms: C_1  and  O_2
REMARK    2  A    between atoms: O_2  and  C_3
REMARK    3  A    between atoms: C_4  and  C_16
REMARK    4  A    between atoms: C_8  and  O_15
REMARK    5  A    between atoms: C_10  and  O_14
REMARK    6  A    between atoms: C_18  and  O_37
REMARK    7  A    between atoms: C_19  and  O_22
REMARK    8  A    between atoms: O_22  and  C_23
REMARK    9  A    between atoms: C_25  and  O_36
REMARK   10  A    between atoms: C_27  and  O_35
REMARK   11  A    between atoms: C_28  and  O_34
REMARK   12  A    between atoms: C_29  and  C_32
REMARK   13  A    between atoms: C_32  and  O_33
REMARK                            x       y       z     vdW  Elec       q    Type
REMARK                         _______ _______ _______ _____ _____    ______ ____
ROOT
ATOM      1  C   UNL     1       8.498   0.536  24.164  0.00  0.00    +0.025 A 
ATOM      2  C   UNL     1       8.410  -0.078  25.420  0.00  0.00    +0.015 A 
ATOM      3  C   UNL     1       7.988  -1.408  25.545  0.00  0.00    +0.050 A 
ATOM      4  C   UNL     1       7.631  -2.149  24.417  0.00  0.00    +0.165 A 
ATOM      5  C   UNL     1       7.755  -1.538  23.160  0.00  0.00    +0.159 A 
ATOM      6  C   UNL     1       8.185  -0.212  23.024  0.00  0.00    +0.060 A 
ENDROOT
BRANCH   1  17
ATOM      7  C   UNL     1       7.921   2.945  24.285  0.00  0.00    +0.211 A 
ATOM      8  C   UNL     1       8.357   4.351  24.007  0.00  0.00    +0.238 A 
ATOM      9  O   UNL     1       7.548   5.258  23.860  0.00  0.00    -0.283 OA
ATOM     10  C   UNL     1       9.809   4.577  23.844  0.00  0.00    +0.109 A 
ATOM     11  C   UNL     1      10.623   3.457  23.667  0.00  0.00    +0.147 A 
ATOM     12  C   UNL     1      11.992   3.599  23.422  0.00  0.00    +0.092 A 
ATOM     13  C   UNL     1      12.545   4.872  23.377  0.00  0.00    +0.124 A 
ATOM     14  C   UNL     1      11.757   6.004  23.579  0.00  0.00    +0.091 A 
ATOM     15  O   UNL     1      10.144   2.175  23.713  0.00  0.00    -0.451 OA
ATOM     16  C   UNL     1      10.392   5.853  23.811  0.00  0.00    +0.135 A 
ATOM     17  C   UNL     1       8.827   1.967  24.085  0.00  0.00    +0.181 A 
BRANCH   7  19
ATOM     18  C   UNL     1       6.273   2.908  25.988  0.00  0.00    +0.277 C 
ATOM     19  O   UNL     1       6.603   2.649  24.625  0.00  0.00    -0.488 OA
ENDBRANCH   7  19
BRANCH  13  20
ATOM     20  O   UNL     1      13.875   5.066  23.142  0.00  0.00    -0.507 OA
ATOM     21  H   UNL     1      14.022   5.142  22.184  0.00  0.00    +0.292 HD
ENDBRANCH  13  20
BRANCH  16  22
ATOM     22  O   UNL     1       9.637   6.970  24.047  0.00  0.00    -0.506 OA
ATOM     23  H   UNL     1      10.133   7.598  24.595  0.00  0.00    +0.292 HD
ENDBRANCH  16  22
ENDBRANCH   1  17
BRANCH   5  24
ATOM     24  O   UNL     1       7.453  -2.281  22.048  0.00  0.00    -0.503 OA
ATOM     25  H   UNL     1       8.249  -2.377  21.499  0.00  0.00    +0.292 HD
ENDBRANCH   5  24
BRANCH   4  26
ATOM     26  O   UNL     1       7.142  -3.436  24.417  0.00  0.00    -0.457 OA
BRANCH  26  27
ATOM     27  C   UNL     1       5.750  -3.621  24.659  0.00  0.00    +0.339 C 
ATOM     28  O   UNL     1       5.459  -3.799  26.047  0.00  0.00    -0.331 OA
ATOM     29  C   UNL     1       5.755  -5.090  26.619  0.00  0.00    +0.179 C 
ATOM     30  C   UNL     1       5.168  -6.252  25.799  0.00  0.00    +0.177 C 
ATOM     31  C   UNL     1       5.541  -6.127  24.313  0.00  0.00    +0.180 C 
ATOM     32  C   UNL     1       5.141  -4.746  23.789  0.00  0.00    +0.214 C 
BRANCH  30  33
ATOM     33  O   UNL     1       3.730  -6.244  25.954  0.00  0.00    -0.386 OA
ATOM     34  H   UNL     1       3.457  -5.306  26.032  0.00  0.00    +0.210 HD
ENDBRANCH  30  33
BRANCH  31  35
ATOM     35  O   UNL     1       4.870  -7.140  23.547  0.00  0.00    -0.386 OA
ATOM     36  H   UNL     1       4.932  -7.956  24.080  0.00  0.00    +0.210 HD
ENDBRANCH  31  35
BRANCH  32  37
ATOM     37  O   UNL     1       3.687  -4.677  23.831  0.00  0.00    -0.383 OA
ATOM     38  H   UNL     1       3.435  -3.752  24.006  0.00  0.00    +0.210 HD
ENDBRANCH  32  37
BRANCH  29  39
ATOM     39  C   UNL     1       7.243  -5.287  26.969  0.00  0.00    +0.190 C 
BRANCH  39  40
ATOM     40  O   UNL     1       7.475  -6.220  28.013  0.00  0.00    -0.392 OA
ATOM     41  H   UNL     1       7.223  -7.109  27.686  0.00  0.00    +0.210 HD
ENDBRANCH  39  40
ENDBRANCH  29  39
ENDBRANCH  26  27
ENDBRANCH   4  26
TORSDOF 12
ENDMDL
MODEL 4
REMARK VINA RESULT:      -6.7      2.202      4.407
REMARK  Name = 
REMARK  13 active torsions:
REMARK  status: ('A' for Active; 'I' for Inactive)
REMARK    1  A    between atoms: C_1  and  O_2
REMARK    2  A    between atoms: O_2  and  C_3
REMARK    3  A    between atoms: C_4  and  C_16
REMARK    4  A    between atoms: C_8  and  O_15
REMARK    5  A    between atoms: C_10  and  O_14
REMARK    6  A    between atoms: C_18  and  O_37
REMARK    7  A    between atoms: C_19  and  O_22
REMARK    8  A    between atoms: O_22  and  C_23
REMARK    9  A    between atoms: C_25  and  O_36
REMARK   10  A    between atoms: C_27  and  O_35
REMARK   11  A    between atoms: C_28  and  O_34
REMARK   12  A    between atoms: C_29  and  C_32
REMARK   13  A    between atoms: C_32  and  O_33
REMARK                            x       y       z     vdW  Elec       q    Type
REMARK                         _______ _______ _______ _____ _____    ______ ____
ROOT
ATOM      1  C   UNL     1       7.831  -0.094  24.752  0.00  0.00    +0.025 A 
ATOM      2  C   UNL     1       8.245  -0.814  25.880  0.00  0.00    +0.015 A 
ATOM      3  C   UNL     1       7.629  -2.022  26.231  0.00  0.00    +0.050 A 
ATOM      4  C   UNL     1       6.577  -2.531  25.468  0.00  0.00    +0.165 A 
ATOM      5  C   UNL     1       6.192  -1.823  24.320  0.00  0.00    +0.159 A 
ATOM      6  C   UNL     1       6.807  -0.617  23.956  0.00  0.00    +0.060 A 
ENDROOT
BRANCH   1  17
ATOM      7  C   UNL     1       9.387   1.436  23.572  0.00  0.00    +0.211 A 
ATOM      8  C   UNL     1      10.007   2.798  23.528  0.00  0.00    +0.238 A 
ATOM      9  O   UNL     1      11.076   3.000  22.967  0.00  0.00    -0.283 OA
ATOM     10  C   UNL     1       9.303   3.874  24.259  0.00  0.00    +0.109 A 
ATOM     11  C   UNL     1       8.305   3.499  25.159  0.00  0.00    +0.147 A 
ATOM     12  C   UNL     1       7.657   4.454  25.947  0.00  0.00    +0.092 A 
ATOM     13  C   UNL     1       8.000   5.793  25.811  0.00  0.00    +0.124 A 
ATOM     14  C   UNL     1       8.974   6.194  24.898  0.00  0.00    +0.091 A 
ATOM     15  O   UNL     1       7.910   2.199  25.332  0.00  0.00    -0.451 OA
ATOM     16  C   UNL     1       9.622   5.233  24.125  0.00  0.00    +0.135 A 
ATOM     17  C   UNL     1       8.418   1.228  24.487  0.00  0.00    +0.181 A 
BRANCH   7  19
ATOM     18  C   UNL     1       9.356   0.378  21.452  0.00  0.00    +0.277 C 
ATOM     19  O   UNL     1       9.869   0.394  22.783  0.00  0.00    -0.488 OA
ENDBRANCH   7  19
BRANCH  13  20
ATOM     20  O   UNL     1       7.397   6.765  26.555  0.00  0.00    -0.507 OA
ATOM     21  H   UNL     1       8.073   7.238  27.068  0.00  0.00    +0.292 HD
ENDBRANCH  13  20
BRANCH  16  22
ATOM     22  O   UNL     1      10.548   5.645  23.205  0.00  0.00    -0.506 OA
ATOM     23  H   UNL     1      10.437   6.591  23.020  0.00  0.00    +0.292 HD
ENDBRANCH  16  22
ENDBRANCH   1  17
BRANCH   5  24
ATOM     24  O   UNL     1       5.193  -2.347  23.542  0.00  0.00    -0.503 OA
ATOM     25  H   UNL     1       4.449  -2.611  24.108  0.00  0.00    +0.292 HD
ENDBRANCH   5  24
BRANCH   4  26
ATOM     26  O   UNL     1       5.854  -3.669  25.745  0.00  0.00    -0.457 OA
BRANCH  26  27
ATOM     27  C   UNL     1       6.386  -4.580  26.703  0.00  0.00    +0.339 C 
ATOM     28  O   UNL     1       6.531  -5.901  26.175  0.00  0.00    -0.331 OA
ATOM     29  C   UNL     1       5.332  -6.693  26.050  0.00  0.00    +0.179 C 
ATOM     30  C   UNL     1       4.505  -6.727  27.347  0.00  0.00    +0.177 C 
ATOM     31  C   UNL     1       4.263  -5.309  27.889  0.00  0.00    +0.180 C 
ATOM     32  C   UNL     1       5.595  -4.571  28.034  0.00  0.00    +0.214 C 
BRANCH  30  33
ATOM     33  O   UNL     1       5.216  -7.520  28.325  0.00  0.00    -0.386 OA
ATOM     34  H   UNL     1       4.999  -8.458  28.145  0.00  0.00    +0.210 HD
ENDBRANCH  30  33
BRANCH  31  35
ATOM     35  O   UNL     1       3.612  -5.372  29.168  0.00  0.00    -0.386 OA
ATOM     36  H   UNL     1       2.821  -5.928  29.032  0.00  0.00    +0.210 HD
ENDBRANCH  31  35
BRANCH  32  37
ATOM     37  O   UNL     1       6.355  -5.258  29.070  0.00  0.00    -0.383 OA
ATOM     38  H   UNL     1       6.100  -4.877  29.930  0.00  0.00    +0.210 HD
ENDBRANCH  32  37
BRANCH  29  39
ATOM     39  C   UNL     1       4.490  -6.353  24.805  0.00  0.00    +0.190 C 
BRANCH  39  40
ATOM     40  O   UNL     1       4.197  -7.470  23.980  0.00  0.00    -0.392 OA
ATOM     41  H   UNL     1       4.927  -7.569  23.334  0.00  0.00    +0.210 HD
ENDBRANCH  39  40
ENDBRANCH  29  39
ENDBRANCH  26  27
ENDBRANCH   4  26
TORSDOF 12
ENDMDL
MODEL 5
REMARK VINA RESULT:      -6.4      1.741      3.170
REMARK  Name = 
REMARK  13 active torsions:
REMARK  status: ('A' for Active; 'I' for Inactive)
REMARK    1  A    between atoms: C_1  and  O_2
REMARK    2  A    between atoms: O_2  and  C_3
REMARK    3  A    between atoms: C_4  and  C_16
REMARK    4  A    between atoms: C_8  and  O_15
REMARK    5  A    between atoms: C_10  and  O_14
REMARK    6  A    between atoms: C_18  and  O_37
REMARK    7  A    between atoms: C_19  and  O_22
REMARK    8  A    between atoms: O_22  and  C_23
REMARK    9  A    between atoms: C_25  and  O_36
REMARK   10  A    between atoms: C_27  and  O_35
REMARK   11  A    between atoms: C_28  and  O_34
REMARK   12  A    between atoms: C_29  and  C_32
REMARK   13  A    between atoms: C_32  and  O_33
REMARK                            x       y       z     vdW  Elec       q    Type
REMARK                         _______ _______ _______ _____ _____    ______ ____
ROOT
ATOM      1  C   UNL     1       7.739   0.572  24.364  0.00  0.00    +0.025 A 
ATOM      2  C   UNL     1       7.991  -0.091  25.572  0.00  0.00    +0.015 A 
ATOM      3  C   UNL     1       7.513  -1.389  25.796  0.00  0.00    +0.050 A 
ATOM      4  C   UNL     1       6.761  -2.047  24.822  0.00  0.00    +0.165 A 
ATOM      5  C   UNL     1       6.544  -1.390  23.601  0.00  0.00    +0.159 A 
ATOM      6  C   UNL     1       7.024  -0.096  23.364  0.00  0.00    +0.060 A 
ENDROOT
BRANCH   1  17
ATOM      7  C   UNL     1       7.305   3.014  24.365  0.00  0.00    +0.211 A 
ATOM      8  C   UNL     1       7.823   4.376  24.019  0.00  0.00    +0.238 A 
ATOM      9  O   UNL     1       7.068   5.321  23.826  0.00  0.00    -0.283 OA
ATOM     10  C   UNL     1       9.285   4.508  23.845  0.00  0.00    +0.109 A 
ATOM     11  C   UNL     1      10.032   3.335  23.725  0.00  0.00    +0.147 A 
ATOM     12  C   UNL     1      11.406   3.384  23.474  0.00  0.00    +0.092 A 
ATOM     13  C   UNL     1      12.033   4.618  23.367  0.00  0.00    +0.124 A 
ATOM     14  C   UNL     1      11.313   5.803  23.512  0.00  0.00    +0.091 A 
ATOM     15  O   UNL     1       9.478   2.087  23.834  0.00  0.00    -0.451 OA
ATOM     16  C   UNL     1       9.942   5.744  23.750  0.00  0.00    +0.135 A 
ATOM     17  C   UNL     1       8.152   1.975  24.214  0.00  0.00    +0.181 A 
BRANCH   7  19
ATOM     18  C   UNL     1       5.693   3.012  26.102  0.00  0.00    +0.277 C 
ATOM     19  O   UNL     1       5.973   2.813  24.717  0.00  0.00    -0.488 OA
ENDBRANCH   7  19
BRANCH  13  20
ATOM     20  O   UNL     1      13.371   4.722  23.125  0.00  0.00    -0.507 OA
ATOM     21  H   UNL     1      13.569   4.328  22.258  0.00  0.00    +0.292 HD
ENDBRANCH  13  20
BRANCH  16  22
ATOM     22  O   UNL     1       9.255   6.914  23.929  0.00  0.00    -0.506 OA
ATOM     23  H   UNL     1       8.347   6.822  23.598  0.00  0.00    +0.292 HD
ENDBRANCH  16  22
ENDBRANCH   1  17
BRANCH   5  24
ATOM     24  O   UNL     1       5.848  -2.055  22.625  0.00  0.00    -0.503 OA
ATOM     25  H   UNL     1       5.429  -2.844  23.009  0.00  0.00    +0.292 HD
ENDBRANCH   5  24
BRANCH   4  26
ATOM     26  O   UNL     1       6.186  -3.291  24.949  0.00  0.00    -0.457 OA
BRANCH  26  27
ATOM     27  C   UNL     1       6.648  -4.136  25.999  0.00  0.00    +0.339 C 
ATOM     28  O   UNL     1       6.901  -5.470  25.552  0.00  0.00    -0.331 OA
ATOM     29  C   UNL     1       5.754  -6.319  25.341  0.00  0.00    +0.179 C 
ATOM     30  C   UNL     1       4.796  -6.334  26.544  0.00  0.00    +0.177 C 
ATOM     31  C   UNL     1       4.442  -4.906  26.990  0.00  0.00    +0.180 C 
ATOM     32  C   UNL     1       5.721  -4.105  27.238  0.00  0.00    +0.214 C 
BRANCH  30  33
ATOM     33  O   UNL     1       5.430  -7.052  27.628  0.00  0.00    -0.386 OA
ATOM     34  H   UNL     1       4.969  -6.789  28.452  0.00  0.00    +0.210 HD
ENDBRANCH  30  33
BRANCH  31  35
ATOM     35  O   UNL     1       3.661  -4.943  28.196  0.00  0.00    -0.386 OA
ATOM     36  H   UNL     1       2.732  -5.012  27.904  0.00  0.00    +0.210 HD
ENDBRANCH  31  35
BRANCH  32  37
ATOM     37  O   UNL     1       6.392  -4.712  28.379  0.00  0.00    -0.383 OA
ATOM     38  H   UNL     1       6.656  -3.997  28.987  0.00  0.00    +0.210 HD
ENDBRANCH  32  37
BRANCH  29  39
ATOM     39  C   UNL     1       5.037  -6.071  24.000  0.00  0.00    +0.190 C 
BRANCH  39  40
ATOM     40  O   UNL     1       4.364  -7.208  23.482  0.00  0.00    -0.392 OA
ATOM     41  H   UNL     1       3.932  -6.947  22.642  0.00  0.00    +0.210 HD
ENDBRANCH  39  40
ENDBRANCH  29  39
ENDBRANCH  26  27
ENDBRANCH   4  26
TORSDOF 12
ENDMDL
MODEL 6
REMARK VINA RESULT:      -6.4      2.214      3.850
REMARK  Name = 
REMARK  13 active torsions:
REMARK  status: ('A' for Active; 'I' for Inactive)
REMARK    1  A    between atoms: C_1  and  O_2
REMARK    2  A    between atoms: O_2  and  C_3
REMARK    3  A    between atoms: C_4  and  C_16
REMARK    4  A    between atoms: C_8  and  O_15
REMARK    5  A    between atoms: C_10  and  O_14
REMARK    6  A    between atoms: C_18  and  O_37
REMARK    7  A    between atoms: C_19  and  O_22
REMARK    8  A    between atoms: O_22  and  C_23
REMARK    9  A    between atoms: C_25  and  O_36
REMARK   10  A    between atoms: C_27  and  O_35
REMARK   11  A    between atoms: C_28  and  O_34
REMARK   12  A    between atoms: C_29  and  C_32
REMARK   13  A    between atoms: C_32  and  O_33
REMARK                            x       y       z     vdW  Elec       q    Type
REMARK                         _______ _______ _______ _____ _____    ______ ____
ROOT
ATOM      1  C   UNL     1       7.714  -0.049  23.838  0.00  0.00    +0.025 A 
ATOM      2  C   UNL     1       7.631  -0.584  25.129  0.00  0.00    +0.015 A 
ATOM      3  C   UNL     1       7.201  -1.901  25.339  0.00  0.00    +0.050 A 
ATOM      4  C   UNL     1       6.831  -2.708  24.261  0.00  0.00    +0.165 A 
ATOM      5  C   UNL     1       6.951  -2.176  22.968  0.00  0.00    +0.159 A 
ATOM      6  C   UNL     1       7.388  -0.863  22.748  0.00  0.00    +0.060 A 
ENDROOT
BRANCH   1  17
ATOM      7  C   UNL     1       9.308   1.811  23.449  0.00  0.00    +0.211 A 
ATOM      8  C   UNL     1       9.528   3.292  23.463  0.00  0.00    +0.238 A 
ATOM      9  O   UNL     1      10.647   3.775  23.582  0.00  0.00    -0.283 OA
ATOM     10  C   UNL     1       8.322   4.146  23.402  0.00  0.00    +0.109 A 
ATOM     11  C   UNL     1       7.087   3.537  23.630  0.00  0.00    +0.147 A 
ATOM     12  C   UNL     1       5.913   4.295  23.672  0.00  0.00    +0.092 A 
ATOM     13  C   UNL     1       5.983   5.666  23.462  0.00  0.00    +0.124 A 
ATOM     14  C   UNL     1       7.201   6.291  23.203  0.00  0.00    +0.091 A 
ATOM     15  O   UNL     1       6.947   2.189  23.832  0.00  0.00    -0.451 OA
ATOM     16  C   UNL     1       8.367   5.529  23.175  0.00  0.00    +0.135 A 
ATOM     17  C   UNL     1       8.052   1.372  23.668  0.00  0.00    +0.181 A 
BRANCH   7  19
ATOM     18  C   UNL     1      11.044   0.638  24.556  0.00  0.00    +0.277 C 
ATOM     19  O   UNL     1      10.373   0.921  23.330  0.00  0.00    -0.488 OA
ENDBRANCH   7  19
BRANCH  13  20
ATOM     20  O   UNL     1       4.868   6.451  23.491  0.00  0.00    -0.507 OA
ATOM     21  H   UNL     1       4.335   6.278  22.697  0.00  0.00    +0.292 HD
ENDBRANCH  13  20
BRANCH  16  22
ATOM     22  O   UNL     1       9.551   6.149  22.882  0.00  0.00    -0.506 OA
ATOM     23  H   UNL     1       9.764   6.036  21.942  0.00  0.00    +0.292 HD
ENDBRANCH  16  22
ENDBRANCH   1  17
BRANCH   5  24
ATOM     24  O   UNL     1       6.636  -2.984  21.906  0.00  0.00    -0.503 OA
ATOM     25  H   UNL     1       7.434  -3.454  21.612  0.00  0.00    +0.292 HD
ENDBRANCH   5  24
BRANCH   4  26
ATOM     26  O   UNL     1       6.334  -3.989  24.344  0.00  0.00    -0.457 OA
BRANCH  26  27
ATOM     27  C   UNL     1       5.012  -4.159  24.848  0.00  0.00    +0.339 C 
ATOM     28  O   UNL     1       4.977  -4.207  26.276  0.00  0.00    -0.331 OA
ATOM     29  C   UNL     1       5.401  -5.435  26.902  0.00  0.00    +0.179 C 
ATOM     30  C   UNL     1       4.707  -6.674  26.312  0.00  0.00    +0.177 C 
ATOM     31  C   UNL     1       4.806  -6.689  24.778  0.00  0.00    +0.180 C 
ATOM     32  C   UNL     1       4.285  -5.368  24.209  0.00  0.00    +0.214 C 
BRANCH  30  33
ATOM     33  O   UNL     1       3.320  -6.662  26.721  0.00  0.00    -0.386 OA
ATOM     34  H   UNL     1       2.810  -7.112  26.015  0.00  0.00    +0.210 HD
ENDBRANCH  30  33
BRANCH  31  35
ATOM     35  O   UNL     1       4.034  -7.775  24.242  0.00  0.00    -0.386 OA
ATOM     36  H   UNL     1       3.810  -7.512  23.329  0.00  0.00    +0.210 HD
ENDBRANCH  31  35
BRANCH  32  37
ATOM     37  O   UNL     1       2.861  -5.306  24.504  0.00  0.00    -0.383 OA
ATOM     38  H   UNL     1       2.597  -4.367  24.517  0.00  0.00    +0.210 HD
ENDBRANCH  32  37
BRANCH  29  39
ATOM     39  C   UNL     1       6.932  -5.587  26.996  0.00  0.00    +0.190 C 
BRANCH  39  40
ATOM     40  O   UNL     1       7.375  -6.315  28.131  0.00  0.00    -0.392 OA
ATOM     41  H   UNL     1       7.253  -7.269  27.945  0.00  0.00    +0.210 HD
ENDBRANCH  39  40
ENDBRANCH  29  39
ENDBRANCH  26  27
ENDBRANCH   4  26
TORSDOF 12
ENDMDL
MODEL 7
REMARK VINA RESULT:      -6.4      2.306      9.700
REMARK  Name = 
REMARK  13 active torsions:
REMARK  status: ('A' for Active; 'I' for Inactive)
REMARK    1  A    between atoms: C_1  and  O_2
REMARK    2  A    between atoms: O_2  and  C_3
REMARK    3  A    between atoms: C_4  and  C_16
REMARK    4  A    between atoms: C_8  and  O_15
REMARK    5  A    between atoms: C_10  and  O_14
REMARK    6  A    between atoms: C_18  and  O_37
REMARK    7  A    between atoms: C_19  and  O_22
REMARK    8  A    between atoms: O_22  and  C_23
REMARK    9  A    between atoms: C_25  and  O_36
REMARK   10  A    between atoms: C_27  and  O_35
REMARK   11  A    between atoms: C_28  and  O_34
REMARK   12  A    between atoms: C_29  and  C_32
REMARK   13  A    between atoms: C_32  and  O_33
REMARK                            x       y       z     vdW  Elec       q    Type
REMARK                         _______ _______ _______ _____ _____    ______ ____
ROOT
ATOM      1  C   UNL     1       6.664  -1.524  25.154  0.00  0.00    +0.025 A 
ATOM      2  C   UNL     1       8.045  -1.338  25.016  0.00  0.00    +0.015 A 
ATOM      3  C   UNL     1       8.615  -0.062  25.111  0.00  0.00    +0.050 A 
ATOM      4  C   UNL     1       7.813   1.060  25.331  0.00  0.00    +0.165 A 
ATOM      5  C   UNL     1       6.435   0.861  25.502  0.00  0.00    +0.159 A 
ATOM      6  C   UNL     1       5.857  -0.412  25.418  0.00  0.00    +0.060 A 
ENDROOT
BRANCH   1  17
ATOM      7  C   UNL     1       5.808  -3.343  23.701  0.00  0.00    +0.211 A 
ATOM      8  C   UNL     1       5.075  -4.647  23.631  0.00  0.00    +0.238 A 
ATOM      9  O   UNL     1       4.509  -5.012  22.609  0.00  0.00    -0.283 OA
ATOM     10  C   UNL     1       5.002  -5.437  24.879  0.00  0.00    +0.109 A 
ATOM     11  C   UNL     1       5.351  -4.799  26.071  0.00  0.00    +0.147 A 
ATOM     12  C   UNL     1       5.225  -5.458  27.297  0.00  0.00    +0.092 A 
ATOM     13  C   UNL     1       4.769  -6.769  27.321  0.00  0.00    +0.124 A 
ATOM     14  C   UNL     1       4.442  -7.436  26.141  0.00  0.00    +0.091 A 
ATOM     15  O   UNL     1       5.819  -3.513  26.116  0.00  0.00    -0.451 OA
ATOM     16  C   UNL     1       4.559  -6.767  24.924  0.00  0.00    +0.135 A 
ATOM     17  C   UNL     1       6.092  -2.859  24.927  0.00  0.00    +0.181 A 
BRANCH   7  19
ATOM     18  C   UNL     1       7.263  -3.009  21.861  0.00  0.00    +0.277 C 
ATOM     19  O   UNL     1       6.083  -2.604  22.553  0.00  0.00    -0.488 OA
ENDBRANCH   7  19
BRANCH  13  20
ATOM     20  O   UNL     1       4.629  -7.457  28.490  0.00  0.00    -0.507 OA
ATOM     21  H   UNL     1       3.937  -7.036  29.027  0.00  0.00    +0.292 HD
ENDBRANCH  13  20
BRANCH  16  22
ATOM     22  O   UNL     1       4.273  -7.446  23.771  0.00  0.00    -0.506 OA
ATOM     23  H   UNL     1       4.915  -7.217  23.080  0.00  0.00    +0.292 HD
ENDBRANCH  16  22
ENDBRANCH   1  17
BRANCH   5  24
ATOM     24  O   UNL     1       5.653   1.955  25.768  0.00  0.00    -0.503 OA
ATOM     25  H   UNL     1       6.188   2.762  25.678  0.00  0.00    +0.292 HD
ENDBRANCH   5  24
BRANCH   4  26
ATOM     26  O   UNL     1       8.246   2.366  25.378  0.00  0.00    -0.457 OA
BRANCH  26  27
ATOM     27  C   UNL     1       8.836   2.915  24.203  0.00  0.00    +0.339 C 
ATOM     28  O   UNL     1       9.158   4.300  24.353  0.00  0.00    -0.331 OA
ATOM     29  C   UNL     1       8.066   5.240  24.275  0.00  0.00    +0.179 C 
ATOM     30  C   UNL     1       7.190   5.030  23.028  0.00  0.00    +0.177 C 
ATOM     31  C   UNL     1       6.760   3.561  22.892  0.00  0.00    +0.180 C 
ATOM     32  C   UNL     1       7.989   2.651  22.934  0.00  0.00    +0.214 C 
BRANCH  30  33
ATOM     33  O   UNL     1       7.943   5.439  21.863  0.00  0.00    -0.386 OA
ATOM     34  H   UNL     1       8.233   4.620  21.409  0.00  0.00    +0.210 HD
ENDBRANCH  30  33
BRANCH  31  35
ATOM     35  O   UNL     1       6.062   3.362  21.652  0.00  0.00    -0.386 OA
ATOM     36  H   UNL     1       6.756   3.301  20.968  0.00  0.00    +0.210 HD
ENDBRANCH  31  35
BRANCH  32  37
ATOM     37  O   UNL     1       8.774   2.937  21.742  0.00  0.00    -0.383 OA
ATOM     38  H   UNL     1       8.311   2.549  20.977  0.00  0.00    +0.210 HD
ENDBRANCH  32  37
BRANCH  29  39
ATOM     39  C   UNL     1       7.250   5.351  25.577  0.00  0.00    +0.190 C 
BRANCH  39  40
ATOM     40  O   UNL     1       7.945   4.922  26.737  0.00  0.00    -0.392 OA
ATOM     41  H   UNL     1       7.622   4.026  26.969  0.00  0.00    +0.210 HD
ENDBRANCH  39  40
ENDBRANCH  29  39
ENDBRANCH  26  27
ENDBRANCH   4  26
TORSDOF 12
ENDMDL
MODEL 8
REMARK VINA RESULT:      -6.3      2.528     10.262
REMARK  Name = 
REMARK  13 active torsions:
REMARK  status: ('A' for Active; 'I' for Inactive)
REMARK    1  A    between atoms: C_1  and  O_2
REMARK    2  A    between atoms: O_2  and  C_3
REMARK    3  A    between atoms: C_4  and  C_16
REMARK    4  A    between atoms: C_8  and  O_15
REMARK    5  A    between atoms: C_10  and  O_14
REMARK    6  A    between atoms: C_18  and  O_37
REMARK    7  A    between atoms: C_19  and  O_22
REMARK    8  A    between atoms: O_22  and  C_23
REMARK    9  A    between atoms: C_25  and  O_36
REMARK   10  A    between atoms: C_27  and  O_35
REMARK   11  A    between atoms: C_28  and  O_34
REMARK   12  A    between atoms: C_29  and  C_32
REMARK   13  A    between atoms: C_32  and  O_33
REMARK                            x       y       z     vdW  Elec       q    Type
REMARK                         _______ _______ _______ _____ _____    ______ ____
ROOT
ATOM      1  C   UNL     1       5.647  -3.161  24.808  0.00  0.00    +0.025 A 
ATOM      2  C   UNL     1       6.997  -3.325  25.143  0.00  0.00    +0.015 A 
ATOM      3  C   UNL     1       7.852  -2.222  25.257  0.00  0.00    +0.050 A 
ATOM      4  C   UNL     1       7.379  -0.929  25.025  0.00  0.00    +0.165 A 
ATOM      5  C   UNL     1       6.018  -0.770  24.725  0.00  0.00    +0.159 A 
ATOM      6  C   UNL     1       5.153  -1.867  24.616  0.00  0.00    +0.060 A 
ENDROOT
BRANCH   1  17
ATOM      7  C   UNL     1       4.639  -4.907  23.363  0.00  0.00    +0.211 A 
ATOM      8  C   UNL     1       3.632  -6.009  23.252  0.00  0.00    +0.238 A 
ATOM      9  O   UNL     1       3.182  -6.363  22.169  0.00  0.00    -0.283 OA
ATOM     10  C   UNL     1       3.148  -6.600  24.518  0.00  0.00    +0.109 A 
ATOM     11  C   UNL     1       3.428  -5.913  25.701  0.00  0.00    +0.147 A 
ATOM     12  C   UNL     1       2.930  -6.366  26.926  0.00  0.00    +0.092 A 
ATOM     13  C   UNL     1       2.168  -7.527  26.961  0.00  0.00    +0.124 A 
ATOM     14  C   UNL     1       1.901  -8.245  25.797  0.00  0.00    +0.091 A 
ATOM     15  O   UNL     1       4.183  -4.770  25.737  0.00  0.00    -0.451 OA
ATOM     16  C   UNL     1       2.391  -7.779  24.579  0.00  0.00    +0.135 A 
ATOM     17  C   UNL     1       4.813  -4.349  24.579  0.00  0.00    +0.181 A 
BRANCH   7  19
ATOM     18  C   UNL     1       6.398  -5.177  21.797  0.00  0.00    +0.277 C 
ATOM     19  O   UNL     1       5.286  -4.400  22.238  0.00  0.00    -0.488 OA
ENDBRANCH   7  19
BRANCH  13  20
ATOM     20  O   UNL     1       1.660  -8.013  28.130  0.00  0.00    -0.507 OA
ATOM     21  H   UNL     1       2.393  -8.285  28.708  0.00  0.00    +0.292 HD
ENDBRANCH  13  20
BRANCH  16  22
ATOM     22  O   UNL     1       2.154  -8.515  23.450  0.00  0.00    -0.506 OA
ATOM     23  H   UNL     1       2.950  -9.013  23.203  0.00  0.00    +0.292 HD
ENDBRANCH  16  22
ENDBRANCH   1  17
BRANCH   5  24
ATOM     24  O   UNL     1       5.540   0.503  24.546  0.00  0.00    -0.503 OA
ATOM     25  H   UNL     1       5.941   0.888  23.748  0.00  0.00    +0.292 HD
ENDBRANCH   5  24
BRANCH   4  26
ATOM     26  O   UNL     1       8.132   0.223  25.043  0.00  0.00    -0.457 OA
BRANCH  26  27
ATOM     27  C   UNL     1       9.294   0.273  24.219  0.00  0.00    +0.339 C 
ATOM     28  O   UNL     1      10.114   1.408  24.505  0.00  0.00    -0.331 OA
ATOM     29  C   UNL     1       9.670   2.683  23.999  0.00  0.00    +0.179 C 
ATOM     30  C   UNL     1       9.325   2.641  22.500  0.00  0.00    +0.177 C 
ATOM     31  C   UNL     1       8.373   1.476  22.182  0.00  0.00    +0.180 C 
ATOM     32  C   UNL     1       8.957   0.165  22.712  0.00  0.00    +0.214 C 
BRANCH  30  33
ATOM     33  O   UNL     1      10.554   2.499  21.750  0.00  0.00    -0.386 OA
ATOM     34  H   UNL     1      11.105   1.843  22.227  0.00  0.00    +0.210 HD
ENDBRANCH  30  33
BRANCH  31  35
ATOM     35  O   UNL     1       8.177   1.370  20.763  0.00  0.00    -0.386 OA
ATOM     36  H   UNL     1       8.267   2.279  20.418  0.00  0.00    +0.210 HD
ENDBRANCH  31  35
BRANCH  32  37
ATOM     37  O   UNL     1      10.168  -0.104  21.949  0.00  0.00    -0.383 OA
ATOM     38  H   UNL     1      10.303   0.636  21.330  0.00  0.00    +0.210 HD
ENDBRANCH  32  37
BRANCH  29  39
ATOM     39  C   UNL     1       8.569   3.341  24.854  0.00  0.00    +0.190 C 
BRANCH  39  40
ATOM     40  O   UNL     1       7.250   2.947  24.507  0.00  0.00    -0.392 OA
ATOM     41  H   UNL     1       7.169   2.993  23.531  0.00  0.00    +0.210 HD
ENDBRANCH  39  40
ENDBRANCH  29  39
ENDBRANCH  26  27
ENDBRANCH   4  26
TORSDOF 12
ENDMDL
MODEL 9
REMARK VINA RESULT:      -6.2      2.315      4.566
REMARK  Name = 
REMARK  13 active torsions:
REMARK  status: ('A' for Active; 'I' for Inactive)
REMARK    1  A    between atoms: C_1  and  O_2
REMARK    2  A    between atoms: O_2  and  C_3
REMARK    3  A    between atoms: C_4  and  C_16
REMARK    4  A    between atoms: C_8  and  O_15
REMARK    5  A    between atoms: C_10  and  O_14
REMARK    6  A    between atoms: C_18  and  O_37
REMARK    7  A    between atoms: C_19  and  O_22
REMARK    8  A    between atoms: O_22  and  C_23
REMARK    9  A    between atoms: C_25  and  O_36
REMARK   10  A    between atoms: C_27  and  O_35
REMARK   11  A    between atoms: C_28  and  O_34
REMARK   12  A    between atoms: C_29  and  C_32
REMARK   13  A    between atoms: C_32  and  O_33
REMARK                            x       y       z     vdW  Elec       q    Type
REMARK                         _______ _______ _______ _____ _____    ______ ____
ROOT
ATOM      1  C   UNL     1       7.119  -1.089  24.269  0.00  0.00    +0.025 A 
ATOM      2  C   UNL     1       6.766  -1.551  25.543  0.00  0.00    +0.015 A 
ATOM      3  C   UNL     1       5.851  -2.599  25.703  0.00  0.00    +0.050 A 
ATOM      4  C   UNL     1       5.258  -3.201  24.592  0.00  0.00    +0.165 A 
ATOM      5  C   UNL     1       5.643  -2.756  23.318  0.00  0.00    +0.159 A 
ATOM      6  C   UNL     1       6.563  -1.714  23.147  0.00  0.00    +0.060 A 
ENDROOT
BRANCH   1  17
ATOM      7  C   UNL     1       9.326   0.012  24.010  0.00  0.00    +0.211 A 
ATOM      8  C   UNL     1      10.099   1.294  24.065  0.00  0.00    +0.238 A 
ATOM      9  O   UNL     1      11.307   1.309  24.261  0.00  0.00    -0.283 OA
ATOM     10  C   UNL     1       9.319   2.545  23.948  0.00  0.00    +0.109 A 
ATOM     11  C   UNL     1       7.933   2.461  24.089  0.00  0.00    +0.147 A 
ATOM     12  C   UNL     1       7.141   3.613  24.075  0.00  0.00    +0.092 A 
ATOM     13  C   UNL     1       7.746   4.850  23.894  0.00  0.00    +0.124 A 
ATOM     14  C   UNL     1       9.125   4.956  23.722  0.00  0.00    +0.091 A 
ATOM     15  O   UNL     1       7.274   1.272  24.258  0.00  0.00    -0.451 OA
ATOM     16  C   UNL     1       9.907   3.803  23.749  0.00  0.00    +0.135 A 
ATOM     17  C   UNL     1       7.987   0.091  24.146  0.00  0.00    +0.181 A 
BRANCH   7  19
ATOM     18  C   UNL     1      10.313  -1.632  22.617  0.00  0.00    +0.277 C 
ATOM     19  O   UNL     1       9.972  -1.220  23.939  0.00  0.00    -0.488 OA
ENDBRANCH   7  19
BRANCH  13  20
ATOM     20  O   UNL     1       7.019   6.004  23.871  0.00  0.00    -0.507 OA
ATOM     21  H   UNL     1       7.323   6.556  23.131  0.00  0.00    +0.292 HD
ENDBRANCH  13  20
BRANCH  16  22
ATOM     22  O   UNL     1      11.255   3.918  23.540  0.00  0.00    -0.506 OA
ATOM     23  H   UNL     1      11.607   3.093  23.170  0.00  0.00    +0.292 HD
ENDBRANCH  16  22
ENDBRANCH   1  17
BRANCH   5  24
ATOM     24  O   UNL     1       5.099  -3.380  22.225  0.00  0.00    -0.503 OA
ATOM     25  H   UNL     1       5.392  -2.927  21.417  0.00  0.00    +0.292 HD
ENDBRANCH   5  24
BRANCH   4  26
ATOM     26  O   UNL     1       4.302  -4.190  24.623  0.00  0.00    -0.457 OA
BRANCH  26  27
ATOM     27  C   UNL     1       4.402  -5.184  25.640  0.00  0.00    +0.339 C 
ATOM     28  O   UNL     1       4.484  -6.506  25.102  0.00  0.00    -0.331 OA
ATOM     29  C   UNL     1       3.260  -7.092  24.615  0.00  0.00    +0.179 C 
ATOM     30  C   UNL     1       2.111  -7.004  25.635  0.00  0.00    +0.177 C 
ATOM     31  C   UNL     1       1.949  -5.569  26.164  0.00  0.00    +0.180 C 
ATOM     32  C   UNL     1       3.286  -5.058  26.704  0.00  0.00    +0.214 C 
BRANCH  30  33
ATOM     33  O   UNL     1       2.394  -7.909  26.726  0.00  0.00    -0.386 OA
ATOM     34  H   UNL     1       2.065  -7.481  27.545  0.00  0.00    +0.210 HD
ENDBRANCH  30  33
BRANCH  31  35
ATOM     35  O   UNL     1       0.968  -5.537  27.214  0.00  0.00    -0.386 OA
ATOM     36  H   UNL     1       0.506  -6.396  27.167  0.00  0.00    +0.210 HD
ENDBRANCH  31  35
BRANCH  32  37
ATOM     37  O   UNL     1       3.615  -5.867  27.870  0.00  0.00    -0.383 OA
ATOM     38  H   UNL     1       2.779  -6.134  28.295  0.00  0.00    +0.210 HD
ENDBRANCH  32  37
BRANCH  29  39
ATOM     39  C   UNL     1       2.858  -6.611  23.208  0.00  0.00    +0.190 C 
BRANCH  39  40
ATOM     40  O   UNL     1       3.941  -6.131  22.426  0.00  0.00    -0.392 OA
ATOM     41  H   UNL     1       4.281  -6.878  21.891  0.00  0.00    +0.210 HD
ENDBRANCH  39  40
ENDBRANCH  29  39
ENDBRANCH  26  27
ENDBRANCH   4  26
TORSDOF 12
ENDMDL
