MODEL 1
REMARK VINA RESULT:      -8.0      0.000      0.000
REMARK  Name = 
REMARK  6 active torsions:
REMARK  status: ('A' for Active; 'I' for Inactive)
REMARK    1  A    between atoms: C_3  and  O_28
REMARK    2  A    between atoms: C_4  and  O_27
REMARK    3  A    between atoms: C_6  and  C_7
REMARK    4  A    between atoms: C_8  and  O_26
REMARK    5  A    between atoms: C_9  and  O_25
REMARK    6  A    between atoms: C_11  and  O_24
REMARK                            x       y       z     vdW  Elec       q    Type
REMARK                         _______ _______ _______ _____ _____    ______ ____
ROOT
ATOM      1  C   UNL     1       8.361  -1.688  24.139  0.00  0.00    +0.181 A 
ATOM      2  O   UNL     1       7.966  -0.469  24.719  0.00  0.00    -0.447 OA
ATOM      3  C   UNL     1       7.578   0.534  23.851  0.00  0.00    +0.189 A 
ATOM      4  C   UNL     1       8.336   0.650  22.574  0.00  0.00    +0.111 A 
ATOM      5  C   UNL     1       8.544   2.028  22.048  0.00  0.00    +0.178 A 
ATOM      6  C   UNL     1       7.752   2.992  22.565  0.00  0.00    +0.224 A 
ATOM      7  O   UNL     1       8.291   4.015  23.387  0.00  0.00    -0.410 OA
ATOM      8  C   UNL     1       7.378   4.329  24.354  0.00  0.00    +0.423 A 
ATOM      9  O   UNL     1       6.566   5.237  24.266  0.00  0.00    -0.237 OA
ATOM     10  C   UNL     1       7.384   3.371  25.602  0.00  0.00    +0.423 A 
ATOM     11  O   UNL     1       7.800   3.789  26.675  0.00  0.00    -0.237 OA
ATOM     12  O   UNL     1       6.812   2.129  25.481  0.00  0.00    -0.410 OA
ATOM     13  C   UNL     1       6.482   2.389  23.026  0.00  0.00    +0.270 A 
ATOM     14  O   UNL     1       5.383   2.572  22.547  0.00  0.00    -0.280 OA
ATOM     15  C   UNL     1       8.968  -0.453  22.142  0.00  0.00    +0.177 A 
ATOM     16  C   UNL     1       6.767   1.550  24.200  0.00  0.00    +0.225 A 
ATOM     17  C   UNL     1       8.827  -1.705  22.866  0.00  0.00    +0.203 A 
ENDROOT
BRANCH   1  19
ATOM     18  C   UNL     1       7.191  -2.774  26.064  0.00  0.00    +0.015 A 
ATOM     19  C   UNL     1       8.164  -2.845  25.043  0.00  0.00    +0.025 A 
ATOM     20  C   UNL     1       8.941  -4.008  24.957  0.00  0.00    +0.060 A 
ATOM     21  C   UNL     1       8.717  -5.062  25.836  0.00  0.00    +0.159 A 
ATOM     22  C   UNL     1       7.763  -4.971  26.844  0.00  0.00    +0.158 A 
ATOM     23  C   UNL     1       6.992  -3.829  26.968  0.00  0.00    +0.050 A 
BRANCH  21  24
ATOM     24  O   UNL     1       9.464  -6.198  25.706  0.00  0.00    -0.503 OA
ATOM     25  H   UNL     1       9.318  -6.686  26.542  0.00  0.00    +0.292 HD
ENDBRANCH  21  24
BRANCH  22  26
ATOM     26  O   UNL     1       7.636  -6.031  27.697  0.00  0.00    -0.503 OA
ATOM     27  H   UNL     1       7.368  -5.689  28.568  0.00  0.00    +0.292 HD
ENDBRANCH  22  26
ENDBRANCH   1  19
BRANCH   5  28
ATOM     28  O   UNL     1       9.765   2.292  21.470  0.00  0.00    -0.503 OA
ATOM     29  H   UNL     1       9.669   2.087  20.514  0.00  0.00    +0.292 HD
ENDBRANCH   5  28
BRANCH  15  30
ATOM     30  O   UNL     1       9.791  -0.468  21.036  0.00  0.00    -0.503 OA
ATOM     31  H   UNL     1       9.206  -0.731  20.292  0.00  0.00    +0.292 HD
ENDBRANCH  15  30
BRANCH  17  32
ATOM     32  O   UNL     1       9.190  -2.803  22.124  0.00  0.00    -0.501 OA
ATOM     33  H   UNL     1      10.021  -3.155  22.490  0.00  0.00    +0.292 HD
ENDBRANCH  17  32
TORSDOF 6
ENDMDL
MODEL 2
REMARK VINA RESULT:      -7.9      2.853      7.392
REMARK  Name = 
REMARK  6 active torsions:
REMARK  status: ('A' for Active; 'I' for Inactive)
REMARK    1  A    between atoms: C_3  and  O_28
REMARK    2  A    between atoms: C_4  and  O_27
REMARK    3  A    between atoms: C_6  and  C_7
REMARK    4  A    between atoms: C_8  and  O_26
REMARK    5  A    between atoms: C_9  and  O_25
REMARK    6  A    between atoms: C_11  and  O_24
REMARK                            x       y       z     vdW  Elec       q    Type
REMARK                         _______ _______ _______ _____ _____    ______ ____
ROOT
ATOM      1  C   UNL     1       8.276  -0.791  24.816  0.00  0.00    +0.181 A 
ATOM      2  O   UNL     1       7.483  -1.486  23.885  0.00  0.00    -0.447 OA
ATOM      3  C   UNL     1       6.642  -2.459  24.391  0.00  0.00    +0.189 A 
ATOM      4  C   UNL     1       7.161  -3.276  25.522  0.00  0.00    +0.111 A 
ATOM      5  C   UNL     1       6.746  -4.706  25.556  0.00  0.00    +0.178 A 
ATOM      6  C   UNL     1       5.688  -5.039  24.785  0.00  0.00    +0.224 A 
ATOM      7  O   UNL     1       5.848  -5.875  23.649  0.00  0.00    -0.410 OA
ATOM      8  C   UNL     1       4.984  -5.460  22.674  0.00  0.00    +0.423 A 
ATOM      9  O   UNL     1       3.872  -5.930  22.494  0.00  0.00    -0.237 OA
ATOM     10  C   UNL     1       5.496  -4.247  21.813  0.00  0.00    +0.423 A 
ATOM     11  O   UNL     1       5.811  -4.434  20.645  0.00  0.00    -0.237 OA
ATOM     12  O   UNL     1       5.463  -2.989  22.362  0.00  0.00    -0.410 OA
ATOM     13  C   UNL     1       4.819  -3.856  24.606  0.00  0.00    +0.270 A 
ATOM     14  O   UNL     1       3.698  -3.714  25.046  0.00  0.00    -0.280 OA
ATOM     15  C   UNL     1       8.138  -2.730  26.265  0.00  0.00    +0.177 A 
ATOM     16  C   UNL     1       5.529  -2.884  23.763  0.00  0.00    +0.225 A 
ATOM     17  C   UNL     1       8.584  -1.373  26.001  0.00  0.00    +0.203 A 
ENDROOT
BRANCH   1  19
ATOM     18  C   UNL     1       8.304   1.689  25.135  0.00  0.00    +0.015 A 
ATOM     19  C   UNL     1       8.649   0.566  24.353  0.00  0.00    +0.025 A 
ATOM     20  C   UNL     1       9.303   0.791  23.134  0.00  0.00    +0.060 A 
ATOM     21  C   UNL     1       9.625   2.087  22.745  0.00  0.00    +0.159 A 
ATOM     22  C   UNL     1       9.266   3.184  23.522  0.00  0.00    +0.158 A 
ATOM     23  C   UNL     1       8.603   2.996  24.722  0.00  0.00    +0.050 A 
BRANCH  21  24
ATOM     24  O   UNL     1      10.295   2.274  21.570  0.00  0.00    -0.503 OA
ATOM     25  H   UNL     1       9.669   1.974  20.879  0.00  0.00    +0.292 HD
ENDBRANCH  21  24
BRANCH  22  26
ATOM     26  O   UNL     1       9.576   4.427  23.048  0.00  0.00    -0.503 OA
ATOM     27  H   UNL     1      10.319   4.776  23.572  0.00  0.00    +0.292 HD
ENDBRANCH  22  26
ENDBRANCH   1  19
BRANCH   5  28
ATOM     28  O   UNL     1       7.695  -5.618  25.959  0.00  0.00    -0.503 OA
ATOM     29  H   UNL     1       8.555  -5.294  25.610  0.00  0.00    +0.292 HD
ENDBRANCH   5  28
BRANCH  15  30
ATOM     30  O   UNL     1       8.786  -3.408  27.277  0.00  0.00    -0.503 OA
ATOM     31  H   UNL     1       8.444  -3.006  28.106  0.00  0.00    +0.292 HD
ENDBRANCH  15  30
BRANCH  17  32
ATOM     32  O   UNL     1       9.282  -0.820  27.047  0.00  0.00    -0.501 OA
ATOM     33  H   UNL     1       9.394  -1.504  27.732  0.00  0.00    +0.292 HD
ENDBRANCH  17  32
TORSDOF 6
ENDMDL
MODEL 3
REMARK VINA RESULT:      -7.9      2.386      7.448
REMARK  Name = 
REMARK  6 active torsions:
REMARK  status: ('A' for Active; 'I' for Inactive)
REMARK    1  A    between atoms: C_3  and  O_28
REMARK    2  A    between atoms: C_4  and  O_27
REMARK    3  A    between atoms: C_6  and  C_7
REMARK    4  A    between atoms: C_8  and  O_26
REMARK    5  A    between atoms: C_9  and  O_25
REMARK    6  A    between atoms: C_11  and  O_24
REMARK                            x       y       z     vdW  Elec       q    Type
REMARK                         _______ _______ _______ _____ _____    ______ ____
ROOT
ATOM      1  C   UNL     1       7.589   1.133  23.540  0.00  0.00    +0.181 A 
ATOM      2  O   UNL     1       6.937  -0.012  23.047  0.00  0.00    -0.447 OA
ATOM      3  C   UNL     1       7.170  -1.195  23.722  0.00  0.00    +0.189 A 
ATOM      4  C   UNL     1       8.549  -1.418  24.237  0.00  0.00    +0.111 A 
ATOM      5  C   UNL     1       9.051  -2.820  24.209  0.00  0.00    +0.178 A 
ATOM      6  C   UNL     1       8.119  -3.786  24.058  0.00  0.00    +0.224 A 
ATOM      7  O   UNL     1       8.059  -4.561  22.871  0.00  0.00    -0.410 OA
ATOM      8  C   UNL     1       6.750  -4.834  22.591  0.00  0.00    +0.423 A 
ATOM      9  O   UNL     1       6.171  -5.853  22.932  0.00  0.00    -0.237 OA
ATOM     10  C   UNL     1       5.983  -3.685  21.838  0.00  0.00    +0.423 A 
ATOM     11  O   UNL     1       5.666  -3.845  20.667  0.00  0.00    -0.237 OA
ATOM     12  O   UNL     1       5.589  -2.580  22.551  0.00  0.00    -0.410 OA
ATOM     13  C   UNL     1       6.825  -3.306  24.588  0.00  0.00    +0.270 A 
ATOM     14  O   UNL     1       6.247  -3.729  25.566  0.00  0.00    -0.280 OA
ATOM     15  C   UNL     1       9.300  -0.324  24.448  0.00  0.00    +0.177 A 
ATOM     16  C   UNL     1       6.326  -2.245  23.701  0.00  0.00    +0.225 A 
ATOM     17  C   UNL     1       8.733   0.999  24.254  0.00  0.00    +0.203 A 
ENDROOT
BRANCH   1  19
ATOM     18  C   UNL     1       5.509   2.522  23.576  0.00  0.00    +0.015 A 
ATOM     19  C   UNL     1       6.868   2.387  23.218  0.00  0.00    +0.025 A 
ATOM     20  C   UNL     1       7.473   3.446  22.526  0.00  0.00    +0.060 A 
ATOM     21  C   UNL     1       6.747   4.598  22.244  0.00  0.00    +0.159 A 
ATOM     22  C   UNL     1       5.405   4.710  22.593  0.00  0.00    +0.158 A 
ATOM     23  C   UNL     1       4.774   3.675  23.260  0.00  0.00    +0.050 A 
BRANCH  21  24
ATOM     24  O   UNL     1       7.371   5.629  21.602  0.00  0.00    -0.503 OA
ATOM     25  H   UNL     1       7.845   6.111  22.310  0.00  0.00    +0.292 HD
ENDBRANCH  21  24
BRANCH  22  26
ATOM     26  O   UNL     1       4.749   5.855  22.239  0.00  0.00    -0.503 OA
ATOM     27  H   UNL     1       3.866   5.838  22.648  0.00  0.00    +0.292 HD
ENDBRANCH  22  26
ENDBRANCH   1  19
BRANCH   5  28
ATOM     28  O   UNL     1      10.375  -2.997  23.875  0.00  0.00    -0.503 OA
ATOM     29  H   UNL     1      10.382  -3.479  23.019  0.00  0.00    +0.292 HD
ENDBRANCH   5  28
BRANCH  15  30
ATOM     30  O   UNL     1      10.627  -0.380  24.822  0.00  0.00    -0.503 OA
ATOM     31  H   UNL     1      10.615  -0.295  25.801  0.00  0.00    +0.292 HD
ENDBRANCH  15  30
BRANCH  17  32
ATOM     32  O   UNL     1       9.460   1.993  24.863  0.00  0.00    -0.501 OA
ATOM     33  H   UNL     1       9.572   1.754  25.802  0.00  0.00    +0.292 HD
ENDBRANCH  17  32
TORSDOF 6
ENDMDL
MODEL 4
REMARK VINA RESULT:      -7.6      2.860      3.574
REMARK  Name = 
REMARK  6 active torsions:
REMARK  status: ('A' for Active; 'I' for Inactive)
REMARK    1  A    between atoms: C_3  and  O_28
REMARK    2  A    between atoms: C_4  and  O_27
REMARK    3  A    between atoms: C_6  and  C_7
REMARK    4  A    between atoms: C_8  and  O_26
REMARK    5  A    between atoms: C_9  and  O_25
REMARK    6  A    between atoms: C_11  and  O_24
REMARK                            x       y       z     vdW  Elec       q    Type
REMARK                         _______ _______ _______ _____ _____    ______ ____
ROOT
ATOM      1  C   UNL     1       6.759  -4.015  24.630  0.00  0.00    +0.181 A 
ATOM      2  O   UNL     1       6.237  -2.758  24.983  0.00  0.00    -0.447 OA
ATOM      3  C   UNL     1       6.801  -1.657  24.365  0.00  0.00    +0.189 A 
ATOM      4  C   UNL     1       8.271  -1.695  24.130  0.00  0.00    +0.111 A 
ATOM      5  C   UNL     1       8.998  -0.401  24.252  0.00  0.00    +0.178 A 
ATOM      6  C   UNL     1       8.239   0.716  24.217  0.00  0.00    +0.224 A 
ATOM      7  O   UNL     1       8.090   1.533  25.367  0.00  0.00    -0.410 OA
ATOM      8  C   UNL     1       6.820   2.038  25.385  0.00  0.00    +0.423 A 
ATOM      9  O   UNL     1       6.507   3.128  24.935  0.00  0.00    -0.237 OA
ATOM     10  C   UNL     1       5.732   1.066  25.976  0.00  0.00    +0.423 A 
ATOM     11  O   UNL     1       5.229   1.322  27.061  0.00  0.00    -0.237 OA
ATOM     12  O   UNL     1       5.294   0.022  25.201  0.00  0.00    -0.410 OA
ATOM     13  C   UNL     1       7.007   0.448  23.445  0.00  0.00    +0.270 A 
ATOM     14  O   UNL     1       6.712   0.929  22.371  0.00  0.00    -0.280 OA
ATOM     15  C   UNL     1       8.843  -2.909  24.072  0.00  0.00    +0.177 A 
ATOM     16  C   UNL     1       6.168  -0.478  24.219  0.00  0.00    +0.225 A 
ATOM     17  C   UNL     1       8.025  -4.107  24.154  0.00  0.00    +0.203 A 
ENDROOT
BRANCH   1  19
ATOM     18  C   UNL     1       5.711  -5.794  26.042  0.00  0.00    +0.015 A 
ATOM     19  C   UNL     1       5.780  -5.113  24.807  0.00  0.00    +0.025 A 
ATOM     20  C   UNL     1       4.934  -5.540  23.774  0.00  0.00    +0.060 A 
ATOM     21  C   UNL     1       4.037  -6.580  23.993  0.00  0.00    +0.159 A 
ATOM     22  C   UNL     1       3.991  -7.249  25.212  0.00  0.00    +0.158 A 
ATOM     23  C   UNL     1       4.827  -6.864  26.246  0.00  0.00    +0.050 A 
BRANCH  21  24
ATOM     24  O   UNL     1       3.199  -6.952  22.981  0.00  0.00    -0.503 OA
ATOM     25  H   UNL     1       2.575  -7.582  23.396  0.00  0.00    +0.292 HD
ENDBRANCH  21  24
BRANCH  22  26
ATOM     26  O   UNL     1       3.116  -8.291  25.333  0.00  0.00    -0.503 OA
ATOM     27  H   UNL     1       3.306  -8.932  24.626  0.00  0.00    +0.292 HD
ENDBRANCH  22  26
ENDBRANCH   1  19
BRANCH   5  28
ATOM     28  O   UNL     1      10.242  -0.443  24.839  0.00  0.00    -0.503 OA
ATOM     29  H   UNL     1      10.142  -0.968  25.664  0.00  0.00    +0.292 HD
ENDBRANCH   5  28
BRANCH  15  30
ATOM     30  O   UNL     1      10.206  -3.097  23.965  0.00  0.00    -0.503 OA
ATOM     31  H   UNL     1      10.527  -3.132  24.893  0.00  0.00    +0.292 HD
ENDBRANCH  15  30
BRANCH  17  32
ATOM     32  O   UNL     1       8.668  -5.233  23.700  0.00  0.00    -0.501 OA
ATOM     33  H   UNL     1       9.096  -5.665  24.461  0.00  0.00    +0.292 HD
ENDBRANCH  17  32
TORSDOF 6
ENDMDL
MODEL 5
REMARK VINA RESULT:      -7.5      2.002      2.807
REMARK  Name = 
REMARK  6 active torsions:
REMARK  status: ('A' for Active; 'I' for Inactive)
REMARK    1  A    between atoms: C_3  and  O_28
REMARK    2  A    between atoms: C_4  and  O_27
REMARK    3  A    between atoms: C_6  and  C_7
REMARK    4  A    between atoms: C_8  and  O_26
REMARK    5  A    between atoms: C_9  and  O_25
REMARK    6  A    between atoms: C_11  and  O_24
REMARK                            x       y       z     vdW  Elec       q    Type
REMARK                         _______ _______ _______ _____ _____    ______ ____
ROOT
ATOM      1  C   UNL     1       8.196  -0.224  23.104  0.00  0.00    +0.181 A 
ATOM      2  O   UNL     1       7.732   0.544  24.188  0.00  0.00    -0.447 OA
ATOM      3  C   UNL     1       7.593   1.902  23.970  0.00  0.00    +0.189 A 
ATOM      4  C   UNL     1       8.624   2.557  23.119  0.00  0.00    +0.111 A 
ATOM      5  C   UNL     1       9.004   3.949  23.487  0.00  0.00    +0.178 A 
ATOM      6  C   UNL     1       8.156   4.601  24.312  0.00  0.00    +0.224 A 
ATOM      7  O   UNL     1       8.538   4.929  25.639  0.00  0.00    -0.410 OA
ATOM      8  C   UNL     1       7.443   4.821  26.450  0.00  0.00    +0.423 A 
ATOM      9  O   UNL     1       6.712   5.753  26.746  0.00  0.00    -0.237 OA
ATOM     10  C   UNL     1       7.126   3.360  26.938  0.00  0.00    +0.423 A 
ATOM     11  O   UNL     1       7.305   3.070  28.114  0.00  0.00    -0.237 OA
ATOM     12  O   UNL     1       6.545   2.483  26.056  0.00  0.00    -0.410 OA
ATOM     13  C   UNL     1       6.792   4.058  24.143  0.00  0.00    +0.270 A 
ATOM     14  O   UNL     1       5.839   4.641  23.671  0.00  0.00    -0.280 OA
ATOM     15  C   UNL     1       9.291   1.768  22.260  0.00  0.00    +0.177 A 
ATOM     16  C   UNL     1       6.767   2.691  24.683  0.00  0.00    +0.225 A 
ATOM     17  C   UNL     1       8.938   0.364  22.134  0.00  0.00    +0.203 A 
ENDROOT
BRANCH   1  19
ATOM     18  C   UNL     1       8.614  -2.615  23.707  0.00  0.00    +0.015 A 
ATOM     19  C   UNL     1       7.751  -1.636  23.169  0.00  0.00    +0.025 A 
ATOM     20  C   UNL     1       6.508  -2.056  22.673  0.00  0.00    +0.060 A 
ATOM     21  C   UNL     1       6.144  -3.395  22.754  0.00  0.00    +0.159 A 
ATOM     22  C   UNL     1       7.011  -4.350  23.276  0.00  0.00    +0.158 A 
ATOM     23  C   UNL     1       8.252  -3.970  23.756  0.00  0.00    +0.050 A 
BRANCH  21  24
ATOM     24  O   UNL     1       4.913  -3.771  22.298  0.00  0.00    -0.503 OA
ATOM     25  H   UNL     1       4.405  -3.986  23.107  0.00  0.00    +0.292 HD
ENDBRANCH  21  24
BRANCH  22  26
ATOM     26  O   UNL     1       6.597  -5.652  23.277  0.00  0.00    -0.503 OA
ATOM     27  H   UNL     1       5.717  -5.691  23.691  0.00  0.00    +0.292 HD
ENDBRANCH  22  26
ENDBRANCH   1  19
BRANCH   5  28
ATOM     28  O   UNL     1      10.334   4.281  23.365  0.00  0.00    -0.503 OA
ATOM     29  H   UNL     1      10.590   4.065  22.441  0.00  0.00    +0.292 HD
ENDBRANCH   5  28
BRANCH  15  30
ATOM     30  O   UNL     1      10.342   2.213  21.486  0.00  0.00    -0.503 OA
ATOM     31  H   UNL     1      10.777   2.907  22.029  0.00  0.00    +0.292 HD
ENDBRANCH  15  30
BRANCH  17  32
ATOM     32  O   UNL     1       9.413  -0.211  20.980  0.00  0.00    -0.501 OA
ATOM     33  H   UNL     1      10.218   0.268  20.712  0.00  0.00    +0.292 HD
ENDBRANCH  17  32
TORSDOF 6
ENDMDL
MODEL 6
REMARK VINA RESULT:      -7.5      2.778      7.712
REMARK  Name = 
REMARK  6 active torsions:
REMARK  status: ('A' for Active; 'I' for Inactive)
REMARK    1  A    between atoms: C_3  and  O_28
REMARK    2  A    between atoms: C_4  and  O_27
REMARK    3  A    between atoms: C_6  and  C_7
REMARK    4  A    between atoms: C_8  and  O_26
REMARK    5  A    between atoms: C_9  and  O_25
REMARK    6  A    between atoms: C_11  and  O_24
REMARK                            x       y       z     vdW  Elec       q    Type
REMARK                         _______ _______ _______ _____ _____    ______ ____
ROOT
ATOM      1  C   UNL     1       6.940  -3.206  23.420  0.00  0.00    +0.181 A 
ATOM      2  O   UNL     1       6.466  -3.041  24.734  0.00  0.00    -0.447 OA
ATOM      3  C   UNL     1       6.385  -4.182  25.511  0.00  0.00    +0.189 A 
ATOM      4  C   UNL     1       5.953  -5.433  24.828  0.00  0.00    +0.111 A 
ATOM      5  C   UNL     1       5.116  -6.371  25.627  0.00  0.00    +0.178 A 
ATOM      6  C   UNL     1       5.117  -6.183  26.964  0.00  0.00    +0.224 A 
ATOM      7  O   UNL     1       3.952  -5.732  27.638  0.00  0.00    -0.410 OA
ATOM      8  C   UNL     1       4.329  -4.910  28.663  0.00  0.00    +0.423 A 
ATOM      9  O   UNL     1       4.493  -5.279  29.816  0.00  0.00    -0.237 OA
ATOM     10  C   UNL     1       4.621  -3.422  28.243  0.00  0.00    +0.423 A 
ATOM     11  O   UNL     1       3.847  -2.541  28.590  0.00  0.00    -0.237 OA
ATOM     12  O   UNL     1       5.799  -3.140  27.599  0.00  0.00    -0.410 OA
ATOM     13  C   UNL     1       6.390  -5.549  27.369  0.00  0.00    +0.270 A 
ATOM     14  O   UNL     1       7.266  -6.056  28.037  0.00  0.00    -0.280 OA
ATOM     15  C   UNL     1       6.142  -5.494  23.500  0.00  0.00    +0.177 A 
ATOM     16  C   UNL     1       6.404  -4.171  26.857  0.00  0.00    +0.225 A 
ATOM     17  C   UNL     1       6.817  -4.410  22.808  0.00  0.00    +0.203 A 
ENDROOT
BRANCH   1  19
ATOM     18  C   UNL     1       8.862  -2.053  22.310  0.00  0.00    +0.015 A 
ATOM     19  C   UNL     1       7.572  -1.980  22.880  0.00  0.00    +0.025 A 
ATOM     20  C   UNL     1       6.955  -0.723  22.948  0.00  0.00    +0.060 A 
ATOM     21  C   UNL     1       7.597   0.397  22.430  0.00  0.00    +0.159 A 
ATOM     22  C   UNL     1       8.873   0.309  21.884  0.00  0.00    +0.158 A 
ATOM     23  C   UNL     1       9.517  -0.914  21.819  0.00  0.00    +0.050 A 
BRANCH  21  24
ATOM     24  O   UNL     1       6.957   1.602  22.477  0.00  0.00    -0.503 OA
ATOM     25  H   UNL     1       6.375   1.542  23.262  0.00  0.00    +0.292 HD
ENDBRANCH  21  24
BRANCH  22  26
ATOM     26  O   UNL     1       9.455   1.463  21.439  0.00  0.00    -0.503 OA
ATOM     27  H   UNL     1       9.258   1.557  20.491  0.00  0.00    +0.292 HD
ENDBRANCH  22  26
ENDBRANCH   1  19
BRANCH   5  28
ATOM     28  O   UNL     1       4.093  -7.009  24.961  0.00  0.00    -0.503 OA
ATOM     29  H   UNL     1       3.518  -6.301  24.595  0.00  0.00    +0.292 HD
ENDBRANCH   5  28
BRANCH  15  30
ATOM     30  O   UNL     1       5.698  -6.543  22.721  0.00  0.00    -0.503 OA
ATOM     31  H   UNL     1       6.495  -7.097  22.568  0.00  0.00    +0.292 HD
ENDBRANCH  15  30
BRANCH  17  32
ATOM     32  O   UNL     1       7.280  -4.766  21.564  0.00  0.00    -0.501 OA
ATOM     33  H   UNL     1       7.502  -5.715  21.585  0.00  0.00    +0.292 HD
ENDBRANCH  17  32
TORSDOF 6
ENDMDL
MODEL 7
REMARK VINA RESULT:      -7.5      3.564      7.890
REMARK  Name = 
REMARK  6 active torsions:
REMARK  status: ('A' for Active; 'I' for Inactive)
REMARK    1  A    between atoms: C_3  and  O_28
REMARK    2  A    between atoms: C_4  and  O_27
REMARK    3  A    between atoms: C_6  and  C_7
REMARK    4  A    between atoms: C_8  and  O_26
REMARK    5  A    between atoms: C_9  and  O_25
REMARK    6  A    between atoms: C_11  and  O_24
REMARK                            x       y       z     vdW  Elec       q    Type
REMARK                         _______ _______ _______ _____ _____    ______ ____
ROOT
ATOM      1  C   UNL     1       7.580  -3.416  25.442  0.00  0.00    +0.181 A 
ATOM      2  O   UNL     1       6.264  -3.560  24.967  0.00  0.00    -0.447 OA
ATOM      3  C   UNL     1       5.330  -4.039  25.866  0.00  0.00    +0.189 A 
ATOM      4  C   UNL     1       5.786  -5.093  26.814  0.00  0.00    +0.111 A 
ATOM      5  C   UNL     1       4.789  -6.139  27.176  0.00  0.00    +0.178 A 
ATOM      6  C   UNL     1       3.497  -5.852  26.904  0.00  0.00    +0.224 A 
ATOM      7  O   UNL     1       2.788  -6.566  25.902  0.00  0.00    -0.410 OA
ATOM      8  C   UNL     1       1.929  -5.707  25.277  0.00  0.00    +0.423 A 
ATOM      9  O   UNL     1       0.756  -5.562  25.585  0.00  0.00    -0.237 OA
ATOM     10  C   UNL     1       2.580  -4.831  24.144  0.00  0.00    +0.423 A 
ATOM     11  O   UNL     1       2.291  -5.053  22.976  0.00  0.00    -0.237 OA
ATOM     12  O   UNL     1       3.364  -3.765  24.506  0.00  0.00    -0.410 OA
ATOM     13  C   UNL     1       3.306  -4.386  26.917  0.00  0.00    +0.270 A 
ATOM     14  O   UNL     1       2.657  -3.753  27.722  0.00  0.00    -0.280 OA
ATOM     15  C   UNL     1       7.104  -5.152  27.065  0.00  0.00    +0.177 A 
ATOM     16  C   UNL     1       4.006  -3.818  25.756  0.00  0.00    +0.225 A 
ATOM     17  C   UNL     1       8.002  -4.166  26.489  0.00  0.00    +0.203 A 
ENDROOT
BRANCH   1  19
ATOM     18  C   UNL     1       8.592  -1.131  25.322  0.00  0.00    +0.015 A 
ATOM     19  C   UNL     1       8.344  -2.379  24.709  0.00  0.00    +0.025 A 
ATOM     20  C   UNL     1       8.803  -2.569  23.398  0.00  0.00    +0.060 A 
ATOM     21  C   UNL     1       9.510  -1.559  22.755  0.00  0.00    +0.159 A 
ATOM     22  C   UNL     1       9.735  -0.331  23.368  0.00  0.00    +0.158 A 
ATOM     23  C   UNL     1       9.278  -0.106  24.655  0.00  0.00    +0.050 A 
BRANCH  21  24
ATOM     24  O   UNL     1       9.978  -1.785  21.492  0.00  0.00    -0.503 OA
ATOM     25  H   UNL     1       9.975  -2.759  21.398  0.00  0.00    +0.292 HD
ENDBRANCH  21  24
BRANCH  22  26
ATOM     26  O   UNL     1      10.397   0.626  22.653  0.00  0.00    -0.503 OA
ATOM     27  H   UNL     1      10.843   0.192  21.904  0.00  0.00    +0.292 HD
ENDBRANCH  22  26
ENDBRANCH   1  19
BRANCH   5  28
ATOM     28  O   UNL     1       5.260  -7.425  27.306  0.00  0.00    -0.503 OA
ATOM     29  H   UNL     1       4.508  -7.964  27.639  0.00  0.00    +0.292 HD
ENDBRANCH   5  28
BRANCH  15  30
ATOM     30  O   UNL     1       7.683  -6.138  27.838  0.00  0.00    -0.503 OA
ATOM     31  H   UNL     1       7.048  -6.887  27.804  0.00  0.00    +0.292 HD
ENDBRANCH  15  30
BRANCH  17  32
ATOM     32  O   UNL     1       9.220  -4.109  27.121  0.00  0.00    -0.501 OA
ATOM     33  H   UNL     1       9.062  -3.937  28.068  0.00  0.00    +0.292 HD
ENDBRANCH  17  32
TORSDOF 6
ENDMDL
MODEL 8
REMARK VINA RESULT:      -7.4      2.327      7.010
REMARK  Name = 
REMARK  6 active torsions:
REMARK  status: ('A' for Active; 'I' for Inactive)
REMARK    1  A    between atoms: C_3  and  O_28
REMARK    2  A    between atoms: C_4  and  O_27
REMARK    3  A    between atoms: C_6  and  C_7
REMARK    4  A    between atoms: C_8  and  O_26
REMARK    5  A    between atoms: C_9  and  O_25
REMARK    6  A    between atoms: C_11  and  O_24
REMARK                            x       y       z     vdW  Elec       q    Type
REMARK                         _______ _______ _______ _____ _____    ______ ____
ROOT
ATOM      1  C   UNL     1       8.308  -1.154  23.550  0.00  0.00    +0.181 A 
ATOM      2  O   UNL     1       7.524  -1.314  24.707  0.00  0.00    -0.447 OA
ATOM      3  C   UNL     1       7.380  -2.604  25.183  0.00  0.00    +0.189 A 
ATOM      4  C   UNL     1       7.248  -3.686  24.167  0.00  0.00    +0.111 A 
ATOM      5  C   UNL     1       6.346  -4.819  24.515  0.00  0.00    +0.178 A 
ATOM      6  C   UNL     1       6.015  -4.940  25.819  0.00  0.00    +0.224 A 
ATOM      7  O   UNL     1       4.685  -4.709  26.258  0.00  0.00    -0.410 OA
ATOM      8  C   UNL     1       4.726  -4.126  27.493  0.00  0.00    +0.423 A 
ATOM      9  O   UNL     1       4.652  -4.739  28.546  0.00  0.00    -0.237 OA
ATOM     10  C   UNL     1       4.956  -2.570  27.481  0.00  0.00    +0.423 A 
ATOM     11  O   UNL     1       4.037  -1.827  27.798  0.00  0.00    -0.237 OA
ATOM     12  O   UNL     1       6.218  -2.094  27.227  0.00  0.00    -0.410 OA
ATOM     13  C   UNL     1       7.087  -4.356  26.654  0.00  0.00    +0.270 A 
ATOM     14  O   UNL     1       7.828  -4.961  27.400  0.00  0.00    -0.280 OA
ATOM     15  C   UNL     1       7.749  -3.434  22.947  0.00  0.00    +0.177 A 
ATOM     16  C   UNL     1       7.081  -2.899  26.462  0.00  0.00    +0.225 A 
ATOM     17  C   UNL     1       8.454  -2.190  22.689  0.00  0.00    +0.203 A 
ENDROOT
BRANCH   1  19
ATOM     18  C   UNL     1      10.166   0.436  24.075  0.00  0.00    +0.015 A 
ATOM     19  C   UNL     1       8.921   0.192  23.455  0.00  0.00    +0.025 A 
ATOM     20  C   UNL     1       8.292   1.261  22.803  0.00  0.00    +0.060 A 
ATOM     21  C   UNL     1       8.912   2.505  22.749  0.00  0.00    +0.159 A 
ATOM     22  C   UNL     1      10.133   2.732  23.376  0.00  0.00    +0.158 A 
ATOM     23  C   UNL     1      10.770   1.701  24.044  0.00  0.00    +0.050 A 
BRANCH  21  24
ATOM     24  O   UNL     1       8.294   3.520  22.075  0.00  0.00    -0.503 OA
ATOM     25  H   UNL     1       8.505   4.324  22.593  0.00  0.00    +0.292 HD
ENDBRANCH  21  24
BRANCH  22  26
ATOM     26  O   UNL     1      10.653   3.994  23.318  0.00  0.00    -0.503 OA
ATOM     27  H   UNL     1      11.317   4.081  24.024  0.00  0.00    +0.292 HD
ENDBRANCH  22  26
ENDBRANCH   1  19
BRANCH   5  28
ATOM     28  O   UNL     1       5.579  -5.335  23.496  0.00  0.00    -0.503 OA
ATOM     29  H   UNL     1       5.940  -4.962  22.662  0.00  0.00    +0.292 HD
ENDBRANCH   5  28
BRANCH  15  30
ATOM     30  O   UNL     1       7.608  -4.298  21.880  0.00  0.00    -0.503 OA
ATOM     31  H   UNL     1       7.570  -3.714  21.090  0.00  0.00    +0.292 HD
ENDBRANCH  15  30
BRANCH  17  32
ATOM     32  O   UNL     1       9.229  -2.233  21.555  0.00  0.00    -0.501 OA
ATOM     33  H   UNL     1       9.253  -3.154  21.239  0.00  0.00    +0.292 HD
ENDBRANCH  17  32
TORSDOF 6
ENDMDL
MODEL 9
REMARK VINA RESULT:      -7.3      1.837      2.470
REMARK  Name = 
REMARK  6 active torsions:
REMARK  status: ('A' for Active; 'I' for Inactive)
REMARK    1  A    between atoms: C_3  and  O_28
REMARK    2  A    between atoms: C_4  and  O_27
REMARK    3  A    between atoms: C_6  and  C_7
REMARK    4  A    between atoms: C_8  and  O_26
REMARK    5  A    between atoms: C_9  and  O_25
REMARK    6  A    between atoms: C_11  and  O_24
REMARK                            x       y       z     vdW  Elec       q    Type
REMARK                         _______ _______ _______ _____ _____    ______ ____
ROOT
ATOM      1  C   UNL     1       7.651  -3.323  25.232  0.00  0.00    +0.181 A 
ATOM      2  O   UNL     1       7.281  -2.019  25.609  0.00  0.00    -0.447 OA
ATOM      3  C   UNL     1       7.534  -1.014  24.694  0.00  0.00    +0.189 A 
ATOM      4  C   UNL     1       8.796  -1.118  23.911  0.00  0.00    +0.111 A 
ATOM      5  C   UNL     1       9.485   0.162  23.586  0.00  0.00    +0.178 A 
ATOM      6  C   UNL     1       8.749   1.286  23.717  0.00  0.00    +0.224 A 
ATOM      7  O   UNL     1       9.043   2.236  24.729  0.00  0.00    -0.410 OA
ATOM      8  C   UNL     1       7.871   2.773  25.182  0.00  0.00    +0.423 A 
ATOM      9  O   UNL     1       7.383   3.811  24.764  0.00  0.00    -0.237 OA
ATOM     10  C   UNL     1       7.121   1.907  26.260  0.00  0.00    +0.423 A 
ATOM     11  O   UNL     1       7.076   2.301  27.418  0.00  0.00    -0.237 OA
ATOM     12  O   UNL     1       6.438   0.790  25.848  0.00  0.00    -0.410 OA
ATOM     13  C   UNL     1       7.319   0.962  23.525  0.00  0.00    +0.270 A 
ATOM     14  O   UNL     1       6.618   1.322  22.603  0.00  0.00    -0.280 OA
ATOM     15  C   UNL     1       9.327  -2.345  23.778  0.00  0.00    +0.177 A 
ATOM     16  C   UNL     1       6.869   0.156  24.669  0.00  0.00    +0.225 A 
ATOM     17  C   UNL     1       8.632  -3.503  24.314  0.00  0.00    +0.203 A 
ENDROOT
BRANCH   1  19
ATOM     18  C   UNL     1       5.620  -4.779  25.333  0.00  0.00    +0.015 A 
ATOM     19  C   UNL     1       6.843  -4.366  25.905  0.00  0.00    +0.025 A 
ATOM     20  C   UNL     1       7.223  -4.941  27.126  0.00  0.00    +0.060 A 
ATOM     21  C   UNL     1       6.423  -5.913  27.717  0.00  0.00    +0.159 A 
ATOM     22  C   UNL     1       5.215  -6.299  27.146  0.00  0.00    +0.158 A 
ATOM     23  C   UNL     1       4.802  -5.737  25.951  0.00  0.00    +0.050 A 
BRANCH  21  24
ATOM     24  O   UNL     1       6.836  -6.482  28.888  0.00  0.00    -0.503 OA
ATOM     25  H   UNL     1       7.727  -6.108  29.043  0.00  0.00    +0.292 HD
ENDBRANCH  21  24
BRANCH  22  26
ATOM     26  O   UNL     1       4.463  -7.225  27.813  0.00  0.00    -0.503 OA
ATOM     27  H   UNL     1       5.059  -7.755  28.371  0.00  0.00    +0.292 HD
ENDBRANCH  22  26
ENDBRANCH   1  19
BRANCH   5  28
ATOM     28  O   UNL     1      10.860   0.156  23.640  0.00  0.00    -0.503 OA
ATOM     29  H   UNL     1      11.157   1.003  23.240  0.00  0.00    +0.292 HD
ENDBRANCH   5  28
BRANCH  15  30
ATOM     30  O   UNL     1      10.543  -2.581  23.171  0.00  0.00    -0.503 OA
ATOM     31  H   UNL     1      10.475  -3.497  22.821  0.00  0.00    +0.292 HD
ENDBRANCH  15  30
BRANCH  17  32
ATOM     32  O   UNL     1       9.071  -4.692  23.782  0.00  0.00    -0.501 OA
ATOM     33  H   UNL     1       9.531  -4.497  22.945  0.00  0.00    +0.292 HD
ENDBRANCH  17  32
TORSDOF 6
ENDMDL
