MODEL 1
REMARK VINA RESULT:      -7.7      0.000      0.000
REMARK  Name = 
REMARK  16 active torsions:
REMARK  status: ('A' for Active; 'I' for Inactive)
REMARK    1  A    between atoms: C_2  and  O_51
REMARK    2  A    between atoms: C_4  and  O_50
REMARK    3  A    between atoms: C_6  and  O_49
REMARK    4  A    between atoms: C_8  and  O_11
REMARK    5  A    between atoms: O_11  and  C_12
REMARK    6  A    between atoms: C_14  and  O_48
REMARK    7  A    between atoms: C_16  and  O_47
REMARK    8  A    between atoms: C_18  and  C_45
REMARK    9  A    between atoms: C_21  and  O_23
REMARK   10  A    between atoms: O_23  and  C_24
REMARK   11  A    between atoms: C_25  and  C_37
REMARK   12  A    between atoms: C_29  and  O_36
REMARK   13  A    between atoms: C_31  and  O_35
REMARK   14  A    between atoms: C_39  and  O_44
REMARK   15  A    between atoms: C_40  and  O_43
REMARK   16  A    between atoms: C_45  and  O_46
REMARK                            x       y       z     vdW  Elec       q    Type
REMARK                         _______ _______ _______ _____ _____    ______ ____
ROOT
ATOM      1  C   UNL     1       5.884  -5.617  25.026  0.00  0.00    +0.221 C 
ATOM      2  C   UNL     1       7.111  -4.809  24.490  0.00  0.00    +0.340 C 
ATOM      3  O   UNL     1       6.642  -4.122  23.306  0.00  0.00    -0.331 OA
ATOM      4  C   UNL     1       6.346  -5.042  22.225  0.00  0.00    +0.179 C 
ATOM      5  C   UNL     1       5.183  -5.978  22.593  0.00  0.00    +0.177 C 
ATOM      6  C   UNL     1       5.500  -6.646  23.929  0.00  0.00    +0.180 C 
ENDROOT
BRANCH   6   7
ATOM      7  O   UNL     1       4.451  -7.507  24.371  0.00  0.00    -0.386 OA
ATOM      8  H   UNL     1       3.938  -7.716  23.567  0.00  0.00    +0.210 HD
ENDBRANCH   6   7
BRANCH   5   9
ATOM      9  O   UNL     1       3.933  -5.288  22.641  0.00  0.00    -0.386 OA
ATOM     10  H   UNL     1       3.385  -5.567  21.895  0.00  0.00    +0.210 HD
ENDBRANCH   5   9
BRANCH   4  11
ATOM     11  C   UNL     1       5.971  -4.271  20.950  0.00  0.00    +0.190 C 
BRANCH  11  12
ATOM     12  O   UNL     1       5.300  -3.043  21.223  0.00  0.00    -0.392 OA
ATOM     13  H   UNL     1       5.438  -2.439  20.468  0.00  0.00    +0.210 HD
ENDBRANCH  11  12
ENDBRANCH   4  11
BRANCH   2  14
ATOM     14  O   UNL     1       7.598  -3.900  25.502  0.00  0.00    -0.453 OA
BRANCH  14  15
ATOM     15  C   UNL     1       7.990  -2.603  25.152  0.00  0.00    +0.214 A 
ATOM     16  C   UNL     1       9.158  -2.339  24.226  0.00  0.00    +0.238 A 
ATOM     17  O   UNL     1      10.119  -3.106  24.152  0.00  0.00    -0.283 OA
ATOM     18  C   UNL     1       9.150  -1.058  23.490  0.00  0.00    +0.109 A 
ATOM     19  C   UNL     1       8.416  -0.028  24.059  0.00  0.00    +0.147 A 
ATOM     20  C   UNL     1       8.350   1.239  23.468  0.00  0.00    +0.092 A 
ATOM     21  C   UNL     1       9.027   1.458  22.274  0.00  0.00    +0.124 A 
ATOM     22  C   UNL     1       9.779   0.447  21.690  0.00  0.00    +0.091 A 
ATOM     23  O   UNL     1       7.751  -0.199  25.235  0.00  0.00    -0.451 OA
ATOM     24  C   UNL     1       9.837  -0.814  22.297  0.00  0.00    +0.135 A 
ATOM     25  C   UNL     1       7.377  -1.485  25.634  0.00  0.00    +0.181 A 
BRANCH  25  26
ATOM     26  C   UNL     1       6.301  -1.386  26.684  0.00  0.00    +0.025 A 
ATOM     27  C   UNL     1       6.139  -0.158  27.384  0.00  0.00    +0.015 A 
ATOM     28  C   UNL     1       5.207   0.005  28.414  0.00  0.00    +0.050 A 
ATOM     29  C   UNL     1       4.415  -1.067  28.762  0.00  0.00    +0.158 A 
ATOM     30  C   UNL     1       4.533  -2.276  28.091  0.00  0.00    +0.159 A 
ATOM     31  C   UNL     1       5.448  -2.438  27.049  0.00  0.00    +0.060 A 
BRANCH  29  32
ATOM     32  O   UNL     1       3.524  -0.935  29.787  0.00  0.00    -0.503 OA
ATOM     33  H   UNL     1       2.814  -0.363  29.428  0.00  0.00    +0.292 HD
ENDBRANCH  29  32
BRANCH  30  34
ATOM     34  O   UNL     1       3.731  -3.307  28.507  0.00  0.00    -0.503 OA
ATOM     35  H   UNL     1       2.802  -2.996  28.470  0.00  0.00    +0.292 HD
ENDBRANCH  30  34
ENDBRANCH  25  26
BRANCH  24  36
ATOM     36  O   UNL     1      10.549  -1.807  21.691  0.00  0.00    -0.506 OA
ATOM     37  H   UNL     1      11.078  -1.436  20.966  0.00  0.00    +0.292 HD
ENDBRANCH  24  36
BRANCH  21  38
ATOM     38  O   UNL     1       8.967   2.654  21.638  0.00  0.00    -0.507 OA
ATOM     39  H   UNL     1       8.561   3.325  22.216  0.00  0.00    +0.292 HD
ENDBRANCH  21  38
ENDBRANCH  14  15
ENDBRANCH   2  14
BRANCH   1  40
ATOM     40  O   UNL     1       5.988  -6.238  26.325  0.00  0.00    -0.337 OA
BRANCH  40  43
ATOM     41  C   UNL     1       2.475  -6.118  26.996  0.00  0.00    +0.197 C 
ATOM     42  O   UNL     1       3.766  -5.651  26.666  0.00  0.00    -0.346 OA
ATOM     43  C   UNL     1       4.765  -6.618  26.928  0.00  0.00    +0.282 C 
ATOM     44  C   UNL     1       4.904  -6.729  28.459  0.00  0.00    +0.201 C 
ATOM     45  C   UNL     1       3.543  -7.238  28.975  0.00  0.00    +0.178 C 
ATOM     46  C   UNL     1       2.371  -6.349  28.500  0.00  0.00    +0.171 C 
BRANCH  46  47
ATOM     47  O   UNL     1       1.126  -6.985  28.792  0.00  0.00    -0.387 OA
ATOM     48  H   UNL     1       0.674  -7.143  27.942  0.00  0.00    +0.210 HD
ENDBRANCH  46  47
BRANCH  45  49
ATOM     49  O   UNL     1       3.580  -7.343  30.400  0.00  0.00    -0.386 OA
ATOM     50  H   UNL     1       3.673  -8.296  30.597  0.00  0.00    +0.210 HD
ENDBRANCH  45  49
BRANCH  44  51
ATOM     51  O   UNL     1       5.964  -7.635  28.802  0.00  0.00    -0.384 OA
ATOM     52  H   UNL     1       5.788  -8.467  28.322  0.00  0.00    +0.210 HD
ENDBRANCH  44  51
ENDBRANCH  40  43
ENDBRANCH   1  40
TORSDOF 16
ENDMDL
MODEL 2
REMARK VINA RESULT:      -7.5      2.830      6.620
REMARK  Name = 
REMARK  16 active torsions:
REMARK  status: ('A' for Active; 'I' for Inactive)
REMARK    1  A    between atoms: C_2  and  O_51
REMARK    2  A    between atoms: C_4  and  O_50
REMARK    3  A    between atoms: C_6  and  O_49
REMARK    4  A    between atoms: C_8  and  O_11
REMARK    5  A    between atoms: O_11  and  C_12
REMARK    6  A    between atoms: C_14  and  O_48
REMARK    7  A    between atoms: C_16  and  O_47
REMARK    8  A    between atoms: C_18  and  C_45
REMARK    9  A    between atoms: C_21  and  O_23
REMARK   10  A    between atoms: O_23  and  C_24
REMARK   11  A    between atoms: C_25  and  C_37
REMARK   12  A    between atoms: C_29  and  O_36
REMARK   13  A    between atoms: C_31  and  O_35
REMARK   14  A    between atoms: C_39  and  O_44
REMARK   15  A    between atoms: C_40  and  O_43
REMARK   16  A    between atoms: C_45  and  O_46
REMARK                            x       y       z     vdW  Elec       q    Type
REMARK                         _______ _______ _______ _____ _____    ______ ____
ROOT
ATOM      1  C   UNL     1       5.560   0.106  25.685  0.00  0.00    +0.221 C 
ATOM      2  C   UNL     1       5.887   1.487  25.028  0.00  0.00    +0.340 C 
ATOM      3  O   UNL     1       6.708   2.194  25.986  0.00  0.00    -0.331 OA
ATOM      4  C   UNL     1       5.964   2.556  27.177  0.00  0.00    +0.179 C 
ATOM      5  C   UNL     1       5.496   1.308  27.943  0.00  0.00    +0.177 C 
ATOM      6  C   UNL     1       4.745   0.396  26.974  0.00  0.00    +0.180 C 
ENDROOT
BRANCH   6   7
ATOM      7  O   UNL     1       4.306  -0.813  27.592  0.00  0.00    -0.386 OA
ATOM      8  H   UNL     1       4.775  -1.527  27.118  0.00  0.00    +0.210 HD
ENDBRANCH   6   7
BRANCH   5   9
ATOM      9  O   UNL     1       6.583   0.621  28.565  0.00  0.00    -0.386 OA
ATOM     10  H   UNL     1       6.919  -0.057  27.964  0.00  0.00    +0.210 HD
ENDBRANCH   5   9
BRANCH   4  11
ATOM     11  C   UNL     1       6.831   3.411  28.115  0.00  0.00    +0.190 C 
BRANCH  11  12
ATOM     12  O   UNL     1       7.576   4.409  27.422  0.00  0.00    -0.392 OA
ATOM     13  H   UNL     1       7.564   4.199  26.468  0.00  0.00    +0.210 HD
ENDBRANCH  11  12
ENDBRANCH   4  11
BRANCH   2  14
ATOM     14  O   UNL     1       6.554   1.297  23.760  0.00  0.00    -0.453 OA
BRANCH  14  15
ATOM     15  C   UNL     1       7.765   1.948  23.499  0.00  0.00    +0.214 A 
ATOM     16  C   UNL     1       7.818   3.381  23.016  0.00  0.00    +0.238 A 
ATOM     17  O   UNL     1       6.917   3.876  22.338  0.00  0.00    -0.283 OA
ATOM     18  C   UNL     1       9.056   4.136  23.299  0.00  0.00    +0.109 A 
ATOM     19  C   UNL     1      10.205   3.381  23.490  0.00  0.00    +0.147 A 
ATOM     20  C   UNL     1      11.444   3.982  23.743  0.00  0.00    +0.092 A 
ATOM     21  C   UNL     1      11.514   5.368  23.819  0.00  0.00    +0.124 A 
ATOM     22  C   UNL     1      10.381   6.146  23.620  0.00  0.00    +0.091 A 
ATOM     23  O   UNL     1      10.179   2.022  23.409  0.00  0.00    -0.451 OA
ATOM     24  C   UNL     1       9.151   5.529  23.364  0.00  0.00    +0.135 A 
ATOM     25  C   UNL     1       8.979   1.341  23.628  0.00  0.00    +0.181 A 
BRANCH  25  26
ATOM     26  C   UNL     1       9.275  -0.105  23.930  0.00  0.00    +0.025 A 
ATOM     27  C   UNL     1       9.908  -0.897  22.931  0.00  0.00    +0.015 A 
ATOM     28  C   UNL     1      10.167  -2.260  23.102  0.00  0.00    +0.050 A 
ATOM     29  C   UNL     1       9.795  -2.858  24.287  0.00  0.00    +0.158 A 
ATOM     30  C   UNL     1       9.190  -2.115  25.290  0.00  0.00    +0.159 A 
ATOM     31  C   UNL     1       8.948  -0.749  25.131  0.00  0.00    +0.060 A 
BRANCH  29  32
ATOM     32  O   UNL     1      10.011  -4.195  24.457  0.00  0.00    -0.503 OA
ATOM     33  H   UNL     1       9.880  -4.584  23.567  0.00  0.00    +0.292 HD
ENDBRANCH  29  32
BRANCH  30  34
ATOM     34  O   UNL     1       8.824  -2.780  26.431  0.00  0.00    -0.503 OA
ATOM     35  H   UNL     1       8.431  -2.124  27.045  0.00  0.00    +0.292 HD
ENDBRANCH  30  34
ENDBRANCH  25  26
BRANCH  24  36
ATOM     36  O   UNL     1       8.040   6.306  23.208  0.00  0.00    -0.506 OA
ATOM     37  H   UNL     1       8.304   7.229  23.062  0.00  0.00    +0.292 HD
ENDBRANCH  24  36
BRANCH  21  38
ATOM     38  O   UNL     1      12.679   6.001  24.100  0.00  0.00    -0.507 OA
ATOM     39  H   UNL     1      12.508   6.812  24.612  0.00  0.00    +0.292 HD
ENDBRANCH  21  38
ENDBRANCH  14  15
ENDBRANCH   2  14
BRANCH   1  40
ATOM     40  O   UNL     1       4.929  -0.906  24.873  0.00  0.00    -0.337 OA
BRANCH  40  43
ATOM     41  C   UNL     1       6.702  -3.048  22.620  0.00  0.00    +0.197 C 
ATOM     42  O   UNL     1       5.691  -2.178  23.084  0.00  0.00    -0.346 OA
ATOM     43  C   UNL     1       5.752  -1.990  24.485  0.00  0.00    +0.282 C 
ATOM     44  C   UNL     1       5.296  -3.307  25.144  0.00  0.00    +0.201 C 
ATOM     45  C   UNL     1       6.325  -4.375  24.719  0.00  0.00    +0.178 C 
ATOM     46  C   UNL     1       6.487  -4.448  23.184  0.00  0.00    +0.171 C 
BRANCH  46  47
ATOM     47  O   UNL     1       7.609  -5.266  22.850  0.00  0.00    -0.387 OA
ATOM     48  H   UNL     1       8.406  -4.705  22.910  0.00  0.00    +0.210 HD
ENDBRANCH  46  47
BRANCH  45  49
ATOM     49  O   UNL     1       5.955  -5.641  25.271  0.00  0.00    -0.386 OA
ATOM     50  H   UNL     1       6.177  -6.306  24.590  0.00  0.00    +0.210 HD
ENDBRANCH  45  49
BRANCH  44  51
ATOM     51  O   UNL     1       5.251  -3.164  26.572  0.00  0.00    -0.384 OA
ATOM     52  H   UNL     1       4.334  -2.917  26.801  0.00  0.00    +0.210 HD
ENDBRANCH  44  51
ENDBRANCH  40  43
ENDBRANCH   1  40
TORSDOF 16
ENDMDL
MODEL 3
REMARK VINA RESULT:      -7.5      2.227      4.789
REMARK  Name = 
REMARK  16 active torsions:
REMARK  status: ('A' for Active; 'I' for Inactive)
REMARK    1  A    between atoms: C_2  and  O_51
REMARK    2  A    between atoms: C_4  and  O_50
REMARK    3  A    between atoms: C_6  and  O_49
REMARK    4  A    between atoms: C_8  and  O_11
REMARK    5  A    between atoms: O_11  and  C_12
REMARK    6  A    between atoms: C_14  and  O_48
REMARK    7  A    between atoms: C_16  and  O_47
REMARK    8  A    between atoms: C_18  and  C_45
REMARK    9  A    between atoms: C_21  and  O_23
REMARK   10  A    between atoms: O_23  and  C_24
REMARK   11  A    between atoms: C_25  and  C_37
REMARK   12  A    between atoms: C_29  and  O_36
REMARK   13  A    between atoms: C_31  and  O_35
REMARK   14  A    between atoms: C_39  and  O_44
REMARK   15  A    between atoms: C_40  and  O_43
REMARK   16  A    between atoms: C_45  and  O_46
REMARK                            x       y       z     vdW  Elec       q    Type
REMARK                         _______ _______ _______ _____ _____    ______ ____
ROOT
ATOM      1  C   UNL     1       5.756  -3.840  27.047  0.00  0.00    +0.221 C 
ATOM      2  C   UNL     1       6.639  -2.639  26.573  0.00  0.00    +0.340 C 
ATOM      3  O   UNL     1       7.636  -3.207  25.694  0.00  0.00    -0.331 OA
ATOM      4  C   UNL     1       8.573  -4.052  26.408  0.00  0.00    +0.179 C 
ATOM      5  C   UNL     1       7.870  -5.280  27.010  0.00  0.00    +0.177 C 
ATOM      6  C   UNL     1       6.681  -4.801  27.841  0.00  0.00    +0.180 C 
ENDROOT
BRANCH   6   7
ATOM      7  O   UNL     1       5.942  -5.881  28.408  0.00  0.00    -0.386 OA
ATOM      8  H   UNL     1       5.005  -5.616  28.334  0.00  0.00    +0.210 HD
ENDBRANCH   6   7
BRANCH   5   9
ATOM      9  O   UNL     1       7.460  -6.210  26.006  0.00  0.00    -0.386 OA
ATOM     10  H   UNL     1       7.438  -7.099  26.384  0.00  0.00    +0.210 HD
ENDBRANCH   5   9
BRANCH   4  11
ATOM     11  C   UNL     1       9.687  -4.537  25.467  0.00  0.00    +0.190 C 
BRANCH  11  12
ATOM     12  O   UNL     1      10.301  -5.744  25.913  0.00  0.00    -0.392 OA
ATOM     13  H   UNL     1      11.241  -5.730  25.648  0.00  0.00    +0.210 HD
ENDBRANCH  11  12
ENDBRANCH   4  11
BRANCH   2  14
ATOM     14  O   UNL     1       5.824  -1.643  25.917  0.00  0.00    -0.453 OA
BRANCH  14  15
ATOM     15  C   UNL     1       6.358  -0.870  24.880  0.00  0.00    +0.214 A 
ATOM     16  C   UNL     1       6.661   0.603  25.050  0.00  0.00    +0.238 A 
ATOM     17  O   UNL     1       6.021   1.317  25.823  0.00  0.00    -0.283 OA
ATOM     18  C   UNL     1       7.693   1.180  24.163  0.00  0.00    +0.109 A 
ATOM     19  C   UNL     1       7.909   0.519  22.963  0.00  0.00    +0.147 A 
ATOM     20  C   UNL     1       8.844   0.980  22.029  0.00  0.00    +0.092 A 
ATOM     21  C   UNL     1       9.582   2.121  22.326  0.00  0.00    +0.124 A 
ATOM     22  C   UNL     1       9.376   2.808  23.516  0.00  0.00    +0.091 A 
ATOM     23  O   UNL     1       7.197  -0.593  22.630  0.00  0.00    -0.451 OA
ATOM     24  C   UNL     1       8.433   2.334  24.437  0.00  0.00    +0.135 A 
ATOM     25  C   UNL     1       6.618  -1.369  23.638  0.00  0.00    +0.181 A 
BRANCH  25  26
ATOM     26  C   UNL     1       6.290  -2.733  23.090  0.00  0.00    +0.025 A 
ATOM     27  C   UNL     1       7.293  -3.441  22.371  0.00  0.00    +0.015 A 
ATOM     28  C   UNL     1       7.059  -4.685  21.777  0.00  0.00    +0.050 A 
ATOM     29  C   UNL     1       5.806  -5.246  21.895  0.00  0.00    +0.158 A 
ATOM     30  C   UNL     1       4.806  -4.592  22.602  0.00  0.00    +0.159 A 
ATOM     31  C   UNL     1       5.042  -3.360  23.214  0.00  0.00    +0.060 A 
BRANCH  29  32
ATOM     32  O   UNL     1       5.550  -6.444  21.293  0.00  0.00    -0.503 OA
ATOM     33  H   UNL     1       4.902  -6.885  21.881  0.00  0.00    +0.292 HD
ENDBRANCH  29  32
BRANCH  30  34
ATOM     34  O   UNL     1       3.577  -5.197  22.657  0.00  0.00    -0.503 OA
ATOM     35  H   UNL     1       3.072  -4.918  21.865  0.00  0.00    +0.292 HD
ENDBRANCH  30  34
ENDBRANCH  25  26
BRANCH  24  36
ATOM     36  O   UNL     1       8.269   2.998  25.617  0.00  0.00    -0.506 OA
ATOM     37  H   UNL     1       8.496   3.935  25.500  0.00  0.00    +0.292 HD
ENDBRANCH  24  36
BRANCH  21  38
ATOM     38  O   UNL     1      10.528   2.590  21.477  0.00  0.00    -0.507 OA
ATOM     39  H   UNL     1      11.087   1.859  21.156  0.00  0.00    +0.292 HD
ENDBRANCH  21  38
ENDBRANCH  14  15
ENDBRANCH   2  14
BRANCH   1  40
ATOM     40  O   UNL     1       4.541  -3.553  27.772  0.00  0.00    -0.337 OA
BRANCH  40  43
ATOM     41  C   UNL     1       2.336  -6.267  27.008  0.00  0.00    +0.197 C 
ATOM     42  O   UNL     1       3.554  -5.580  27.211  0.00  0.00    -0.346 OA
ATOM     43  C   UNL     1       3.369  -4.179  27.285  0.00  0.00    +0.282 C 
ATOM     44  C   UNL     1       3.018  -3.689  25.866  0.00  0.00    +0.201 C 
ATOM     45  C   UNL     1       1.683  -4.369  25.498  0.00  0.00    +0.178 C 
ATOM     46  C   UNL     1       1.752  -5.906  25.647  0.00  0.00    +0.171 C 
BRANCH  46  47
ATOM     47  O   UNL     1       0.444  -6.467  25.534  0.00  0.00    -0.387 OA
ATOM     48  H   UNL     1      -0.168  -5.738  25.323  0.00  0.00    +0.210 HD
ENDBRANCH  46  47
BRANCH  45  49
ATOM     49  O   UNL     1       1.298  -3.985  24.176  0.00  0.00    -0.386 OA
ATOM     50  H   UNL     1       1.698  -4.645  23.577  0.00  0.00    +0.210 HD
ENDBRANCH  45  49
BRANCH  44  51
ATOM     51  O   UNL     1       2.897  -2.258  25.845  0.00  0.00    -0.384 OA
ATOM     52  H   UNL     1       1.945  -2.056  25.919  0.00  0.00    +0.210 HD
ENDBRANCH  44  51
ENDBRANCH  40  43
ENDBRANCH   1  40
TORSDOF 16
ENDMDL
MODEL 4
REMARK VINA RESULT:      -7.4      3.139      9.171
REMARK  Name = 
REMARK  16 active torsions:
REMARK  status: ('A' for Active; 'I' for Inactive)
REMARK    1  A    between atoms: C_2  and  O_51
REMARK    2  A    between atoms: C_4  and  O_50
REMARK    3  A    between atoms: C_6  and  O_49
REMARK    4  A    between atoms: C_8  and  O_11
REMARK    5  A    between atoms: O_11  and  C_12
REMARK    6  A    between atoms: C_14  and  O_48
REMARK    7  A    between atoms: C_16  and  O_47
REMARK    8  A    between atoms: C_18  and  C_45
REMARK    9  A    between atoms: C_21  and  O_23
REMARK   10  A    between atoms: O_23  and  C_24
REMARK   11  A    between atoms: C_25  and  C_37
REMARK   12  A    between atoms: C_29  and  O_36
REMARK   13  A    between atoms: C_31  and  O_35
REMARK   14  A    between atoms: C_39  and  O_44
REMARK   15  A    between atoms: C_40  and  O_43
REMARK   16  A    between atoms: C_45  and  O_46
REMARK                            x       y       z     vdW  Elec       q    Type
REMARK                         _______ _______ _______ _____ _____    ______ ____
ROOT
ATOM      1  C   UNL     1       6.378   2.155  26.360  0.00  0.00    +0.221 C 
ATOM      2  C   UNL     1       5.868   0.676  26.378  0.00  0.00    +0.340 C 
ATOM      3  O   UNL     1       4.679   0.680  27.202  0.00  0.00    -0.331 OA
ATOM      4  C   UNL     1       4.984   0.947  28.595  0.00  0.00    +0.179 C 
ATOM      5  C   UNL     1       5.564   2.360  28.777  0.00  0.00    +0.177 C 
ATOM      6  C   UNL     1       6.744   2.529  27.822  0.00  0.00    +0.180 C 
ENDROOT
BRANCH   6   7
ATOM      7  O   UNL     1       7.322   3.832  27.894  0.00  0.00    -0.386 OA
ATOM      8  H   UNL     1       7.757   3.966  27.030  0.00  0.00    +0.210 HD
ENDBRANCH   6   7
BRANCH   5   9
ATOM      9  O   UNL     1       4.580   3.374  28.570  0.00  0.00    -0.386 OA
ATOM     10  H   UNL     1       3.717   2.960  28.430  0.00  0.00    +0.210 HD
ENDBRANCH   5   9
BRANCH   4  11
ATOM     11  C   UNL     1       3.719   0.821  29.457  0.00  0.00    +0.190 C 
BRANCH  11  12
ATOM     12  O   UNL     1       2.544   1.261  28.781  0.00  0.00    -0.392 OA
ATOM     13  H   UNL     1       2.073   1.894  29.357  0.00  0.00    +0.210 HD
ENDBRANCH  11  12
ENDBRANCH   4  11
BRANCH   2  14
ATOM     14  O   UNL     1       5.608   0.217  25.033  0.00  0.00    -0.453 OA
BRANCH  14  15
ATOM     15  C   UNL     1       6.001  -1.068  24.641  0.00  0.00    +0.214 A 
ATOM     16  C   UNL     1       5.113  -2.277  24.847  0.00  0.00    +0.238 A 
ATOM     17  O   UNL     1       4.307  -2.345  25.777  0.00  0.00    -0.283 OA
ATOM     18  C   UNL     1       5.330  -3.427  23.946  0.00  0.00    +0.109 A 
ATOM     19  C   UNL     1       6.591  -3.530  23.376  0.00  0.00    +0.147 A 
ATOM     20  C   UNL     1       6.927  -4.588  22.523  0.00  0.00    +0.092 A 
ATOM     21  C   UNL     1       5.963  -5.546  22.233  0.00  0.00    +0.124 A 
ATOM     22  C   UNL     1       4.697  -5.472  22.799  0.00  0.00    +0.091 A 
ATOM     23  O   UNL     1       7.566  -2.619  23.648  0.00  0.00    -0.451 OA
ATOM     24  C   UNL     1       4.380  -4.409  23.653  0.00  0.00    +0.135 A 
ATOM     25  C   UNL     1       7.212  -1.337  24.077  0.00  0.00    +0.181 A 
BRANCH  25  26
ATOM     26  C   UNL     1       8.380  -0.406  23.880  0.00  0.00    +0.025 A 
ATOM     27  C   UNL     1       9.325  -0.260  24.934  0.00  0.00    +0.015 A 
ATOM     28  C   UNL     1      10.405   0.625  24.861  0.00  0.00    +0.050 A 
ATOM     29  C   UNL     1      10.560   1.383  23.721  0.00  0.00    +0.158 A 
ATOM     30  C   UNL     1       9.668   1.256  22.665  0.00  0.00    +0.159 A 
ATOM     31  C   UNL     1       8.599   0.360  22.726  0.00  0.00    +0.060 A 
BRANCH  29  32
ATOM     32  O   UNL     1      11.589   2.276  23.647  0.00  0.00    -0.503 OA
ATOM     33  H   UNL     1      12.364   1.793  24.005  0.00  0.00    +0.292 HD
ENDBRANCH  29  32
BRANCH  30  34
ATOM     34  O   UNL     1       9.868   2.060  21.573  0.00  0.00    -0.503 OA
ATOM     35  H   UNL     1      10.369   2.848  21.871  0.00  0.00    +0.292 HD
ENDBRANCH  30  34
ENDBRANCH  25  26
BRANCH  24  36
ATOM     36  O   UNL     1       3.120  -4.331  24.172  0.00  0.00    -0.506 OA
ATOM     37  H   UNL     1       3.127  -3.770  24.965  0.00  0.00    +0.292 HD
ENDBRANCH  24  36
BRANCH  21  38
ATOM     38  O   UNL     1       6.220  -6.570  21.382  0.00  0.00    -0.507 OA
ATOM     39  H   UNL     1       6.043  -7.424  21.818  0.00  0.00    +0.292 HD
ENDBRANCH  21  38
ENDBRANCH  14  15
ENDBRANCH   2  14
BRANCH   1  40
ATOM     40  O   UNL     1       7.435   2.504  25.442  0.00  0.00    -0.337 OA
BRANCH  40  43
ATOM     41  C   UNL     1       6.083   4.105  22.540  0.00  0.00    +0.197 C 
ATOM     42  O   UNL     1       6.638   3.079  23.336  0.00  0.00    -0.346 OA
ATOM     43  C   UNL     1       7.156   3.573  24.557  0.00  0.00    +0.282 C 
ATOM     44  C   UNL     1       8.430   4.373  24.222  0.00  0.00    +0.201 C 
ATOM     45  C   UNL     1       7.974   5.552  23.338  0.00  0.00    +0.178 C 
ATOM     46  C   UNL     1       7.173   5.078  22.105  0.00  0.00    +0.171 C 
BRANCH  46  47
ATOM     47  O   UNL     1       6.570   6.197  21.455  0.00  0.00    -0.387 OA
ATOM     48  H   UNL     1       6.793   6.138  20.507  0.00  0.00    +0.210 HD
ENDBRANCH  46  47
BRANCH  45  49
ATOM     49  O   UNL     1       9.110   6.334  22.960  0.00  0.00    -0.386 OA
ATOM     50  H   UNL     1       9.479   5.904  22.164  0.00  0.00    +0.210 HD
ENDBRANCH  45  49
BRANCH  44  51
ATOM     51  O   UNL     1       9.061   4.837  25.427  0.00  0.00    -0.384 OA
ATOM     52  H   UNL     1       8.393   4.771  26.136  0.00  0.00    +0.210 HD
ENDBRANCH  44  51
ENDBRANCH  40  43
ENDBRANCH   1  40
TORSDOF 16
ENDMDL
MODEL 5
REMARK VINA RESULT:      -7.3      2.277      7.997
REMARK  Name = 
REMARK  16 active torsions:
REMARK  status: ('A' for Active; 'I' for Inactive)
REMARK    1  A    between atoms: C_2  and  O_51
REMARK    2  A    between atoms: C_4  and  O_50
REMARK    3  A    between atoms: C_6  and  O_49
REMARK    4  A    between atoms: C_8  and  O_11
REMARK    5  A    between atoms: O_11  and  C_12
REMARK    6  A    between atoms: C_14  and  O_48
REMARK    7  A    between atoms: C_16  and  O_47
REMARK    8  A    between atoms: C_18  and  C_45
REMARK    9  A    between atoms: C_21  and  O_23
REMARK   10  A    between atoms: O_23  and  C_24
REMARK   11  A    between atoms: C_25  and  C_37
REMARK   12  A    between atoms: C_29  and  O_36
REMARK   13  A    between atoms: C_31  and  O_35
REMARK   14  A    between atoms: C_39  and  O_44
REMARK   15  A    between atoms: C_40  and  O_43
REMARK   16  A    between atoms: C_45  and  O_46
REMARK                            x       y       z     vdW  Elec       q    Type
REMARK                         _______ _______ _______ _____ _____    ______ ____
ROOT
ATOM      1  C   UNL     1       6.130   0.352  26.660  0.00  0.00    +0.221 C 
ATOM      2  C   UNL     1       6.795  -0.928  27.263  0.00  0.00    +0.340 C 
ATOM      3  O   UNL     1       5.808  -1.979  27.140  0.00  0.00    -0.331 OA
ATOM      4  C   UNL     1       4.665  -1.755  28.004  0.00  0.00    +0.179 C 
ATOM      5  C   UNL     1       3.902  -0.484  27.600  0.00  0.00    +0.177 C 
ATOM      6  C   UNL     1       4.891   0.679  27.536  0.00  0.00    +0.180 C 
ENDROOT
BRANCH   6   7
ATOM      7  O   UNL     1       4.273   1.899  27.127  0.00  0.00    -0.386 OA
ATOM      8  H   UNL     1       3.718   2.169  27.884  0.00  0.00    +0.210 HD
ENDBRANCH   6   7
BRANCH   5   9
ATOM      9  O   UNL     1       3.210  -0.644  26.360  0.00  0.00    -0.386 OA
ATOM     10  H   UNL     1       3.601  -1.379  25.869  0.00  0.00    +0.210 HD
ENDBRANCH   5   9
BRANCH   4  11
ATOM     11  C   UNL     1       3.700  -2.949  27.940  0.00  0.00    +0.190 C 
BRANCH  11  12
ATOM     12  O   UNL     1       3.868  -3.733  26.762  0.00  0.00    -0.392 OA
ATOM     13  H   UNL     1       2.999  -4.095  26.503  0.00  0.00    +0.210 HD
ENDBRANCH  11  12
ENDBRANCH   4  11
BRANCH   2  14
ATOM     14  O   UNL     1       8.022  -1.235  26.564  0.00  0.00    -0.453 OA
BRANCH  14  15
ATOM     15  C   UNL     1       8.029  -2.195  25.546  0.00  0.00    +0.214 A 
ATOM     16  C   UNL     1       7.581  -3.622  25.784  0.00  0.00    +0.238 A 
ATOM     17  O   UNL     1       7.696  -4.168  26.881  0.00  0.00    -0.283 OA
ATOM     18  C   UNL     1       7.097  -4.374  24.608  0.00  0.00    +0.109 A 
ATOM     19  C   UNL     1       7.559  -3.945  23.372  0.00  0.00    +0.147 A 
ATOM     20  C   UNL     1       7.190  -4.591  22.186  0.00  0.00    +0.092 A 
ATOM     21  C   UNL     1       6.327  -5.679  22.256  0.00  0.00    +0.124 A 
ATOM     22  C   UNL     1       5.860  -6.135  23.481  0.00  0.00    +0.091 A 
ATOM     23  O   UNL     1       8.417  -2.893  23.264  0.00  0.00    -0.451 OA
ATOM     24  C   UNL     1       6.242  -5.479  24.658  0.00  0.00    +0.135 A 
ATOM     25  C   UNL     1       8.463  -1.934  24.281  0.00  0.00    +0.181 A 
BRANCH  25  26
ATOM     26  C   UNL     1       9.115  -0.683  23.754  0.00  0.00    +0.025 A 
ATOM     27  C   UNL     1      10.186  -0.106  24.492  0.00  0.00    +0.015 A 
ATOM     28  C   UNL     1      10.810   1.086  24.110  0.00  0.00    +0.050 A 
ATOM     29  C   UNL     1      10.368   1.724  22.971  0.00  0.00    +0.158 A 
ATOM     30  C   UNL     1       9.337   1.183  22.216  0.00  0.00    +0.159 A 
ATOM     31  C   UNL     1       8.725  -0.016  22.583  0.00  0.00    +0.060 A 
BRANCH  29  32
ATOM     32  O   UNL     1      10.943   2.905  22.602  0.00  0.00    -0.503 OA
ATOM     33  H   UNL     1      10.591   3.563  23.237  0.00  0.00    +0.292 HD
ENDBRANCH  29  32
BRANCH  30  34
ATOM     34  O   UNL     1       8.932   1.885  21.110  0.00  0.00    -0.503 OA
ATOM     35  H   UNL     1       8.746   2.805  21.393  0.00  0.00    +0.292 HD
ENDBRANCH  30  34
ENDBRANCH  25  26
BRANCH  24  36
ATOM     36  O   UNL     1       5.745  -5.917  25.851  0.00  0.00    -0.506 OA
ATOM     37  H   UNL     1       4.829  -5.611  25.957  0.00  0.00    +0.292 HD
ENDBRANCH  24  36
BRANCH  21  38
ATOM     38  O   UNL     1       5.906  -6.318  21.136  0.00  0.00    -0.507 OA
ATOM     39  H   UNL     1       5.086  -6.812  21.318  0.00  0.00    +0.292 HD
ENDBRANCH  21  38
ENDBRANCH  14  15
ENDBRANCH   2  14
BRANCH   1  40
ATOM     40  O   UNL     1       6.954   1.518  26.449  0.00  0.00    -0.337 OA
BRANCH  40  43
ATOM     41  C   UNL     1       5.174   2.487  23.498  0.00  0.00    +0.197 C 
ATOM     42  O   UNL     1       5.820   1.637  24.425  0.00  0.00    -0.346 OA
ATOM     43  C   UNL     1       6.567   2.364  25.382  0.00  0.00    +0.282 C 
ATOM     44  C   UNL     1       7.793   2.950  24.656  0.00  0.00    +0.201 C 
ATOM     45  C   UNL     1       7.237   3.917  23.591  0.00  0.00    +0.178 C 
ATOM     46  C   UNL     1       6.209   3.232  22.662  0.00  0.00    +0.171 C 
BRANCH  46  47
ATOM     47  O   UNL     1       5.547   4.210  21.860  0.00  0.00    -0.387 OA
ATOM     48  H   UNL     1       5.077   4.813  22.466  0.00  0.00    +0.210 HD
ENDBRANCH  46  47
BRANCH  45  49
ATOM     49  O   UNL     1       8.318   4.487  22.850  0.00  0.00    -0.386 OA
ATOM     50  H   UNL     1       8.250   4.118  21.948  0.00  0.00    +0.210 HD
ENDBRANCH  45  49
BRANCH  44  51
ATOM     51  O   UNL     1       8.648   3.634  25.586  0.00  0.00    -0.384 OA
ATOM     52  H   UNL     1       9.408   3.043  25.754  0.00  0.00    +0.210 HD
ENDBRANCH  44  51
ENDBRANCH  40  43
ENDBRANCH   1  40
TORSDOF 16
ENDMDL
MODEL 6
REMARK VINA RESULT:      -7.2      4.608      8.548
REMARK  Name = 
REMARK  16 active torsions:
REMARK  status: ('A' for Active; 'I' for Inactive)
REMARK    1  A    between atoms: C_2  and  O_51
REMARK    2  A    between atoms: C_4  and  O_50
REMARK    3  A    between atoms: C_6  and  O_49
REMARK    4  A    between atoms: C_8  and  O_11
REMARK    5  A    between atoms: O_11  and  C_12
REMARK    6  A    between atoms: C_14  and  O_48
REMARK    7  A    between atoms: C_16  and  O_47
REMARK    8  A    between atoms: C_18  and  C_45
REMARK    9  A    between atoms: C_21  and  O_23
REMARK   10  A    between atoms: O_23  and  C_24
REMARK   11  A    between atoms: C_25  and  C_37
REMARK   12  A    between atoms: C_29  and  O_36
REMARK   13  A    between atoms: C_31  and  O_35
REMARK   14  A    between atoms: C_39  and  O_44
REMARK   15  A    between atoms: C_40  and  O_43
REMARK   16  A    between atoms: C_45  and  O_46
REMARK                            x       y       z     vdW  Elec       q    Type
REMARK                         _______ _______ _______ _____ _____    ______ ____
ROOT
ATOM      1  C   UNL     1       4.801   1.721  26.312  0.00  0.00    +0.221 C 
ATOM      2  C   UNL     1       6.262   2.216  26.050  0.00  0.00    +0.340 C 
ATOM      3  O   UNL     1       7.044   1.743  27.171  0.00  0.00    -0.331 OA
ATOM      4  C   UNL     1       6.680   2.409  28.407  0.00  0.00    +0.179 C 
ATOM      5  C   UNL     1       5.230   2.088  28.807  0.00  0.00    +0.177 C 
ATOM      6  C   UNL     1       4.318   2.398  27.622  0.00  0.00    +0.180 C 
ENDROOT
BRANCH   6   7
ATOM      7  O   UNL     1       2.951   2.091  27.891  0.00  0.00    -0.386 OA
ATOM      8  H   UNL     1       2.919   1.117  27.966  0.00  0.00    +0.210 HD
ENDBRANCH   6   7
BRANCH   5   9
ATOM      9  O   UNL     1       5.080   0.733  29.236  0.00  0.00    -0.386 OA
ATOM     10  H   UNL     1       4.667   0.719  30.110  0.00  0.00    +0.210 HD
ENDBRANCH   5   9
BRANCH   4  11
ATOM     11  C   UNL     1       7.612   1.974  29.548  0.00  0.00    +0.190 C 
BRANCH  11  12
ATOM     12  O   UNL     1       8.286   0.748  29.274  0.00  0.00    -0.392 OA
ATOM     13  H   UNL     1       8.984   0.919  28.614  0.00  0.00    +0.210 HD
ENDBRANCH  11  12
ENDBRANCH   4  11
BRANCH   2  14
ATOM     14  O   UNL     1       6.746   1.712  24.785  0.00  0.00    -0.453 OA
BRANCH  14  15
ATOM     15  C   UNL     1       7.916   2.233  24.222  0.00  0.00    +0.214 A 
ATOM     16  C   UNL     1       8.017   3.675  23.772  0.00  0.00    +0.238 A 
ATOM     17  O   UNL     1       7.037   4.304  23.370  0.00  0.00    -0.283 OA
ATOM     18  C   UNL     1       9.369   4.268  23.728  0.00  0.00    +0.109 A 
ATOM     19  C   UNL     1      10.425   3.378  23.589  0.00  0.00    +0.147 A 
ATOM     20  C   UNL     1      11.751   3.820  23.513  0.00  0.00    +0.092 A 
ATOM     21  C   UNL     1      12.010   5.184  23.596  0.00  0.00    +0.124 A 
ATOM     22  C   UNL     1      10.970   6.095  23.724  0.00  0.00    +0.091 A 
ATOM     23  O   UNL     1      10.211   2.037  23.490  0.00  0.00    -0.451 OA
ATOM     24  C   UNL     1       9.649   5.636  23.794  0.00  0.00    +0.135 A 
ATOM     25  C   UNL     1       9.036   1.487  24.009  0.00  0.00    +0.181 A 
BRANCH  25  26
ATOM     26  C   UNL     1       9.220   0.003  24.190  0.00  0.00    +0.025 A 
ATOM     27  C   UNL     1       9.848  -0.741  23.152  0.00  0.00    +0.015 A 
ATOM     28  C   UNL     1      10.007  -2.130  23.209  0.00  0.00    +0.050 A 
ATOM     29  C   UNL     1       9.538  -2.801  24.318  0.00  0.00    +0.158 A 
ATOM     30  C   UNL     1       8.935  -2.108  25.358  0.00  0.00    +0.159 A 
ATOM     31  C   UNL     1       8.792  -0.720  25.313  0.00  0.00    +0.060 A 
BRANCH  29  32
ATOM     32  O   UNL     1       9.655  -4.159  24.375  0.00  0.00    -0.503 OA
ATOM     33  H   UNL     1      10.470  -4.318  24.896  0.00  0.00    +0.292 HD
ENDBRANCH  29  32
BRANCH  30  34
ATOM     34  O   UNL     1       8.469  -2.843  26.417  0.00  0.00    -0.503 OA
ATOM     35  H   UNL     1       7.578  -2.504  26.645  0.00  0.00    +0.292 HD
ENDBRANCH  30  34
ENDBRANCH  25  26
BRANCH  24  36
ATOM     36  O   UNL     1       8.642   6.542  23.957  0.00  0.00    -0.506 OA
ATOM     37  H   UNL     1       8.914   7.403  23.600  0.00  0.00    +0.292 HD
ENDBRANCH  24  36
BRANCH  21  38
ATOM     38  O   UNL     1      13.277   5.664  23.567  0.00  0.00    -0.507 OA
ATOM     39  H   UNL     1      13.909   4.968  23.823  0.00  0.00    +0.292 HD
ENDBRANCH  21  38
ENDBRANCH  14  15
ENDBRANCH   2  14
BRANCH   1  40
ATOM     40  O   UNL     1       3.831   1.859  25.252  0.00  0.00    -0.337 OA
BRANCH  40  43
ATOM     41  C   UNL     1       2.317   5.092  24.996  0.00  0.00    +0.197 C 
ATOM     42  O   UNL     1       2.416   3.701  25.224  0.00  0.00    -0.346 OA
ATOM     43  C   UNL     1       3.641   3.171  24.756  0.00  0.00    +0.282 C 
ATOM     44  C   UNL     1       3.588   3.187  23.215  0.00  0.00    +0.201 C 
ATOM     45  C   UNL     1       3.476   4.670  22.808  0.00  0.00    +0.178 C 
ATOM     46  C   UNL     1       2.287   5.376  23.498  0.00  0.00    +0.171 C 
BRANCH  46  47
ATOM     47  O   UNL     1       2.366   6.786  23.286  0.00  0.00    -0.387 OA
ATOM     48  H   UNL     1       2.954   6.933  22.522  0.00  0.00    +0.210 HD
ENDBRANCH  46  47
BRANCH  45  49
ATOM     49  O   UNL     1       3.394   4.770  21.384  0.00  0.00    -0.386 OA
ATOM     50  H   UNL     1       3.261   5.719  21.189  0.00  0.00    +0.210 HD
ENDBRANCH  45  49
BRANCH  44  51
ATOM     51  O   UNL     1       4.769   2.582  22.666  0.00  0.00    -0.384 OA
ATOM     52  H   UNL     1       4.807   2.845  21.726  0.00  0.00    +0.210 HD
ENDBRANCH  44  51
ENDBRANCH  40  43
ENDBRANCH   1  40
TORSDOF 16
ENDMDL
MODEL 7
REMARK VINA RESULT:      -7.2      2.834      8.096
REMARK  Name = 
REMARK  16 active torsions:
REMARK  status: ('A' for Active; 'I' for Inactive)
REMARK    1  A    between atoms: C_2  and  O_51
REMARK    2  A    between atoms: C_4  and  O_50
REMARK    3  A    between atoms: C_6  and  O_49
REMARK    4  A    between atoms: C_8  and  O_11
REMARK    5  A    between atoms: O_11  and  C_12
REMARK    6  A    between atoms: C_14  and  O_48
REMARK    7  A    between atoms: C_16  and  O_47
REMARK    8  A    between atoms: C_18  and  C_45
REMARK    9  A    between atoms: C_21  and  O_23
REMARK   10  A    between atoms: O_23  and  C_24
REMARK   11  A    between atoms: C_25  and  C_37
REMARK   12  A    between atoms: C_29  and  O_36
REMARK   13  A    between atoms: C_31  and  O_35
REMARK   14  A    between atoms: C_39  and  O_44
REMARK   15  A    between atoms: C_40  and  O_43
REMARK   16  A    between atoms: C_45  and  O_46
REMARK                            x       y       z     vdW  Elec       q    Type
REMARK                         _______ _______ _______ _____ _____    ______ ____
ROOT
ATOM      1  C   UNL     1       7.856   1.070  22.597  0.00  0.00    +0.221 C 
ATOM      2  C   UNL     1       7.294  -0.377  22.783  0.00  0.00    +0.340 C 
ATOM      3  O   UNL     1       8.331  -1.117  23.469  0.00  0.00    -0.331 OA
ATOM      4  C   UNL     1       9.501  -1.314  22.635  0.00  0.00    +0.179 C 
ATOM      5  C   UNL     1      10.171   0.026  22.289  0.00  0.00    +0.177 C 
ATOM      6  C   UNL     1       9.117   0.959  21.697  0.00  0.00    +0.180 C 
ENDROOT
BRANCH   6   7
ATOM      7  O   UNL     1       9.643   2.247  21.382  0.00  0.00    -0.386 OA
ATOM      8  H   UNL     1      10.097   2.134  20.524  0.00  0.00    +0.210 HD
ENDBRANCH   6   7
BRANCH   5   9
ATOM      9  O   UNL     1      10.809   0.616  23.423  0.00  0.00    -0.386 OA
ATOM     10  H   UNL     1      11.067  -0.079  24.043  0.00  0.00    +0.210 HD
ENDBRANCH   5   9
BRANCH   4  11
ATOM     11  C   UNL     1      10.528  -2.206  23.350  0.00  0.00    +0.190 C 
BRANCH  11  12
ATOM     12  O   UNL     1       9.922  -3.265  24.087  0.00  0.00    -0.392 OA
ATOM     13  H   UNL     1       9.265  -2.880  24.700  0.00  0.00    +0.210 HD
ENDBRANCH  11  12
ENDBRANCH   4  11
BRANCH   2  14
ATOM     14  O   UNL     1       6.054  -0.346  23.523  0.00  0.00    -0.453 OA
BRANCH  14  15
ATOM     15  C   UNL     1       5.818  -1.279  24.538  0.00  0.00    +0.214 A 
ATOM     16  C   UNL     1       5.595  -2.747  24.243  0.00  0.00    +0.238 A 
ATOM     17  O   UNL     1       5.090  -3.132  23.188  0.00  0.00    -0.283 OA
ATOM     18  C   UNL     1       5.909  -3.701  25.327  0.00  0.00    +0.109 A 
ATOM     19  C   UNL     1       5.871  -3.196  26.619  0.00  0.00    +0.147 A 
ATOM     20  C   UNL     1       6.128  -4.007  27.731  0.00  0.00    +0.092 A 
ATOM     21  C   UNL     1       6.444  -5.345  27.526  0.00  0.00    +0.124 A 
ATOM     22  C   UNL     1       6.477  -5.878  26.244  0.00  0.00    +0.091 A 
ATOM     23  O   UNL     1       5.551  -1.895  26.860  0.00  0.00    -0.451 OA
ATOM     24  C   UNL     1       6.214  -5.053  25.143  0.00  0.00    +0.135 A 
ATOM     25  C   UNL     1       5.740  -0.941  25.856  0.00  0.00    +0.181 A 
BRANCH  25  26
ATOM     26  C   UNL     1       5.755   0.433  26.473  0.00  0.00    +0.025 A 
ATOM     27  C   UNL     1       4.578   0.907  27.118  0.00  0.00    +0.015 A 
ATOM     28  C   UNL     1       4.482   2.191  27.664  0.00  0.00    +0.050 A 
ATOM     29  C   UNL     1       5.574   3.027  27.576  0.00  0.00    +0.158 A 
ATOM     30  C   UNL     1       6.745   2.595  26.969  0.00  0.00    +0.159 A 
ATOM     31  C   UNL     1       6.851   1.308  26.439  0.00  0.00    +0.060 A 
BRANCH  29  32
ATOM     32  O   UNL     1       5.487   4.294  28.074  0.00  0.00    -0.503 OA
ATOM     33  H   UNL     1       6.301   4.409  28.607  0.00  0.00    +0.292 HD
ENDBRANCH  29  32
BRANCH  30  34
ATOM     34  O   UNL     1       7.781   3.488  26.893  0.00  0.00    -0.503 OA
ATOM     35  H   UNL     1       7.396   4.389  26.849  0.00  0.00    +0.292 HD
ENDBRANCH  30  34
ENDBRANCH  25  26
BRANCH  24  36
ATOM     36  O   UNL     1       6.287  -5.582  23.888  0.00  0.00    -0.506 OA
ATOM     37  H   UNL     1       7.011  -5.160  23.396  0.00  0.00    +0.292 HD
ENDBRANCH  24  36
BRANCH  21  38
ATOM     38  O   UNL     1       6.740  -6.167  28.564  0.00  0.00    -0.507 OA
ATOM     39  H   UNL     1       7.460  -6.776  28.318  0.00  0.00    +0.292 HD
ENDBRANCH  21  38
ENDBRANCH  14  15
ENDBRANCH   2  14
BRANCH   1  40
ATOM     40  O   UNL     1       6.958   2.099  22.130  0.00  0.00    -0.337 OA
BRANCH  40  43
ATOM     41  C   UNL     1       4.510   3.655  24.226  0.00  0.00    +0.197 C 
ATOM     42  O   UNL     1       5.051   3.017  23.087  0.00  0.00    -0.346 OA
ATOM     43  C   UNL     1       6.466   2.985  23.117  0.00  0.00    +0.282 C 
ATOM     44  C   UNL     1       6.961   4.425  22.879  0.00  0.00    +0.201 C 
ATOM     45  C   UNL     1       6.437   5.258  24.066  0.00  0.00    +0.178 C 
ATOM     46  C   UNL     1       4.907   5.127  24.239  0.00  0.00    +0.171 C 
BRANCH  46  47
ATOM     47  O   UNL     1       4.504   5.710  25.478  0.00  0.00    -0.387 OA
ATOM     48  H   UNL     1       4.349   6.660  25.316  0.00  0.00    +0.210 HD
ENDBRANCH  46  47
BRANCH  45  49
ATOM     49  O   UNL     1       6.835   6.622  23.906  0.00  0.00    -0.386 OA
ATOM     50  H   UNL     1       6.014   7.149  23.962  0.00  0.00    +0.210 HD
ENDBRANCH  45  49
BRANCH  44  51
ATOM     51  O   UNL     1       8.396   4.456  22.812  0.00  0.00    -0.384 OA
ATOM     52  H   UNL     1       8.694   3.528  22.752  0.00  0.00    +0.210 HD
ENDBRANCH  44  51
ENDBRANCH  40  43
ENDBRANCH   1  40
TORSDOF 16
ENDMDL
MODEL 8
REMARK VINA RESULT:      -7.1      2.239      7.995
REMARK  Name = 
REMARK  16 active torsions:
REMARK  status: ('A' for Active; 'I' for Inactive)
REMARK    1  A    between atoms: C_2  and  O_51
REMARK    2  A    between atoms: C_4  and  O_50
REMARK    3  A    between atoms: C_6  and  O_49
REMARK    4  A    between atoms: C_8  and  O_11
REMARK    5  A    between atoms: O_11  and  C_12
REMARK    6  A    between atoms: C_14  and  O_48
REMARK    7  A    between atoms: C_16  and  O_47
REMARK    8  A    between atoms: C_18  and  C_45
REMARK    9  A    between atoms: C_21  and  O_23
REMARK   10  A    between atoms: O_23  and  C_24
REMARK   11  A    between atoms: C_25  and  C_37
REMARK   12  A    between atoms: C_29  and  O_36
REMARK   13  A    between atoms: C_31  and  O_35
REMARK   14  A    between atoms: C_39  and  O_44
REMARK   15  A    between atoms: C_40  and  O_43
REMARK   16  A    between atoms: C_45  and  O_46
REMARK                            x       y       z     vdW  Elec       q    Type
REMARK                         _______ _______ _______ _____ _____    ______ ____
ROOT
ATOM      1  C   UNL     1       7.780  -0.677  23.072  0.00  0.00    +0.221 C 
ATOM      2  C   UNL     1       7.033  -2.042  23.234  0.00  0.00    +0.340 C 
ATOM      3  O   UNL     1       7.765  -2.773  24.245  0.00  0.00    -0.331 OA
ATOM      4  C   UNL     1       9.084  -3.164  23.786  0.00  0.00    +0.179 C 
ATOM      5  C   UNL     1       9.965  -1.934  23.511  0.00  0.00    +0.177 C 
ATOM      6  C   UNL     1       9.213  -0.998  22.567  0.00  0.00    +0.180 C 
ENDROOT
BRANCH   6   7
ATOM      7  O   UNL     1       9.942   0.196  22.286  0.00  0.00    -0.386 OA
ATOM      8  H   UNL     1       9.344   0.737  21.735  0.00  0.00    +0.210 HD
ENDBRANCH   6   7
BRANCH   5   9
ATOM      9  O   UNL     1      10.342  -1.264  24.714  0.00  0.00    -0.386 OA
ATOM     10  H   UNL     1       9.737  -1.515  25.424  0.00  0.00    +0.210 HD
ENDBRANCH   5   9
BRANCH   4  11
ATOM     11  C   UNL     1       9.782  -4.042  24.837  0.00  0.00    +0.190 C 
BRANCH  11  12
ATOM     12  O   UNL     1       9.666  -5.435  24.557  0.00  0.00    -0.392 OA
ATOM     13  H   UNL     1       9.586  -5.915  25.404  0.00  0.00    +0.210 HD
ENDBRANCH  11  12
ENDBRANCH   4  11
BRANCH   2  14
ATOM     14  O   UNL     1       5.653  -1.821  23.599  0.00  0.00    -0.453 OA
BRANCH  14  15
ATOM     15  C   UNL     1       5.036  -2.647  24.545  0.00  0.00    +0.214 A 
ATOM     16  C   UNL     1       4.528  -4.029  24.194  0.00  0.00    +0.238 A 
ATOM     17  O   UNL     1       4.132  -4.312  23.062  0.00  0.00    -0.283 OA
ATOM     18  C   UNL     1       4.421  -5.003  25.300  0.00  0.00    +0.109 A 
ATOM     19  C   UNL     1       4.285  -4.471  26.574  0.00  0.00    +0.147 A 
ATOM     20  C   UNL     1       4.152  -5.291  27.701  0.00  0.00    +0.092 A 
ATOM     21  C   UNL     1       4.175  -6.671  27.532  0.00  0.00    +0.124 A 
ATOM     22  C   UNL     1       4.298  -7.228  26.266  0.00  0.00    +0.091 A 
ATOM     23  O   UNL     1       4.244  -3.126  26.778  0.00  0.00    -0.451 OA
ATOM     24  C   UNL     1       4.426  -6.393  25.150  0.00  0.00    +0.135 A 
ATOM     25  C   UNL     1       4.818  -2.268  25.836  0.00  0.00    +0.181 A 
BRANCH  25  26
ATOM     26  C   UNL     1       5.051  -0.920  26.467  0.00  0.00    +0.025 A 
ATOM     27  C   UNL     1       3.935  -0.207  26.989  0.00  0.00    +0.015 A 
ATOM     28  C   UNL     1       4.050   1.074  27.538  0.00  0.00    +0.050 A 
ATOM     29  C   UNL     1       5.294   1.666  27.576  0.00  0.00    +0.158 A 
ATOM     30  C   UNL     1       6.408   0.995  27.092  0.00  0.00    +0.159 A 
ATOM     31  C   UNL     1       6.301  -0.292  26.561  0.00  0.00    +0.060 A 
BRANCH  29  32
ATOM     32  O   UNL     1       5.418   2.929  28.078  0.00  0.00    -0.503 OA
ATOM     33  H   UNL     1       4.513   3.172  28.367  0.00  0.00    +0.292 HD
ENDBRANCH  29  32
BRANCH  30  34
ATOM     34  O   UNL     1       7.608   1.654  27.138  0.00  0.00    -0.503 OA
ATOM     35  H   UNL     1       7.918   1.644  28.068  0.00  0.00    +0.292 HD
ENDBRANCH  30  34
ENDBRANCH  25  26
BRANCH  24  36
ATOM     36  O   UNL     1       4.584  -6.956  23.917  0.00  0.00    -0.506 OA
ATOM     37  H   UNL     1       5.011  -7.824  24.005  0.00  0.00    +0.292 HD
ENDBRANCH  24  36
BRANCH  21  38
ATOM     38  O   UNL     1       4.090  -7.513  28.592  0.00  0.00    -0.507 OA
ATOM     39  H   UNL     1       4.287  -7.036  29.419  0.00  0.00    +0.292 HD
ENDBRANCH  21  38
ENDBRANCH  14  15
ENDBRANCH   2  14
BRANCH   1  40
ATOM     40  O   UNL     1       7.156   0.356  22.281  0.00  0.00    -0.337 OA
BRANCH  40  43
ATOM     41  C   UNL     1       5.559   2.976  24.123  0.00  0.00    +0.197 C 
ATOM     42  O   UNL     1       5.686   1.869  23.254  0.00  0.00    -0.346 OA
ATOM     43  C   UNL     1       7.034   1.621  22.902  0.00  0.00    +0.282 C 
ATOM     44  C   UNL     1       7.476   2.756  21.957  0.00  0.00    +0.201 C 
ATOM     45  C   UNL     1       7.387   4.057  22.781  0.00  0.00    +0.178 C 
ATOM     46  C   UNL     1       5.988   4.254  23.409  0.00  0.00    +0.171 C 
BRANCH  46  47
ATOM     47  O   UNL     1       6.022   5.327  24.349  0.00  0.00    -0.387 OA
ATOM     48  H   UNL     1       5.104   5.637  24.470  0.00  0.00    +0.210 HD
ENDBRANCH  46  47
BRANCH  45  49
ATOM     49  O   UNL     1       7.757   5.169  21.962  0.00  0.00    -0.386 OA
ATOM     50  H   UNL     1       6.942   5.446  21.500  0.00  0.00    +0.210 HD
ENDBRANCH  45  49
BRANCH  44  51
ATOM     51  O   UNL     1       8.814   2.526  21.488  0.00  0.00    -0.384 OA
ATOM     52  H   UNL     1       9.158   3.390  21.187  0.00  0.00    +0.210 HD
ENDBRANCH  44  51
ENDBRANCH  40  43
ENDBRANCH   1  40
TORSDOF 16
ENDMDL
MODEL 9
REMARK VINA RESULT:      -7.1      2.319      5.684
REMARK  Name = 
REMARK  16 active torsions:
REMARK  status: ('A' for Active; 'I' for Inactive)
REMARK    1  A    between atoms: C_2  and  O_51
REMARK    2  A    between atoms: C_4  and  O_50
REMARK    3  A    between atoms: C_6  and  O_49
REMARK    4  A    between atoms: C_8  and  O_11
REMARK    5  A    between atoms: O_11  and  C_12
REMARK    6  A    between atoms: C_14  and  O_48
REMARK    7  A    between atoms: C_16  and  O_47
REMARK    8  A    between atoms: C_18  and  C_45
REMARK    9  A    between atoms: C_21  and  O_23
REMARK   10  A    between atoms: O_23  and  C_24
REMARK   11  A    between atoms: C_25  and  C_37
REMARK   12  A    between atoms: C_29  and  O_36
REMARK   13  A    between atoms: C_31  and  O_35
REMARK   14  A    between atoms: C_39  and  O_44
REMARK   15  A    between atoms: C_40  and  O_43
REMARK   16  A    between atoms: C_45  and  O_46
REMARK                            x       y       z     vdW  Elec       q    Type
REMARK                         _______ _______ _______ _____ _____    ______ ____
ROOT
ATOM      1  C   UNL     1       4.256  -0.831  26.940  0.00  0.00    +0.221 C 
ATOM      2  C   UNL     1       4.856   0.246  25.979  0.00  0.00    +0.340 C 
ATOM      3  O   UNL     1       5.824   0.980  26.765  0.00  0.00    -0.331 OA
ATOM      4  C   UNL     1       5.194   1.770  27.804  0.00  0.00    +0.179 C 
ATOM      5  C   UNL     1       4.485   0.875  28.833  0.00  0.00    +0.177 C 
ATOM      6  C   UNL     1       3.542  -0.070  28.090  0.00  0.00    +0.180 C 
ENDROOT
BRANCH   6   7
ATOM      7  O   UNL     1       2.868  -0.970  28.968  0.00  0.00    -0.386 OA
ATOM      8  H   UNL     1       1.922  -0.890  28.738  0.00  0.00    +0.210 HD
ENDBRANCH   6   7
BRANCH   5   9
ATOM      9  O   UNL     1       5.413   0.150  29.643  0.00  0.00    -0.386 OA
ATOM     10  H   UNL     1       5.788   0.743  30.309  0.00  0.00    +0.210 HD
ENDBRANCH   5   9
BRANCH   4  11
ATOM     11  C   UNL     1       6.238   2.628  28.536  0.00  0.00    +0.190 C 
BRANCH  11  12
ATOM     12  O   UNL     1       7.491   1.966  28.685  0.00  0.00    -0.392 OA
ATOM     13  H   UNL     1       8.012   2.437  29.364  0.00  0.00    +0.210 HD
ENDBRANCH  11  12
ENDBRANCH   4  11
BRANCH   2  14
ATOM     14  O   UNL     1       5.447  -0.385  24.821  0.00  0.00    -0.453 OA
BRANCH  14  15
ATOM     15  C   UNL     1       6.634   0.117  24.276  0.00  0.00    +0.214 A 
ATOM     16  C   UNL     1       6.704   1.477  23.617  0.00  0.00    +0.238 A 
ATOM     17  O   UNL     1       5.733   1.978  23.047  0.00  0.00    -0.283 OA
ATOM     18  C   UNL     1       8.025   2.139  23.587  0.00  0.00    +0.109 A 
ATOM     19  C   UNL     1       9.130   1.304  23.671  0.00  0.00    +0.147 A 
ATOM     20  C   UNL     1      10.435   1.810  23.630  0.00  0.00    +0.092 A 
ATOM     21  C   UNL     1      10.619   3.183  23.520  0.00  0.00    +0.124 A 
ATOM     22  C   UNL     1       9.530   4.039  23.423  0.00  0.00    +0.091 A 
ATOM     23  O   UNL     1       8.991  -0.047  23.765  0.00  0.00    -0.451 OA
ATOM     24  C   UNL     1       8.231   3.516  23.462  0.00  0.00    +0.135 A 
ATOM     25  C   UNL     1       7.804  -0.584  24.270  0.00  0.00    +0.181 A 
BRANCH  25  26
ATOM     26  C   UNL     1       8.043  -2.009  24.693  0.00  0.00    +0.025 A 
ATOM     27  C   UNL     1       8.381  -2.273  26.050  0.00  0.00    +0.015 A 
ATOM     28  C   UNL     1       8.678  -3.557  26.518  0.00  0.00    +0.050 A 
ATOM     29  C   UNL     1       8.640  -4.608  25.627  0.00  0.00    +0.158 A 
ATOM     30  C   UNL     1       8.299  -4.392  24.299  0.00  0.00    +0.159 A 
ATOM     31  C   UNL     1       7.982  -3.115  23.833  0.00  0.00    +0.060 A 
BRANCH  29  32
ATOM     32  O   UNL     1       8.960  -5.862  26.059  0.00  0.00    -0.503 OA
ATOM     33  H   UNL     1       9.940  -5.889  26.042  0.00  0.00    +0.292 HD
ENDBRANCH  29  32
BRANCH  30  34
ATOM     34  O   UNL     1       8.306  -5.479  23.463  0.00  0.00    -0.503 OA
ATOM     35  H   UNL     1       8.523  -5.160  22.562  0.00  0.00    +0.292 HD
ENDBRANCH  30  34
ENDBRANCH  25  26
BRANCH  24  36
ATOM     36  O   UNL     1       7.171   4.372  23.403  0.00  0.00    -0.506 OA
ATOM     37  H   UNL     1       7.069   4.707  22.497  0.00  0.00    +0.292 HD
ENDBRANCH  24  36
BRANCH  21  38
ATOM     38  O   UNL     1      11.860   3.731  23.516  0.00  0.00    -0.507 OA
ATOM     39  H   UNL     1      12.172   3.855  22.601  0.00  0.00    +0.292 HD
ENDBRANCH  21  38
ENDBRANCH  14  15
ENDBRANCH   2  14
BRANCH   1  40
ATOM     40  O   UNL     1       3.411  -1.857  26.378  0.00  0.00    -0.337 OA
BRANCH  40  43
ATOM     41  C   UNL     1       4.879  -4.543  28.232  0.00  0.00    +0.197 C 
ATOM     42  O   UNL     1       4.694  -3.231  27.742  0.00  0.00    -0.346 OA
ATOM     43  C   UNL     1       3.794  -3.191  26.652  0.00  0.00    +0.282 C 
ATOM     44  C   UNL     1       4.508  -3.831  25.445  0.00  0.00    +0.201 C 
ATOM     45  C   UNL     1       4.781  -5.297  25.838  0.00  0.00    +0.178 C 
ATOM     46  C   UNL     1       5.553  -5.408  27.173  0.00  0.00    +0.171 C 
BRANCH  46  47
ATOM     47  O   UNL     1       5.570  -6.765  27.616  0.00  0.00    -0.387 OA
ATOM     48  H   UNL     1       5.869  -7.312  26.866  0.00  0.00    +0.210 HD
ENDBRANCH  46  47
BRANCH  45  49
ATOM     49  O   UNL     1       5.471  -5.957  24.775  0.00  0.00    -0.386 OA
ATOM     50  H   UNL     1       4.779  -6.374  24.224  0.00  0.00    +0.210 HD
ENDBRANCH  45  49
BRANCH  44  51
ATOM     51  O   UNL     1       3.682  -3.750  24.273  0.00  0.00    -0.384 OA
ATOM     52  H   UNL     1       4.255  -3.967  23.511  0.00  0.00    +0.210 HD
ENDBRANCH  44  51
ENDBRANCH  40  43
ENDBRANCH   1  40
TORSDOF 16
ENDMDL
