MODEL 1
REMARK VINA RESULT:      -6.9      0.000      0.000
REMARK  Name = 
REMARK  18 active torsions:
REMARK  status: ('A' for Active; 'I' for Inactive)
REMARK    1  A    between atoms: C_1  and  O_2
REMARK    2  A    between atoms: O_2  and  C_3
REMARK    3  A    between atoms: C_4  and  O_48
REMARK    4  A    between atoms: C_7  and  C_9
REMARK    5  A    between atoms: C_10  and  O_22
REMARK    6  A    between atoms: C_14  and  O_21
REMARK    7  A    between atoms: C_16  and  O_20
REMARK    8  A    between atoms: O_22  and  C_23
REMARK    9  A    between atoms: C_25  and  O_36
REMARK   10  A    between atoms: C_26  and  O_35
REMARK   11  A    between atoms: C_28  and  O_34
REMARK   12  A    between atoms: C_30  and  C_32
REMARK   13  A    between atoms: C_32  and  O_33
REMARK   14  A    between atoms: O_36  and  C_37
REMARK   15  A    between atoms: C_39  and  O_47
REMARK   16  A    between atoms: C_41  and  C_44
REMARK   17  A    between atoms: C_41  and  O_46
REMARK   18  A    between atoms: C_44  and  O_45
REMARK                            x       y       z     vdW  Elec       q    Type
REMARK                         _______ _______ _______ _____ _____    ______ ____
ROOT
ATOM      1  O   UNL     1       6.189  -0.614  26.937  0.00  0.00    -0.453 OA
ENDROOT
BRANCH   1  12
ATOM      2  C   UNL     1       8.291  -0.790  25.587  0.00  0.00    +0.181 A 
ATOM      3  O   UNL     1       9.297  -0.121  24.806  0.00  0.00    -0.451 OA
ATOM      4  C   UNL     1       9.260   1.239  24.587  0.00  0.00    +0.147 A 
ATOM      5  C   UNL     1       8.354   2.039  25.234  0.00  0.00    +0.109 A 
ATOM      6  C   UNL     1       8.315   3.441  25.052  0.00  0.00    +0.135 A 
ATOM      7  C   UNL     1       9.226   4.069  24.226  0.00  0.00    +0.091 A 
ATOM      8  C   UNL     1      10.165   3.277  23.584  0.00  0.00    +0.124 A 
ATOM      9  C   UNL     1       7.506   1.415  26.214  0.00  0.00    +0.238 A 
ATOM     10  O   UNL     1       6.996   2.211  26.989  0.00  0.00    -0.283 OA
ATOM     11  C   UNL     1      10.183   1.874  23.746  0.00  0.00    +0.092 A 
ATOM     12  C   UNL     1       7.319  -0.080  26.244  0.00  0.00    +0.214 A 
BRANCH   2  15
ATOM     13  C   UNL     1       8.421  -4.587  26.583  0.00  0.00    +0.162 A 
ATOM     14  C   UNL     1       8.063  -3.212  26.575  0.00  0.00    +0.061 A 
ATOM     15  C   UNL     1       8.546  -2.310  25.596  0.00  0.00    +0.025 A 
ATOM     16  C   UNL     1       9.385  -2.892  24.604  0.00  0.00    +0.015 A 
ATOM     17  C   UNL     1       9.735  -4.258  24.595  0.00  0.00    +0.050 A 
ATOM     18  C   UNL     1       9.251  -5.093  25.582  0.00  0.00    +0.158 A 
BRANCH  18  19
ATOM     19  O   UNL     1       9.603  -6.416  25.550  0.00  0.00    -0.503 OA
ATOM     20  H   UNL     1      10.566  -6.434  25.388  0.00  0.00    +0.292 HD
ENDBRANCH  18  19
BRANCH  13  22
ATOM     21  C   UNL     1       6.637  -5.378  27.962  0.00  0.00    +0.277 C 
ATOM     22  O   UNL     1       7.951  -5.542  27.447  0.00  0.00    -0.491 OA
ENDBRANCH  13  22
ENDBRANCH   2  15
BRANCH   8  23
ATOM     23  O   UNL     1      11.107   3.869  22.796  0.00  0.00    -0.507 OA
ATOM     24  H   UNL     1      10.669   4.234  22.003  0.00  0.00    +0.292 HD
ENDBRANCH   8  23
BRANCH   6  25
ATOM     25  O   UNL     1       7.413   4.260  25.678  0.00  0.00    -0.506 OA
ATOM     26  H   UNL     1       7.792   5.173  25.679  0.00  0.00    +0.292 HD
ENDBRANCH   6  25
ENDBRANCH   1  12
BRANCH   1  27
ATOM     27  C   UNL     1       4.977  -0.659  26.115  0.00  0.00    +0.340 C 
ATOM     28  O   UNL     1       4.062   0.421  26.358  0.00  0.00    -0.331 OA
ATOM     29  C   UNL     1       3.266   0.353  27.538  0.00  0.00    +0.179 C 
ATOM     30  C   UNL     1       2.378  -0.908  27.521  0.00  0.00    +0.177 C 
ATOM     31  C   UNL     1       3.263  -2.148  27.302  0.00  0.00    +0.180 C 
ATOM     32  C   UNL     1       4.143  -1.955  26.061  0.00  0.00    +0.221 C 
BRANCH  31  33
ATOM     33  O   UNL     1       4.064  -2.469  28.433  0.00  0.00    -0.386 OA
ATOM     34  H   UNL     1       3.734  -1.917  29.171  0.00  0.00    +0.210 HD
ENDBRANCH  31  33
BRANCH  30  35
ATOM     35  O   UNL     1       1.423  -0.895  26.453  0.00  0.00    -0.386 OA
ATOM     36  H   UNL     1       0.719  -1.537  26.660  0.00  0.00    +0.210 HD
ENDBRANCH  30  35
BRANCH  32  37
ATOM     37  O   UNL     1       4.900  -3.124  25.698  0.00  0.00    -0.337 OA
BRANCH  37  38
ATOM     38  C   UNL     1       4.783  -3.447  24.304  0.00  0.00    +0.282 C 
ATOM     39  O   UNL     1       3.570  -4.147  23.997  0.00  0.00    -0.346 OA
ATOM     40  C   UNL     1       3.843  -5.044  22.888  0.00  0.00    +0.202 C 
ATOM     41  C   UNL     1       5.314  -4.865  22.488  0.00  0.00    +0.142 C 
ATOM     42  C   UNL     1       5.915  -4.353  23.786  0.00  0.00    +0.206 C 
BRANCH  42  43
ATOM     43  O   UNL     1       6.195  -5.427  24.701  0.00  0.00    -0.384 OA
ATOM     44  H   UNL     1       6.452  -6.205  24.168  0.00  0.00    +0.210 HD
ENDBRANCH  42  43
BRANCH  41  45
ATOM     45  O   UNL     1       5.465  -3.839  21.484  0.00  0.00    -0.381 OA
ATOM     46  H   UNL     1       4.779  -3.158  21.601  0.00  0.00    +0.210 HD
ENDBRANCH  41  45
BRANCH  41  47
ATOM     47  C   UNL     1       5.990  -6.148  21.982  0.00  0.00    +0.195 C 
BRANCH  47  48
ATOM     48  O   UNL     1       7.400  -6.145  22.150  0.00  0.00    -0.392 OA
ATOM     49  H   UNL     1       7.611  -6.971  22.660  0.00  0.00    +0.210 HD
ENDBRANCH  47  48
ENDBRANCH  41  47
ENDBRANCH  37  38
ENDBRANCH  32  37
BRANCH  29  50
ATOM     50  C   UNL     1       2.522   1.705  27.670  0.00  0.00    +0.190 C 
BRANCH  50  51
ATOM     51  O   UNL     1       1.711   2.078  26.559  0.00  0.00    -0.392 OA
ATOM     52  H   UNL     1       2.248   2.670  26.003  0.00  0.00    +0.210 HD
ENDBRANCH  50  51
ENDBRANCH  29  50
ENDBRANCH   1  27
TORSDOF 17
ENDMDL
MODEL 2
REMARK VINA RESULT:      -6.9      2.455      6.688
REMARK  Name = 
REMARK  18 active torsions:
REMARK  status: ('A' for Active; 'I' for Inactive)
REMARK    1  A    between atoms: C_1  and  O_2
REMARK    2  A    between atoms: O_2  and  C_3
REMARK    3  A    between atoms: C_4  and  O_48
REMARK    4  A    between atoms: C_7  and  C_9
REMARK    5  A    between atoms: C_10  and  O_22
REMARK    6  A    between atoms: C_14  and  O_21
REMARK    7  A    between atoms: C_16  and  O_20
REMARK    8  A    between atoms: O_22  and  C_23
REMARK    9  A    between atoms: C_25  and  O_36
REMARK   10  A    between atoms: C_26  and  O_35
REMARK   11  A    between atoms: C_28  and  O_34
REMARK   12  A    between atoms: C_30  and  C_32
REMARK   13  A    between atoms: C_32  and  O_33
REMARK   14  A    between atoms: O_36  and  C_37
REMARK   15  A    between atoms: C_39  and  O_47
REMARK   16  A    between atoms: C_41  and  C_44
REMARK   17  A    between atoms: C_41  and  O_46
REMARK   18  A    between atoms: C_44  and  O_45
REMARK                            x       y       z     vdW  Elec       q    Type
REMARK                         _______ _______ _______ _____ _____    ______ ____
ROOT
ATOM      1  O   UNL     1       4.769  -0.966  25.565  0.00  0.00    -0.453 OA
ENDROOT
BRANCH   1  12
ATOM      2  C   UNL     1       6.475  -2.800  25.625  0.00  0.00    +0.181 A 
ATOM      3  O   UNL     1       6.944  -4.008  26.250  0.00  0.00    -0.451 OA
ATOM      4  C   UNL     1       6.288  -4.571  27.322  0.00  0.00    +0.147 A 
ATOM      5  C   UNL     1       5.072  -4.096  27.742  0.00  0.00    +0.109 A 
ATOM      6  C   UNL     1       4.362  -4.676  28.819  0.00  0.00    +0.135 A 
ATOM      7  C   UNL     1       4.863  -5.781  29.478  0.00  0.00    +0.091 A 
ATOM      8  C   UNL     1       6.079  -6.290  29.049  0.00  0.00    +0.124 A 
ATOM      9  C   UNL     1       4.471  -3.047  26.963  0.00  0.00    +0.238 A 
ATOM     10  O   UNL     1       3.270  -2.924  27.162  0.00  0.00    -0.283 OA
ATOM     11  C   UNL     1       6.799  -5.691  27.992  0.00  0.00    +0.092 A 
ATOM     12  C   UNL     1       5.287  -2.226  25.999  0.00  0.00    +0.214 A 
BRANCH   2  15
ATOM     13  C   UNL     1       9.340  -1.049  23.588  0.00  0.00    +0.162 A 
ATOM     14  C   UNL     1       8.546  -1.492  24.680  0.00  0.00    +0.061 A 
ATOM     15  C   UNL     1       7.445  -2.365  24.508  0.00  0.00    +0.025 A 
ATOM     16  C   UNL     1       7.218  -2.792  23.169  0.00  0.00    +0.015 A 
ATOM     17  C   UNL     1       8.009  -2.368  22.081  0.00  0.00    +0.050 A 
ATOM     18  C   UNL     1       9.062  -1.502  22.299  0.00  0.00    +0.158 A 
BRANCH  18  19
ATOM     19  O   UNL     1       9.816  -1.107  21.226  0.00  0.00    -0.503 OA
ATOM     20  H   UNL     1      10.285  -0.299  21.511  0.00  0.00    +0.292 HD
ENDBRANCH  18  19
BRANCH  13  22
ATOM     21  C   UNL     1      10.673   0.465  24.871  0.00  0.00    +0.277 C 
ATOM     22  O   UNL     1      10.460  -0.261  23.668  0.00  0.00    -0.491 OA
ENDBRANCH  13  22
ENDBRANCH   2  15
BRANCH   8  23
ATOM     23  O   UNL     1       6.581  -7.407  29.649  0.00  0.00    -0.507 OA
ATOM     24  H   UNL     1       7.237  -7.816  29.051  0.00  0.00    +0.292 HD
ENDBRANCH   8  23
BRANCH   6  25
ATOM     25  O   UNL     1       3.152  -4.213  29.264  0.00  0.00    -0.506 OA
ATOM     26  H   UNL     1       2.687  -3.808  28.492  0.00  0.00    +0.292 HD
ENDBRANCH   6  25
ENDBRANCH   1  12
BRANCH   1  27
ATOM     27  C   UNL     1       5.391   0.176  26.240  0.00  0.00    +0.340 C 
ATOM     28  O   UNL     1       5.503   0.026  27.663  0.00  0.00    -0.331 OA
ATOM     29  C   UNL     1       4.320   0.212  28.437  0.00  0.00    +0.179 C 
ATOM     30  C   UNL     1       3.761   1.635  28.241  0.00  0.00    +0.177 C 
ATOM     31  C   UNL     1       3.563   1.900  26.739  0.00  0.00    +0.180 C 
ATOM     32  C   UNL     1       4.858   1.598  25.975  0.00  0.00    +0.221 C 
BRANCH  31  33
ATOM     33  O   UNL     1       2.477   1.168  26.181  0.00  0.00    -0.386 OA
ATOM     34  H   UNL     1       1.837   1.027  26.909  0.00  0.00    +0.210 HD
ENDBRANCH  31  33
BRANCH  30  35
ATOM     35  O   UNL     1       4.656   2.649  28.719  0.00  0.00    -0.386 OA
ATOM     36  H   UNL     1       4.973   2.389  29.603  0.00  0.00    +0.210 HD
ENDBRANCH  30  35
BRANCH  32  37
ATOM     37  O   UNL     1       4.806   1.954  24.580  0.00  0.00    -0.337 OA
BRANCH  37  38
ATOM     38  C   UNL     1       6.008   2.597  24.130  0.00  0.00    +0.282 C 
ATOM     39  O   UNL     1       5.754   3.652  23.192  0.00  0.00    -0.346 OA
ATOM     40  C   UNL     1       6.880   3.711  22.275  0.00  0.00    +0.202 C 
ATOM     41  C   UNL     1       7.887   2.633  22.696  0.00  0.00    +0.142 C 
ATOM     42  C   UNL     1       6.984   1.646  23.415  0.00  0.00    +0.206 C 
BRANCH  42  43
ATOM     43  O   UNL     1       6.300   0.782  22.491  0.00  0.00    -0.384 OA
ATOM     44  H   UNL     1       6.765  -0.078  22.496  0.00  0.00    +0.210 HD
ENDBRANCH  42  43
BRANCH  41  45
ATOM     45  O   UNL     1       8.843   3.148  23.648  0.00  0.00    -0.381 OA
ATOM     46  H   UNL     1       8.556   2.935  24.553  0.00  0.00    +0.210 HD
ENDBRANCH  41  45
BRANCH  41  47
ATOM     47  C   UNL     1       8.655   1.997  21.527  0.00  0.00    +0.195 C 
BRANCH  47  48
ATOM     48  O   UNL     1      10.064   2.024  21.698  0.00  0.00    -0.392 OA
ATOM     49  H   UNL     1      10.284   2.953  21.970  0.00  0.00    +0.210 HD
ENDBRANCH  47  48
ENDBRANCH  41  47
ENDBRANCH  37  38
ENDBRANCH  32  37
BRANCH  29  50
ATOM     50  C   UNL     1       4.656  -0.191  29.894  0.00  0.00    +0.190 C 
BRANCH  50  51
ATOM     51  O   UNL     1       4.138  -1.447  30.325  0.00  0.00    -0.392 OA
ATOM     52  H   UNL     1       4.056  -1.402  31.295  0.00  0.00    +0.210 HD
ENDBRANCH  50  51
ENDBRANCH  29  50
ENDBRANCH   1  27
TORSDOF 17
ENDMDL
MODEL 3
REMARK VINA RESULT:      -6.8      2.212      7.911
REMARK  Name = 
REMARK  18 active torsions:
REMARK  status: ('A' for Active; 'I' for Inactive)
REMARK    1  A    between atoms: C_1  and  O_2
REMARK    2  A    between atoms: O_2  and  C_3
REMARK    3  A    between atoms: C_4  and  O_48
REMARK    4  A    between atoms: C_7  and  C_9
REMARK    5  A    between atoms: C_10  and  O_22
REMARK    6  A    between atoms: C_14  and  O_21
REMARK    7  A    between atoms: C_16  and  O_20
REMARK    8  A    between atoms: O_22  and  C_23
REMARK    9  A    between atoms: C_25  and  O_36
REMARK   10  A    between atoms: C_26  and  O_35
REMARK   11  A    between atoms: C_28  and  O_34
REMARK   12  A    between atoms: C_30  and  C_32
REMARK   13  A    between atoms: C_32  and  O_33
REMARK   14  A    between atoms: O_36  and  C_37
REMARK   15  A    between atoms: C_39  and  O_47
REMARK   16  A    between atoms: C_41  and  C_44
REMARK   17  A    between atoms: C_41  and  O_46
REMARK   18  A    between atoms: C_44  and  O_45
REMARK                            x       y       z     vdW  Elec       q    Type
REMARK                         _______ _______ _______ _____ _____    ______ ____
ROOT
ATOM      1  O   UNL     1       7.283  -3.610  25.365  0.00  0.00    -0.453 OA
ENDROOT
BRANCH   1  12
ATOM      2  C   UNL     1       5.646  -2.534  26.926  0.00  0.00    +0.181 A 
ATOM      3  O   UNL     1       4.603  -2.701  27.901  0.00  0.00    -0.451 OA
ATOM      4  C   UNL     1       4.164  -3.949  28.288  0.00  0.00    +0.147 A 
ATOM      5  C   UNL     1       4.809  -5.088  27.879  0.00  0.00    +0.109 A 
ATOM      6  C   UNL     1       4.399  -6.378  28.285  0.00  0.00    +0.135 A 
ATOM      7  C   UNL     1       3.335  -6.538  29.151  0.00  0.00    +0.091 A 
ATOM      8  C   UNL     1       2.688  -5.396  29.595  0.00  0.00    +0.124 A 
ATOM      9  C   UNL     1       6.010  -4.922  27.106  0.00  0.00    +0.238 A 
ATOM     10  O   UNL     1       6.713  -5.923  27.085  0.00  0.00    -0.283 OA
ATOM     11  C   UNL     1       3.082  -4.110  29.164  0.00  0.00    +0.092 A 
ATOM     12  C   UNL     1       6.327  -3.615  26.427  0.00  0.00    +0.214 A 
BRANCH   2  15
ATOM     13  C   UNL     1       5.593   1.046  25.311  0.00  0.00    +0.162 A 
ATOM     14  C   UNL     1       5.261  -0.308  25.588  0.00  0.00    +0.061 A 
ATOM     15  C   UNL     1       5.872  -1.036  26.637  0.00  0.00    +0.025 A 
ATOM     16  C   UNL     1       6.811  -0.301  27.414  0.00  0.00    +0.015 A 
ATOM     17  C   UNL     1       7.136   1.047  27.156  0.00  0.00    +0.050 A 
ATOM     18  C   UNL     1       6.525   1.709  26.110  0.00  0.00    +0.158 A 
BRANCH  18  19
ATOM     19  O   UNL     1       6.856   3.018  25.881  0.00  0.00    -0.503 OA
ATOM     20  H   UNL     1       6.133   3.387  25.338  0.00  0.00    +0.292 HD
ENDBRANCH  18  19
BRANCH  13  22
ATOM     21  C   UNL     1       3.826   2.547  24.728  0.00  0.00    +0.277 C 
ATOM     22  O   UNL     1       5.007   1.846  24.364  0.00  0.00    -0.491 OA
ENDBRANCH  13  22
ENDBRANCH   2  15
BRANCH   8  23
ATOM     23  O   UNL     1       1.663  -5.515  30.485  0.00  0.00    -0.507 OA
ATOM     24  H   UNL     1       1.100  -4.719  30.424  0.00  0.00    +0.292 HD
ENDBRANCH   8  23
BRANCH   6  25
ATOM     25  O   UNL     1       5.019  -7.531  27.883  0.00  0.00    -0.506 OA
ATOM     26  H   UNL     1       4.685  -8.264  28.455  0.00  0.00    +0.292 HD
ENDBRANCH   6  25
ENDBRANCH   1  12
BRANCH   1  27
ATOM     27  C   UNL     1       6.684  -3.355  24.052  0.00  0.00    +0.340 C 
ATOM     28  O   UNL     1       5.446  -4.045  23.828  0.00  0.00    -0.331 OA
ATOM     29  C   UNL     1       5.515  -5.437  23.528  0.00  0.00    +0.179 C 
ATOM     30  C   UNL     1       6.327  -5.674  22.239  0.00  0.00    +0.177 C 
ATOM     31  C   UNL     1       7.704  -5.004  22.377  0.00  0.00    +0.180 C 
ATOM     32  C   UNL     1       7.538  -3.534  22.780  0.00  0.00    +0.221 C 
BRANCH  31  33
ATOM     33  O   UNL     1       8.562  -5.674  23.292  0.00  0.00    -0.386 OA
ATOM     34  H   UNL     1       9.045  -4.976  23.781  0.00  0.00    +0.210 HD
ENDBRANCH  31  33
BRANCH  30  35
ATOM     35  O   UNL     1       5.706  -5.096  21.083  0.00  0.00    -0.386 OA
ATOM     36  H   UNL     1       4.750  -5.281  21.121  0.00  0.00    +0.210 HD
ENDBRANCH  30  35
BRANCH  32  37
ATOM     37  O   UNL     1       8.771  -2.791  22.793  0.00  0.00    -0.337 OA
BRANCH  37  38
ATOM     38  C   UNL     1       8.580  -1.398  22.501  0.00  0.00    +0.282 C 
ATOM     39  O   UNL     1       9.527  -0.897  21.548  0.00  0.00    -0.346 OA
ATOM     40  C   UNL     1       9.778   0.499  21.863  0.00  0.00    +0.202 C 
ATOM     41  C   UNL     1       8.916   0.870  23.077  0.00  0.00    +0.142 C 
ATOM     42  C   UNL     1       8.725  -0.487  23.733  0.00  0.00    +0.206 C 
BRANCH  42  43
ATOM     43  O   UNL     1       9.863  -0.854  24.533  0.00  0.00    -0.384 OA
ATOM     44  H   UNL     1      10.574  -1.129  23.922  0.00  0.00    +0.210 HD
ENDBRANCH  42  43
BRANCH  41  45
ATOM     45  O   UNL     1       7.621   1.363  22.671  0.00  0.00    -0.381 OA
ATOM     46  H   UNL     1       7.490   2.266  23.008  0.00  0.00    +0.210 HD
ENDBRANCH  41  45
BRANCH  41  47
ATOM     47  C   UNL     1       9.559   1.902  24.015  0.00  0.00    +0.195 C 
BRANCH  47  48
ATOM     48  O   UNL     1      10.977   1.837  24.037  0.00  0.00    -0.392 OA
ATOM     49  H   UNL     1      11.205   1.171  24.737  0.00  0.00    +0.210 HD
ENDBRANCH  47  48
ENDBRANCH  41  47
ENDBRANCH  37  38
ENDBRANCH  32  37
BRANCH  29  50
ATOM     50  C   UNL     1       4.064  -5.980  23.527  0.00  0.00    +0.190 C 
BRANCH  50  51
ATOM     51  O   UNL     1       3.077  -5.110  22.981  0.00  0.00    -0.392 OA
ATOM     52  H   UNL     1       3.519  -4.263  22.791  0.00  0.00    +0.210 HD
ENDBRANCH  50  51
ENDBRANCH  29  50
ENDBRANCH   1  27
TORSDOF 17
ENDMDL
MODEL 4
REMARK VINA RESULT:      -6.7      2.206      6.234
REMARK  Name = 
REMARK  18 active torsions:
REMARK  status: ('A' for Active; 'I' for Inactive)
REMARK    1  A    between atoms: C_1  and  O_2
REMARK    2  A    between atoms: O_2  and  C_3
REMARK    3  A    between atoms: C_4  and  O_48
REMARK    4  A    between atoms: C_7  and  C_9
REMARK    5  A    between atoms: C_10  and  O_22
REMARK    6  A    between atoms: C_14  and  O_21
REMARK    7  A    between atoms: C_16  and  O_20
REMARK    8  A    between atoms: O_22  and  C_23
REMARK    9  A    between atoms: C_25  and  O_36
REMARK   10  A    between atoms: C_26  and  O_35
REMARK   11  A    between atoms: C_28  and  O_34
REMARK   12  A    between atoms: C_30  and  C_32
REMARK   13  A    between atoms: C_32  and  O_33
REMARK   14  A    between atoms: O_36  and  C_37
REMARK   15  A    between atoms: C_39  and  O_47
REMARK   16  A    between atoms: C_41  and  C_44
REMARK   17  A    between atoms: C_41  and  O_46
REMARK   18  A    between atoms: C_44  and  O_45
REMARK                            x       y       z     vdW  Elec       q    Type
REMARK                         _______ _______ _______ _____ _____    ______ ____
ROOT
ATOM      1  O   UNL     1       6.951  -2.225  24.815  0.00  0.00    -0.453 OA
ENDROOT
BRANCH   1  12
ATOM      2  C   UNL     1       5.287  -2.239  26.687  0.00  0.00    +0.181 A 
ATOM      3  O   UNL     1       4.431  -1.483  27.562  0.00  0.00    -0.451 OA
ATOM      4  C   UNL     1       4.351  -0.110  27.489  0.00  0.00    +0.147 A 
ATOM      5  C   UNL     1       4.961   0.586  26.477  0.00  0.00    +0.109 A 
ATOM      6  C   UNL     1       4.868   1.992  26.361  0.00  0.00    +0.135 A 
ATOM      7  C   UNL     1       4.119   2.725  27.260  0.00  0.00    +0.091 A 
ATOM      8  C   UNL     1       3.474   2.034  28.274  0.00  0.00    +0.124 A 
ATOM      9  C   UNL     1       5.611  -0.182  25.449  0.00  0.00    +0.238 A 
ATOM     10  O   UNL     1       5.810   0.454  24.423  0.00  0.00    -0.283 OA
ATOM     11  C   UNL     1       3.593   0.632  28.404  0.00  0.00    +0.092 A 
ATOM     12  C   UNL     1       5.970  -1.629  25.667  0.00  0.00    +0.214 A 
BRANCH   2  15
ATOM     13  C   UNL     1       4.058  -5.885  27.474  0.00  0.00    +0.162 A 
ATOM     14  C   UNL     1       4.062  -4.536  27.029  0.00  0.00    +0.061 A 
ATOM     15  C   UNL     1       5.230  -3.737  27.048  0.00  0.00    +0.025 A 
ATOM     16  C   UNL     1       6.404  -4.397  27.510  0.00  0.00    +0.015 A 
ATOM     17  C   UNL     1       6.414  -5.740  27.941  0.00  0.00    +0.050 A 
ATOM     18  C   UNL     1       5.243  -6.472  27.919  0.00  0.00    +0.158 A 
BRANCH  18  19
ATOM     19  O   UNL     1       5.279  -7.774  28.340  0.00  0.00    -0.503 OA
ATOM     20  H   UNL     1       4.352  -8.023  28.522  0.00  0.00    +0.292 HD
ENDBRANCH  18  19
BRANCH  13  22
ATOM     21  C   UNL     1       2.400  -7.002  26.164  0.00  0.00    +0.277 C 
ATOM     22  O   UNL     1       2.995  -6.750  27.430  0.00  0.00    -0.491 OA
ENDBRANCH  13  22
ENDBRANCH   2  15
BRANCH   8  23
ATOM     23  O   UNL     1       2.690   2.721  29.152  0.00  0.00    -0.507 OA
ATOM     24  H   UNL     1       2.150   2.082  29.658  0.00  0.00    +0.292 HD
ENDBRANCH   8  23
BRANCH   6  25
ATOM     25  O   UNL     1       5.477   2.711  25.366  0.00  0.00    -0.506 OA
ATOM     26  H   UNL     1       5.906   3.496  25.786  0.00  0.00    +0.292 HD
ENDBRANCH   6  25
ENDBRANCH   1  12
BRANCH   1  27
ATOM     27  C   UNL     1       6.517  -2.328  23.420  0.00  0.00    +0.340 C 
ATOM     28  O   UNL     1       5.296  -3.062  23.237  0.00  0.00    -0.331 OA
ATOM     29  C   UNL     1       5.366  -4.483  23.322  0.00  0.00    +0.179 C 
ATOM     30  C   UNL     1       6.318  -5.044  22.245  0.00  0.00    +0.177 C 
ATOM     31  C   UNL     1       7.685  -4.351  22.367  0.00  0.00    +0.180 C 
ATOM     32  C   UNL     1       7.509  -2.828  22.349  0.00  0.00    +0.221 C 
BRANCH  31  33
ATOM     33  O   UNL     1       8.414  -4.751  23.522  0.00  0.00    -0.386 OA
ATOM     34  H   UNL     1       9.351  -4.526  23.349  0.00  0.00    +0.210 HD
ENDBRANCH  31  33
BRANCH  30  35
ATOM     35  O   UNL     1       5.851  -4.793  20.913  0.00  0.00    -0.386 OA
ATOM     36  H   UNL     1       6.553  -4.329  20.422  0.00  0.00    +0.210 HD
ENDBRANCH  30  35
BRANCH  32  37
ATOM     37  O   UNL     1       8.750  -2.098  22.315  0.00  0.00    -0.337 OA
BRANCH  37  38
ATOM     38  C   UNL     1       8.556  -0.676  22.358  0.00  0.00    +0.282 C 
ATOM     39  O   UNL     1       9.080  -0.010  21.201  0.00  0.00    -0.346 OA
ATOM     40  C   UNL     1       9.532   1.307  21.614  0.00  0.00    +0.202 C 
ATOM     41  C   UNL     1       9.250   1.454  23.115  0.00  0.00    +0.142 C 
ATOM     42  C   UNL     1       9.241   0.000  23.559  0.00  0.00    +0.206 C 
BRANCH  42  43
ATOM     43  O   UNL     1      10.574  -0.500  23.761  0.00  0.00    -0.384 OA
ATOM     44  H   UNL     1      10.590  -1.425  23.446  0.00  0.00    +0.210 HD
ENDBRANCH  42  43
BRANCH  41  45
ATOM     45  O   UNL     1       7.938   2.007  23.352  0.00  0.00    -0.381 OA
ATOM     46  H   UNL     1       7.417   1.398  23.904  0.00  0.00    +0.210 HD
ENDBRANCH  41  45
BRANCH  41  47
ATOM     47  C   UNL     1      10.283   2.303  23.870  0.00  0.00    +0.195 C 
BRANCH  47  48
ATOM     48  O   UNL     1      10.713   3.444  23.144  0.00  0.00    -0.392 OA
ATOM     49  H   UNL     1      10.063   4.162  23.362  0.00  0.00    +0.210 HD
ENDBRANCH  47  48
ENDBRANCH  41  47
ENDBRANCH  37  38
ENDBRANCH  32  37
BRANCH  29  50
ATOM     50  C   UNL     1       3.913  -5.018  23.289  0.00  0.00    +0.190 C 
BRANCH  50  51
ATOM     51  O   UNL     1       3.709  -6.213  22.541  0.00  0.00    -0.392 OA
ATOM     52  H   UNL     1       4.032  -6.041  21.639  0.00  0.00    +0.210 HD
ENDBRANCH  50  51
ENDBRANCH  29  50
ENDBRANCH   1  27
TORSDOF 17
ENDMDL
MODEL 5
REMARK VINA RESULT:      -6.7      2.071      7.744
REMARK  Name = 
REMARK  18 active torsions:
REMARK  status: ('A' for Active; 'I' for Inactive)
REMARK    1  A    between atoms: C_1  and  O_2
REMARK    2  A    between atoms: O_2  and  C_3
REMARK    3  A    between atoms: C_4  and  O_48
REMARK    4  A    between atoms: C_7  and  C_9
REMARK    5  A    between atoms: C_10  and  O_22
REMARK    6  A    between atoms: C_14  and  O_21
REMARK    7  A    between atoms: C_16  and  O_20
REMARK    8  A    between atoms: O_22  and  C_23
REMARK    9  A    between atoms: C_25  and  O_36
REMARK   10  A    between atoms: C_26  and  O_35
REMARK   11  A    between atoms: C_28  and  O_34
REMARK   12  A    between atoms: C_30  and  C_32
REMARK   13  A    between atoms: C_32  and  O_33
REMARK   14  A    between atoms: O_36  and  C_37
REMARK   15  A    between atoms: C_39  and  O_47
REMARK   16  A    between atoms: C_41  and  C_44
REMARK   17  A    between atoms: C_41  and  O_46
REMARK   18  A    between atoms: C_44  and  O_45
REMARK                            x       y       z     vdW  Elec       q    Type
REMARK                         _______ _______ _______ _____ _____    ______ ____
ROOT
ATOM      1  O   UNL     1       7.484  -0.004  25.599  0.00  0.00    -0.453 OA
ENDROOT
BRANCH   1  12
ATOM      2  C   UNL     1       5.536  -1.577  25.574  0.00  0.00    +0.181 A 
ATOM      3  O   UNL     1       4.224  -1.901  26.069  0.00  0.00    -0.451 OA
ATOM      4  C   UNL     1       3.575  -1.097  26.981  0.00  0.00    +0.147 A 
ATOM      5  C   UNL     1       4.080   0.127  27.338  0.00  0.00    +0.109 A 
ATOM      6  C   UNL     1       3.419   0.984  28.247  0.00  0.00    +0.135 A 
ATOM      7  C   UNL     1       2.202   0.627  28.792  0.00  0.00    +0.091 A 
ATOM      8  C   UNL     1       1.664  -0.596  28.422  0.00  0.00    +0.124 A 
ATOM      9  C   UNL     1       5.266   0.573  26.656  0.00  0.00    +0.238 A 
ATOM     10  O   UNL     1       5.451   1.779  26.748  0.00  0.00    -0.283 OA
ATOM     11  C   UNL     1       2.342  -1.463  27.536  0.00  0.00    +0.092 A 
ATOM     12  C   UNL     1       6.143  -0.393  25.903  0.00  0.00    +0.214 A 
BRANCH   2  15
ATOM     13  C   UNL     1       7.678  -4.395  23.872  0.00  0.00    +0.162 A 
ATOM     14  C   UNL     1       7.213  -3.456  24.832  0.00  0.00    +0.061 A 
ATOM     15  C   UNL     1       6.040  -2.690  24.633  0.00  0.00    +0.025 A 
ATOM     16  C   UNL     1       5.345  -2.956  23.419  0.00  0.00    +0.015 A 
ATOM     17  C   UNL     1       5.791  -3.896  22.467  0.00  0.00    +0.050 A 
ATOM     18  C   UNL     1       6.951  -4.607  22.700  0.00  0.00    +0.158 A 
BRANCH  18  19
ATOM     19  O   UNL     1       7.362  -5.515  21.762  0.00  0.00    -0.503 OA
ATOM     20  H   UNL     1       7.382  -5.033  20.912  0.00  0.00    +0.292 HD
ENDBRANCH  18  19
BRANCH  13  22
ATOM     21  C   UNL     1       9.409  -5.263  25.274  0.00  0.00    +0.277 C 
ATOM     22  O   UNL     1       8.761  -5.226  24.010  0.00  0.00    -0.491 OA
ENDBRANCH  13  22
ENDBRANCH   2  15
BRANCH   8  23
ATOM     23  O   UNL     1       0.443  -0.960  28.907  0.00  0.00    -0.507 OA
ATOM     24  H   UNL     1       0.535  -1.178  29.855  0.00  0.00    +0.292 HD
ENDBRANCH   8  23
BRANCH   6  25
ATOM     25  O   UNL     1       3.908   2.205  28.627  0.00  0.00    -0.506 OA
ATOM     26  H   UNL     1       4.890   2.179  28.520  0.00  0.00    +0.292 HD
ENDBRANCH   6  25
ENDBRANCH   1  12
BRANCH   1  27
ATOM     27  C   UNL     1       7.601   0.716  24.328  0.00  0.00    +0.340 C 
ATOM     28  O   UNL     1       7.828  -0.132  23.192  0.00  0.00    -0.331 OA
ATOM     29  C   UNL     1       9.142  -0.656  23.017  0.00  0.00    +0.179 C 
ATOM     30  C   UNL     1      10.164   0.487  22.856  0.00  0.00    +0.177 C 
ATOM     31  C   UNL     1      10.039   1.451  24.048  0.00  0.00    +0.180 C 
ATOM     32  C   UNL     1       8.582   1.900  24.212  0.00  0.00    +0.221 C 
BRANCH  31  33
ATOM     33  O   UNL     1      10.528   0.900  25.265  0.00  0.00    -0.386 OA
ATOM     34  H   UNL     1      10.917   0.030  25.038  0.00  0.00    +0.210 HD
ENDBRANCH  31  33
BRANCH  30  35
ATOM     35  O   UNL     1       9.937   1.267  21.675  0.00  0.00    -0.386 OA
ATOM     36  H   UNL     1      10.587   1.993  21.655  0.00  0.00    +0.210 HD
ENDBRANCH  30  35
BRANCH  32  37
ATOM     37  O   UNL     1       8.397   2.915  25.216  0.00  0.00    -0.337 OA
BRANCH  37  38
ATOM     38  C   UNL     1       8.828   4.212  24.776  0.00  0.00    +0.282 C 
ATOM     39  O   UNL     1       8.586   5.237  25.750  0.00  0.00    -0.346 OA
ATOM     40  C   UNL     1       8.320   6.474  25.036  0.00  0.00    +0.202 C 
ATOM     41  C   UNL     1       8.423   6.183  23.534  0.00  0.00    +0.142 C 
ATOM     42  C   UNL     1       8.120   4.694  23.498  0.00  0.00    +0.206 C 
BRANCH  42  43
ATOM     43  O   UNL     1       6.705   4.440  23.546  0.00  0.00    -0.384 OA
ATOM     44  H   UNL     1       6.302   5.135  24.103  0.00  0.00    +0.210 HD
ENDBRANCH  42  43
BRANCH  41  45
ATOM     45  O   UNL     1       9.770   6.382  23.051  0.00  0.00    -0.381 OA
ATOM     46  H   UNL     1      10.398   6.333  23.793  0.00  0.00    +0.210 HD
ENDBRANCH  41  45
BRANCH  41  47
ATOM     47  C   UNL     1       7.465   7.009  22.664  0.00  0.00    +0.195 C 
BRANCH  47  48
ATOM     48  O   UNL     1       7.202   6.421  21.399  0.00  0.00    -0.392 OA
ATOM     49  H   UNL     1       6.883   7.161  20.820  0.00  0.00    +0.210 HD
ENDBRANCH  47  48
ENDBRANCH  41  47
ENDBRANCH  37  38
ENDBRANCH  32  37
BRANCH  29  50
ATOM     50  C   UNL     1       9.078  -1.679  21.855  0.00  0.00    +0.190 C 
BRANCH  50  51
ATOM     51  O   UNL     1       9.468  -1.189  20.576  0.00  0.00    -0.392 OA
ATOM     52  H   UNL     1      10.232  -1.722  20.289  0.00  0.00    +0.210 HD
ENDBRANCH  50  51
ENDBRANCH  29  50
ENDBRANCH   1  27
TORSDOF 17
ENDMDL
MODEL 6
REMARK VINA RESULT:      -6.7      1.996      5.575
REMARK  Name = 
REMARK  18 active torsions:
REMARK  status: ('A' for Active; 'I' for Inactive)
REMARK    1  A    between atoms: C_1  and  O_2
REMARK    2  A    between atoms: O_2  and  C_3
REMARK    3  A    between atoms: C_4  and  O_48
REMARK    4  A    between atoms: C_7  and  C_9
REMARK    5  A    between atoms: C_10  and  O_22
REMARK    6  A    between atoms: C_14  and  O_21
REMARK    7  A    between atoms: C_16  and  O_20
REMARK    8  A    between atoms: O_22  and  C_23
REMARK    9  A    between atoms: C_25  and  O_36
REMARK   10  A    between atoms: C_26  and  O_35
REMARK   11  A    between atoms: C_28  and  O_34
REMARK   12  A    between atoms: C_30  and  C_32
REMARK   13  A    between atoms: C_32  and  O_33
REMARK   14  A    between atoms: O_36  and  C_37
REMARK   15  A    between atoms: C_39  and  O_47
REMARK   16  A    between atoms: C_41  and  C_44
REMARK   17  A    between atoms: C_41  and  O_46
REMARK   18  A    between atoms: C_44  and  O_45
REMARK                            x       y       z     vdW  Elec       q    Type
REMARK                         _______ _______ _______ _____ _____    ______ ____
ROOT
ATOM      1  O   UNL     1       5.583  -1.249  25.574  0.00  0.00    -0.453 OA
ENDROOT
BRANCH   1  12
ATOM      2  C   UNL     1       7.052  -1.493  23.559  0.00  0.00    +0.181 A 
ATOM      3  O   UNL     1       8.057  -0.917  22.708  0.00  0.00    -0.451 OA
ATOM      4  C   UNL     1       8.579   0.336  22.947  0.00  0.00    +0.147 A 
ATOM      5  C   UNL     1       8.280   1.024  24.095  0.00  0.00    +0.109 A 
ATOM      6  C   UNL     1       8.826   2.296  24.380  0.00  0.00    +0.135 A 
ATOM      7  C   UNL     1       9.722   2.888  23.512  0.00  0.00    +0.091 A 
ATOM      8  C   UNL     1      10.056   2.194  22.359  0.00  0.00    +0.124 A 
ATOM      9  C   UNL     1       7.473   0.348  25.075  0.00  0.00    +0.238 A 
ATOM     10  O   UNL     1       7.544   0.850  26.189  0.00  0.00    -0.283 OA
ATOM     11  C   UNL     1       9.486   0.936  22.064  0.00  0.00    +0.092 A 
ATOM     12  C   UNL     1       6.657  -0.865  24.712  0.00  0.00    +0.214 A 
BRANCH   2  15
ATOM     13  C   UNL     1       4.963  -4.690  22.638  0.00  0.00    +0.162 A 
ATOM     14  C   UNL     1       5.287  -3.377  23.074  0.00  0.00    +0.061 A 
ATOM     15  C   UNL     1       6.604  -2.861  23.006  0.00  0.00    +0.025 A 
ATOM     16  C   UNL     1       7.567  -3.741  22.435  0.00  0.00    +0.015 A 
ATOM     17  C   UNL     1       7.252  -5.041  21.986  0.00  0.00    +0.050 A 
ATOM     18  C   UNL     1       5.955  -5.504  22.091  0.00  0.00    +0.158 A 
BRANCH  18  19
ATOM     19  O   UNL     1       5.674  -6.768  21.646  0.00  0.00    -0.503 OA
ATOM     20  H   UNL     1       4.835  -6.699  21.152  0.00  0.00    +0.292 HD
ENDBRANCH  18  19
BRANCH  13  22
ATOM     21  C   UNL     1       3.165  -5.721  23.827  0.00  0.00    +0.277 C 
ATOM     22  O   UNL     1       3.710  -5.246  22.604  0.00  0.00    -0.491 OA
ENDBRANCH  13  22
ENDBRANCH   2  15
BRANCH   8  23
ATOM     23  O   UNL     1      10.971   2.730  21.503  0.00  0.00    -0.507 OA
ATOM     24  H   UNL     1      11.396   2.005  21.004  0.00  0.00    +0.292 HD
ENDBRANCH   8  23
BRANCH   6  25
ATOM     25  O   UNL     1       8.535   3.008  25.514  0.00  0.00    -0.506 OA
ATOM     26  H   UNL     1       7.580   3.261  25.469  0.00  0.00    +0.292 HD
ENDBRANCH   6  25
ENDBRANCH   1  12
BRANCH   1  27
ATOM     27  C   UNL     1       6.039  -1.816  26.845  0.00  0.00    +0.340 C 
ATOM     28  O   UNL     1       6.946  -2.921  26.703  0.00  0.00    -0.331 OA
ATOM     29  C   UNL     1       6.391  -4.182  26.339  0.00  0.00    +0.179 C 
ATOM     30  C   UNL     1       5.372  -4.652  27.396  0.00  0.00    +0.177 C 
ATOM     31  C   UNL     1       4.317  -3.553  27.608  0.00  0.00    +0.180 C 
ATOM     32  C   UNL     1       5.003  -2.216  27.915  0.00  0.00    +0.221 C 
BRANCH  31  33
ATOM     33  O   UNL     1       3.428  -3.412  26.506  0.00  0.00    -0.386 OA
ATOM     34  H   UNL     1       2.827  -4.185  26.536  0.00  0.00    +0.210 HD
ENDBRANCH  31  33
BRANCH  30  35
ATOM     35  O   UNL     1       5.975  -4.890  28.675  0.00  0.00    -0.386 OA
ATOM     36  H   UNL     1       6.892  -4.559  28.650  0.00  0.00    +0.210 HD
ENDBRANCH  30  35
BRANCH  32  37
ATOM     37  O   UNL     1       4.088  -1.161  28.268  0.00  0.00    -0.337 OA
BRANCH  37  38
ATOM     38  C   UNL     1       4.672  -0.201  29.162  0.00  0.00    +0.282 C 
ATOM     39  O   UNL     1       3.688   0.556  29.880  0.00  0.00    -0.346 OA
ATOM     40  C   UNL     1       4.235   1.880  30.119  0.00  0.00    +0.202 C 
ATOM     41  C   UNL     1       5.646   1.923  29.520  0.00  0.00    +0.142 C 
ATOM     42  C   UNL     1       5.549   0.845  28.453  0.00  0.00    +0.206 C 
BRANCH  42  43
ATOM     43  O   UNL     1       4.923   1.339  27.256  0.00  0.00    -0.384 OA
ATOM     44  H   UNL     1       4.758   2.294  27.385  0.00  0.00    +0.210 HD
ENDBRANCH  42  43
BRANCH  41  45
ATOM     45  O   UNL     1       6.640   1.515  30.485  0.00  0.00    -0.381 OA
ATOM     46  H   UNL     1       6.621   2.113  31.252  0.00  0.00    +0.210 HD
ENDBRANCH  41  45
BRANCH  41  47
ATOM     47  C   UNL     1       6.049   3.291  28.952  0.00  0.00    +0.195 C 
BRANCH  47  48
ATOM     48  O   UNL     1       7.183   3.236  28.100  0.00  0.00    -0.392 OA
ATOM     49  H   UNL     1       7.847   2.671  28.573  0.00  0.00    +0.210 HD
ENDBRANCH  47  48
ENDBRANCH  41  47
ENDBRANCH  37  38
ENDBRANCH  32  37
BRANCH  29  50
ATOM     50  C   UNL     1       7.575  -5.142  26.061  0.00  0.00    +0.190 C 
BRANCH  50  51
ATOM     51  O   UNL     1       7.918  -6.025  27.125  0.00  0.00    -0.392 OA
ATOM     52  H   UNL     1       8.771  -6.434  26.890  0.00  0.00    +0.210 HD
ENDBRANCH  50  51
ENDBRANCH  29  50
ENDBRANCH   1  27
TORSDOF 17
ENDMDL
MODEL 7
REMARK VINA RESULT:      -6.7      1.635      2.335
REMARK  Name = 
REMARK  18 active torsions:
REMARK  status: ('A' for Active; 'I' for Inactive)
REMARK    1  A    between atoms: C_1  and  O_2
REMARK    2  A    between atoms: O_2  and  C_3
REMARK    3  A    between atoms: C_4  and  O_48
REMARK    4  A    between atoms: C_7  and  C_9
REMARK    5  A    between atoms: C_10  and  O_22
REMARK    6  A    between atoms: C_14  and  O_21
REMARK    7  A    between atoms: C_16  and  O_20
REMARK    8  A    between atoms: O_22  and  C_23
REMARK    9  A    between atoms: C_25  and  O_36
REMARK   10  A    between atoms: C_26  and  O_35
REMARK   11  A    between atoms: C_28  and  O_34
REMARK   12  A    between atoms: C_30  and  C_32
REMARK   13  A    between atoms: C_32  and  O_33
REMARK   14  A    between atoms: O_36  and  C_37
REMARK   15  A    between atoms: C_39  and  O_47
REMARK   16  A    between atoms: C_41  and  C_44
REMARK   17  A    between atoms: C_41  and  O_46
REMARK   18  A    between atoms: C_44  and  O_45
REMARK                            x       y       z     vdW  Elec       q    Type
REMARK                         _______ _______ _______ _____ _____    ______ ____
ROOT
ATOM      1  O   UNL     1       5.938  -0.970  26.838  0.00  0.00    -0.453 OA
ENDROOT
BRANCH   1  12
ATOM      2  C   UNL     1       7.291  -0.519  24.778  0.00  0.00    +0.181 A 
ATOM      3  O   UNL     1       8.012   0.434  23.979  0.00  0.00    -0.451 OA
ATOM      4  C   UNL     1       8.124   1.756  24.352  0.00  0.00    +0.147 A 
ATOM      5  C   UNL     1       7.689   2.189  25.579  0.00  0.00    +0.109 A 
ATOM      6  C   UNL     1       7.820   3.532  25.999  0.00  0.00    +0.135 A 
ATOM      7  C   UNL     1       8.432   4.466  25.188  0.00  0.00    +0.091 A 
ATOM      8  C   UNL     1       8.901   4.040  23.955  0.00  0.00    +0.124 A 
ATOM      9  C   UNL     1       7.195   1.192  26.490  0.00  0.00    +0.238 A 
ATOM     10  O   UNL     1       7.167   1.571  27.653  0.00  0.00    -0.283 OA
ATOM     11  C   UNL     1       8.743   2.704  23.526  0.00  0.00    +0.092 A 
ATOM     12  C   UNL     1       6.784  -0.174  26.004  0.00  0.00    +0.214 A 
BRANCH   2  15
ATOM     13  C   UNL     1       8.060  -4.217  23.701  0.00  0.00    +0.162 A 
ATOM     14  C   UNL     1       8.051  -3.011  24.453  0.00  0.00    +0.061 A 
ATOM     15  C   UNL     1       7.268  -1.893  24.079  0.00  0.00    +0.025 A 
ATOM     16  C   UNL     1       6.466  -2.081  22.918  0.00  0.00    +0.015 A 
ATOM     17  C   UNL     1       6.457  -3.279  22.173  0.00  0.00    +0.050 A 
ATOM     18  C   UNL     1       7.252  -4.335  22.569  0.00  0.00    +0.158 A 
BRANCH  18  19
ATOM     19  O   UNL     1       7.225  -5.488  21.831  0.00  0.00    -0.503 OA
ATOM     20  H   UNL     1       7.332  -5.213  20.900  0.00  0.00    +0.292 HD
ENDBRANCH  18  19
BRANCH  13  22
ATOM     21  C   UNL     1       9.405  -5.413  25.274  0.00  0.00    +0.277 C 
ATOM     22  O   UNL     1       8.732  -5.369  24.024  0.00  0.00    -0.491 OA
ENDBRANCH  13  22
ENDBRANCH   2  15
BRANCH   8  23
ATOM     23  O   UNL     1       9.550   4.927  23.148  0.00  0.00    -0.507 OA
ATOM     24  H   UNL     1       8.954   5.178  22.415  0.00  0.00    +0.292 HD
ENDBRANCH   8  23
BRANCH   6  25
ATOM     25  O   UNL     1       7.384   3.990  27.214  0.00  0.00    -0.506 OA
ATOM     26  H   UNL     1       8.047   4.648  27.539  0.00  0.00    +0.292 HD
ENDBRANCH   6  25
ENDBRANCH   1  12
BRANCH   1  27
ATOM     27  C   UNL     1       4.690  -1.367  26.180  0.00  0.00    +0.340 C 
ATOM     28  O   UNL     1       3.657  -0.371  26.233  0.00  0.00    -0.331 OA
ATOM     29  C   UNL     1       2.959  -0.214  27.466  0.00  0.00    +0.179 C 
ATOM     30  C   UNL     1       2.251  -1.526  27.858  0.00  0.00    +0.177 C 
ATOM     31  C   UNL     1       3.277  -2.672  27.872  0.00  0.00    +0.180 C 
ATOM     32  C   UNL     1       4.036  -2.716  26.541  0.00  0.00    +0.221 C 
BRANCH  31  33
ATOM     33  O   UNL     1       4.189  -2.591  28.960  0.00  0.00    -0.386 OA
ATOM     34  H   UNL     1       5.063  -2.376  28.573  0.00  0.00    +0.210 HD
ENDBRANCH  31  33
BRANCH  30  35
ATOM     35  O   UNL     1       1.231  -1.903  26.923  0.00  0.00    -0.386 OA
ATOM     36  H   UNL     1       1.549  -1.703  26.023  0.00  0.00    +0.210 HD
ENDBRANCH  30  35
BRANCH  32  37
ATOM     37  O   UNL     1       4.918  -3.847  26.411  0.00  0.00    -0.337 OA
BRANCH  37  38
ATOM     38  C   UNL     1       4.690  -4.590  25.204  0.00  0.00    +0.282 C 
ATOM     39  O   UNL     1       3.683  -3.999  24.371  0.00  0.00    -0.346 OA
ATOM     40  C   UNL     1       3.004  -5.072  23.666  0.00  0.00    +0.202 C 
ATOM     41  C   UNL     1       3.652  -6.397  24.087  0.00  0.00    +0.142 C 
ATOM     42  C   UNL     1       4.215  -6.033  25.451  0.00  0.00    +0.206 C 
BRANCH  42  43
ATOM     43  O   UNL     1       3.206  -6.092  26.474  0.00  0.00    -0.384 OA
ATOM     44  H   UNL     1       3.193  -7.006  26.819  0.00  0.00    +0.210 HD
ENDBRANCH  42  43
BRANCH  41  45
ATOM     45  O   UNL     1       4.755  -6.742  23.221  0.00  0.00    -0.381 OA
ATOM     46  H   UNL     1       5.067  -5.949  22.751  0.00  0.00    +0.210 HD
ENDBRANCH  41  45
BRANCH  41  47
ATOM     47  C   UNL     1       2.681  -7.586  24.140  0.00  0.00    +0.195 C 
BRANCH  47  48
ATOM     48  O   UNL     1       3.053  -8.575  25.088  0.00  0.00    -0.392 OA
ATOM     49  H   UNL     1       2.352  -8.550  25.791  0.00  0.00    +0.210 HD
ENDBRANCH  47  48
ENDBRANCH  41  47
ENDBRANCH  37  38
ENDBRANCH  32  37
BRANCH  29  50
ATOM     50  C   UNL     1       2.051   1.032  27.325  0.00  0.00    +0.190 C 
BRANCH  50  51
ATOM     51  O   UNL     1       1.163   1.030  26.211  0.00  0.00    -0.392 OA
ATOM     52  H   UNL     1       0.677   0.186  26.237  0.00  0.00    +0.210 HD
ENDBRANCH  50  51
ENDBRANCH  29  50
ENDBRANCH   1  27
TORSDOF 17
ENDMDL
MODEL 8
REMARK VINA RESULT:      -6.5      2.171      6.433
REMARK  Name = 
REMARK  18 active torsions:
REMARK  status: ('A' for Active; 'I' for Inactive)
REMARK    1  A    between atoms: C_1  and  O_2
REMARK    2  A    between atoms: O_2  and  C_3
REMARK    3  A    between atoms: C_4  and  O_48
REMARK    4  A    between atoms: C_7  and  C_9
REMARK    5  A    between atoms: C_10  and  O_22
REMARK    6  A    between atoms: C_14  and  O_21
REMARK    7  A    between atoms: C_16  and  O_20
REMARK    8  A    between atoms: O_22  and  C_23
REMARK    9  A    between atoms: C_25  and  O_36
REMARK   10  A    between atoms: C_26  and  O_35
REMARK   11  A    between atoms: C_28  and  O_34
REMARK   12  A    between atoms: C_30  and  C_32
REMARK   13  A    between atoms: C_32  and  O_33
REMARK   14  A    between atoms: O_36  and  C_37
REMARK   15  A    between atoms: C_39  and  O_47
REMARK   16  A    between atoms: C_41  and  C_44
REMARK   17  A    between atoms: C_41  and  O_46
REMARK   18  A    between atoms: C_44  and  O_45
REMARK                            x       y       z     vdW  Elec       q    Type
REMARK                         _______ _______ _______ _____ _____    ______ ____
ROOT
ATOM      1  O   UNL     1       5.311  -1.565  24.666  0.00  0.00    -0.453 OA
ENDROOT
BRANCH   1  12
ATOM      2  C   UNL     1       5.938   0.776  25.299  0.00  0.00    +0.181 A 
ATOM      3  O   UNL     1       5.669   1.932  26.112  0.00  0.00    -0.451 OA
ATOM      4  C   UNL     1       4.635   1.953  27.023  0.00  0.00    +0.147 A 
ATOM      5  C   UNL     1       3.915   0.822  27.309  0.00  0.00    +0.109 A 
ATOM      6  C   UNL     1       2.870   0.809  28.261  0.00  0.00    +0.135 A 
ATOM      7  C   UNL     1       2.555   1.948  28.975  0.00  0.00    +0.091 A 
ATOM      8  C   UNL     1       3.290   3.094  28.717  0.00  0.00    +0.124 A 
ATOM      9  C   UNL     1       4.340  -0.403  26.686  0.00  0.00    +0.238 A 
ATOM     10  O   UNL     1       3.907  -1.403  27.243  0.00  0.00    -0.283 OA
ATOM     11  C   UNL     1       4.314   3.111  27.744  0.00  0.00    +0.092 A 
ATOM     12  C   UNL     1       5.245  -0.393  25.482  0.00  0.00    +0.214 A 
BRANCH   2  15
ATOM     13  C   UNL     1       9.447   1.645  23.764  0.00  0.00    +0.162 A 
ATOM     14  C   UNL     1       8.445   1.277  24.702  0.00  0.00    +0.061 A 
ATOM     15  C   UNL     1       7.097   1.067  24.325  0.00  0.00    +0.025 A 
ATOM     16  C   UNL     1       6.831   1.215  22.935  0.00  0.00    +0.015 A 
ATOM     17  C   UNL     1       7.821   1.565  21.993  0.00  0.00    +0.050 A 
ATOM     18  C   UNL     1       9.119   1.777  22.414  0.00  0.00    +0.158 A 
BRANCH  18  19
ATOM     19  O   UNL     1      10.062   2.114  21.482  0.00  0.00    -0.503 OA
ATOM     20  H   UNL     1      10.138   1.344  20.885  0.00  0.00    +0.292 HD
ENDBRANCH  18  19
BRANCH  13  22
ATOM     21  C   UNL     1      11.483   0.700  24.586  0.00  0.00    +0.277 C 
ATOM     22  O   UNL     1      10.784   1.803  24.026  0.00  0.00    -0.491 OA
ENDBRANCH  13  22
ENDBRANCH   2  15
BRANCH   8  23
ATOM     23  O   UNL     1       3.034   4.224  29.435  0.00  0.00    -0.507 OA
ATOM     24  H   UNL     1       2.180   4.116  29.898  0.00  0.00    +0.292 HD
ENDBRANCH   8  23
BRANCH   6  25
ATOM     25  O   UNL     1       2.130  -0.305  28.556  0.00  0.00    -0.506 OA
ATOM     26  H   UNL     1       1.636  -0.120  29.393  0.00  0.00    +0.292 HD
ENDBRANCH   6  25
ENDBRANCH   1  12
BRANCH   1  27
ATOM     27  C   UNL     1       6.246  -2.570  25.176  0.00  0.00    +0.340 C 
ATOM     28  O   UNL     1       7.609  -2.361  24.775  0.00  0.00    -0.331 OA
ATOM     29  C   UNL     1       7.960  -2.709  23.438  0.00  0.00    +0.179 C 
ATOM     30  C   UNL     1       7.710  -4.210  23.185  0.00  0.00    +0.177 C 
ATOM     31  C   UNL     1       6.255  -4.549  23.549  0.00  0.00    +0.180 C 
ATOM     32  C   UNL     1       5.940  -4.068  24.970  0.00  0.00    +0.221 C 
BRANCH  31  33
ATOM     33  O   UNL     1       5.310  -4.020  22.626  0.00  0.00    -0.386 OA
ATOM     34  H   UNL     1       4.435  -4.365  22.898  0.00  0.00    +0.210 HD
ENDBRANCH  31  33
BRANCH  30  35
ATOM     35  O   UNL     1       8.540  -5.051  23.997  0.00  0.00    -0.386 OA
ATOM     36  H   UNL     1       9.336  -4.548  24.250  0.00  0.00    +0.210 HD
ENDBRANCH  30  35
BRANCH  32  37
ATOM     37  O   UNL     1       4.642  -4.471  25.446  0.00  0.00    -0.337 OA
BRANCH  37  38
ATOM     38  C   UNL     1       4.707  -5.581  26.354  0.00  0.00    +0.282 C 
ATOM     39  O   UNL     1       3.416  -6.128  26.655  0.00  0.00    -0.346 OA
ATOM     40  C   UNL     1       3.456  -6.639  28.015  0.00  0.00    +0.202 C 
ATOM     41  C   UNL     1       4.867  -6.399  28.566  0.00  0.00    +0.142 C 
ATOM     42  C   UNL     1       5.324  -5.224  27.718  0.00  0.00    +0.206 C 
BRANCH  42  43
ATOM     43  O   UNL     1       4.812  -3.977  28.221  0.00  0.00    -0.384 OA
ATOM     44  H   UNL     1       4.544  -4.125  29.150  0.00  0.00    +0.210 HD
ENDBRANCH  42  43
BRANCH  41  45
ATOM     45  O   UNL     1       5.736  -7.519  28.292  0.00  0.00    -0.381 OA
ATOM     46  H   UNL     1       5.992  -7.517  27.353  0.00  0.00    +0.210 HD
ENDBRANCH  41  45
BRANCH  41  47
ATOM     47  C   UNL     1       4.913  -6.102  30.073  0.00  0.00    +0.195 C 
BRANCH  47  48
ATOM     48  O   UNL     1       6.038  -5.328  30.460  0.00  0.00    -0.392 OA
ATOM     49  H   UNL     1       5.735  -4.783  31.233  0.00  0.00    +0.210 HD
ENDBRANCH  47  48
ENDBRANCH  41  47
ENDBRANCH  37  38
ENDBRANCH  32  37
BRANCH  29  50
ATOM     50  C   UNL     1       9.408  -2.212  23.198  0.00  0.00    +0.190 C 
BRANCH  50  51
ATOM     51  O   UNL     1       9.740  -1.900  21.848  0.00  0.00    -0.392 OA
ATOM     52  H   UNL     1       9.413  -2.634  21.299  0.00  0.00    +0.210 HD
ENDBRANCH  50  51
ENDBRANCH  29  50
ENDBRANCH   1  27
TORSDOF 17
ENDMDL
MODEL 9
REMARK VINA RESULT:      -6.5      1.446      2.267
REMARK  Name = 
REMARK  18 active torsions:
REMARK  status: ('A' for Active; 'I' for Inactive)
REMARK    1  A    between atoms: C_1  and  O_2
REMARK    2  A    between atoms: O_2  and  C_3
REMARK    3  A    between atoms: C_4  and  O_48
REMARK    4  A    between atoms: C_7  and  C_9
REMARK    5  A    between atoms: C_10  and  O_22
REMARK    6  A    between atoms: C_14  and  O_21
REMARK    7  A    between atoms: C_16  and  O_20
REMARK    8  A    between atoms: O_22  and  C_23
REMARK    9  A    between atoms: C_25  and  O_36
REMARK   10  A    between atoms: C_26  and  O_35
REMARK   11  A    between atoms: C_28  and  O_34
REMARK   12  A    between atoms: C_30  and  C_32
REMARK   13  A    between atoms: C_32  and  O_33
REMARK   14  A    between atoms: O_36  and  C_37
REMARK   15  A    between atoms: C_39  and  O_47
REMARK   16  A    between atoms: C_41  and  C_44
REMARK   17  A    between atoms: C_41  and  O_46
REMARK   18  A    between atoms: C_44  and  O_45
REMARK                            x       y       z     vdW  Elec       q    Type
REMARK                         _______ _______ _______ _____ _____    ______ ____
ROOT
ATOM      1  O   UNL     1       6.186  -0.015  26.956  0.00  0.00    -0.453 OA
ENDROOT
BRANCH   1  12
ATOM      2  C   UNL     1       7.923   0.213  25.165  0.00  0.00    +0.181 A 
ATOM      3  O   UNL     1       8.752   1.084  24.376  0.00  0.00    -0.451 OA
ATOM      4  C   UNL     1       8.720   2.453  24.531  0.00  0.00    +0.147 A 
ATOM      5  C   UNL     1       8.014   3.037  25.551  0.00  0.00    +0.109 A 
ATOM      6  C   UNL     1       7.990   4.436  25.751  0.00  0.00    +0.135 A 
ATOM      7  C   UNL     1       8.716   5.277  24.931  0.00  0.00    +0.091 A 
ATOM      8  C   UNL     1       9.455   4.701  23.911  0.00  0.00    +0.124 A 
ATOM      9  C   UNL     1       7.385   2.160  26.502  0.00  0.00    +0.238 A 
ATOM     10  O   UNL     1       7.093   2.716  27.552  0.00  0.00    -0.283 OA
ATOM     11  C   UNL     1       9.454   3.305  23.696  0.00  0.00    +0.092 A 
ATOM     12  C   UNL     1       7.152   0.706  26.186  0.00  0.00    +0.214 A 
BRANCH   2  15
ATOM     13  C   UNL     1       7.702  -3.207  23.248  0.00  0.00    +0.162 A 
ATOM     14  C   UNL     1       7.576  -1.823  23.545  0.00  0.00    +0.061 A 
ATOM     15  C   UNL     1       8.114  -1.251  24.723  0.00  0.00    +0.025 A 
ATOM     16  C   UNL     1       8.820  -2.157  25.564  0.00  0.00    +0.015 A 
ATOM     17  C   UNL     1       8.962  -3.529  25.271  0.00  0.00    +0.050 A 
ATOM     18  C   UNL     1       8.404  -4.043  24.117  0.00  0.00    +0.158 A 
BRANCH  18  19
ATOM     19  O   UNL     1       8.558  -5.377  23.854  0.00  0.00    -0.503 OA
ATOM     20  H   UNL     1       8.546  -5.826  24.721  0.00  0.00    +0.292 HD
ENDBRANCH  18  19
BRANCH  13  22
ATOM     21  C   UNL     1       6.034  -3.415  21.548  0.00  0.00    +0.277 C 
ATOM     22  O   UNL     1       7.273  -3.833  22.105  0.00  0.00    -0.491 OA
ENDBRANCH  13  22
ENDBRANCH   2  15
BRANCH   8  23
ATOM     23  O   UNL     1      10.218   5.498  23.110  0.00  0.00    -0.507 OA
ATOM     24  H   UNL     1      11.156   5.248  23.220  0.00  0.00    +0.292 HD
ENDBRANCH   8  23
BRANCH   6  25
ATOM     25  O   UNL     1       7.284   5.045  26.756  0.00  0.00    -0.506 OA
ATOM     26  H   UNL     1       7.903   5.657  27.225  0.00  0.00    +0.292 HD
ENDBRANCH   6  25
ENDBRANCH   1  12
BRANCH   1  27
ATOM     27  C   UNL     1       5.036  -0.460  26.166  0.00  0.00    +0.340 C 
ATOM     28  O   UNL     1       4.016   0.536  26.000  0.00  0.00    -0.331 OA
ATOM     29  C   UNL     1       3.158   0.788  27.110  0.00  0.00    +0.179 C 
ATOM     30  C   UNL     1       2.388  -0.490  27.501  0.00  0.00    +0.177 C 
ATOM     31  C   UNL     1       3.391  -1.631  27.743  0.00  0.00    +0.180 C 
ATOM     32  C   UNL     1       4.325  -1.778  26.535  0.00  0.00    +0.221 C 
BRANCH  31  33
ATOM     33  O   UNL     1       4.147  -1.467  28.937  0.00  0.00    -0.386 OA
ATOM     34  H   UNL     1       4.664  -2.290  29.052  0.00  0.00    +0.210 HD
ENDBRANCH  31  33
BRANCH  30  35
ATOM     35  O   UNL     1       1.503  -0.937  26.466  0.00  0.00    -0.386 OA
ATOM     36  H   UNL     1       1.962  -0.858  25.610  0.00  0.00    +0.210 HD
ENDBRANCH  30  35
BRANCH  32  37
ATOM     37  O   UNL     1       5.203  -2.916  26.615  0.00  0.00    -0.337 OA
BRANCH  37  38
ATOM     38  C   UNL     1       5.115  -3.764  25.460  0.00  0.00    +0.282 C 
ATOM     39  O   UNL     1       4.074  -3.365  24.558  0.00  0.00    -0.346 OA
ATOM     40  C   UNL     1       3.561  -4.562  23.915  0.00  0.00    +0.202 C 
ATOM     41  C   UNL     1       4.353  -5.762  24.451  0.00  0.00    +0.142 C 
ATOM     42  C   UNL     1       4.815  -5.235  25.800  0.00  0.00    +0.206 C 
BRANCH  42  43
ATOM     43  O   UNL     1       3.783  -5.350  26.795  0.00  0.00    -0.384 OA
ATOM     44  H   UNL     1       4.164  -5.828  27.557  0.00  0.00    +0.210 HD
ENDBRANCH  42  43
BRANCH  41  45
ATOM     45  O   UNL     1       5.521  -6.024  23.644  0.00  0.00    -0.381 OA
ATOM     46  H   UNL     1       5.251  -6.339  22.764  0.00  0.00    +0.210 HD
ENDBRANCH  41  45
BRANCH  41  47
ATOM     47  C   UNL     1       3.536  -7.057  24.564  0.00  0.00    +0.195 C 
BRANCH  47  48
ATOM     48  O   UNL     1       3.952  -7.894  25.632  0.00  0.00    -0.392 OA
ATOM     49  H   UNL     1       4.845  -7.558  25.905  0.00  0.00    +0.210 HD
ENDBRANCH  47  48
ENDBRANCH  41  47
ENDBRANCH  37  38
ENDBRANCH  32  37
BRANCH  29  50
ATOM     50  C   UNL     1       2.291   2.020  26.750  0.00  0.00    +0.190 C 
BRANCH  50  51
ATOM     51  O   UNL     1       1.228   1.784  25.831  0.00  0.00    -0.392 OA
ATOM     52  H   UNL     1       0.503   1.374  26.336  0.00  0.00    +0.210 HD
ENDBRANCH  50  51
ENDBRANCH  29  50
ENDBRANCH   1  27
TORSDOF 17
ENDMDL
