MODEL 1
REMARK VINA RESULT:      -6.8      0.000      0.000
REMARK  Name = 
REMARK  23 active torsions:
REMARK  status: ('A' for Active; 'I' for Inactive)
REMARK    1  A    between atoms: C_1  and  C_2
REMARK    2  A    between atoms: C_4  and  O_69
REMARK    3  A    between atoms: C_6  and  O_68
REMARK    4  A    between atoms: C_8  and  O_67
REMARK    5  A    between atoms: C_10  and  O_13
REMARK    6  A    between atoms: O_13  and  C_14
REMARK    7  A    between atoms: C_14  and  C_15
REMARK    8  A    between atoms: C_17  and  O_66
REMARK    9  A    between atoms: C_19  and  O_65
REMARK   10  A    between atoms: C_21  and  O_64
REMARK   11  A    between atoms: C_23  and  O_26
REMARK   12  A    between atoms: O_26  and  C_27
REMARK   13  A    between atoms: C_28  and  C_56
REMARK   14  A    between atoms: C_32  and  O_39
REMARK   15  A    between atoms: C_34  and  O_38
REMARK   16  A    between atoms: O_39  and  C_40
REMARK   17  A    between atoms: C_42  and  O_55
REMARK   18  A    between atoms: C_44  and  O_54
REMARK   19  A    between atoms: C_46  and  O_53
REMARK   20  A    between atoms: C_48  and  C_51
REMARK   21  A    between atoms: C_51  and  O_52
REMARK   22  A    between atoms: C_58  and  O_63
REMARK   23  A    between atoms: C_59  and  O_62
REMARK                            x       y       z     vdW  Elec       q    Type
REMARK                         _______ _______ _______ _____ _____    ______ ____
ROOT
ATOM      1  C   UNL     1       4.827   3.529  26.575  0.00  0.00    +0.214 A 
ATOM      2  C   UNL     1       5.615   2.657  27.545  0.00  0.00    +0.238 A 
ATOM      3  O   UNL     1       6.064   3.038  28.624  0.00  0.00    -0.283 OA
ATOM      4  C   UNL     1       5.847   1.258  27.198  0.00  0.00    +0.109 A 
ATOM      5  C   UNL     1       5.003   0.718  26.259  0.00  0.00    +0.147 A 
ATOM      6  C   UNL     1       5.088  -0.630  25.931  0.00  0.00    +0.093 A 
ATOM      7  C   UNL     1       6.095  -1.429  26.486  0.00  0.00    +0.131 A 
ATOM      8  C   UNL     1       6.948  -0.887  27.454  0.00  0.00    +0.092 A 
ATOM      9  O   UNL     1       4.066   1.457  25.609  0.00  0.00    -0.451 OA
ATOM     10  C   UNL     1       6.821   0.454  27.807  0.00  0.00    +0.135 A 
ATOM     11  C   UNL     1       4.117   2.855  25.628  0.00  0.00    +0.181 A 
ENDROOT
BRANCH  11  12
ATOM     12  C   UNL     1       3.227   3.392  24.529  0.00  0.00    +0.025 A 
ATOM     13  C   UNL     1       1.920   3.845  24.880  0.00  0.00    +0.015 A 
ATOM     14  C   UNL     1       1.044   4.437  23.967  0.00  0.00    +0.050 A 
ATOM     15  C   UNL     1       1.457   4.577  22.654  0.00  0.00    +0.158 A 
ATOM     16  C   UNL     1       2.678   4.061  22.250  0.00  0.00    +0.159 A 
ATOM     17  C   UNL     1       3.568   3.477  23.170  0.00  0.00    +0.060 A 
BRANCH  16  18
ATOM     18  O   UNL     1       2.960   4.136  20.916  0.00  0.00    -0.503 OA
ATOM     19  H   UNL     1       2.462   4.888  20.555  0.00  0.00    +0.292 HD
ENDBRANCH  16  18
BRANCH  15  20
ATOM     20  O   UNL     1       0.631   5.213  21.775  0.00  0.00    -0.503 OA
ATOM     21  H   UNL     1      -0.245   4.806  21.929  0.00  0.00    +0.292 HD
ENDBRANCH  15  20
ENDBRANCH  11  12
BRANCH  10  22
ATOM     22  O   UNL     1       7.700   0.977  28.711  0.00  0.00    -0.506 OA
ATOM     23  H   UNL     1       8.601   0.946  28.356  0.00  0.00    +0.292 HD
ENDBRANCH  10  22
BRANCH   7  24
ATOM     24  O   UNL     1       6.323  -2.735  26.110  0.00  0.00    -0.461 OA
BRANCH  24  25
ATOM     25  C   UNL     1       7.716  -3.080  26.104  0.00  0.00    +0.339 C 
ATOM     26  O   UNL     1       8.294  -2.978  24.797  0.00  0.00    -0.331 OA
ATOM     27  C   UNL     1       7.993  -4.033  23.870  0.00  0.00    +0.179 C 
ATOM     28  C   UNL     1       8.296  -5.426  24.444  0.00  0.00    +0.177 C 
ATOM     29  C   UNL     1       7.724  -5.646  25.852  0.00  0.00    +0.180 C 
ATOM     30  C   UNL     1       7.994  -4.443  26.767  0.00  0.00    +0.214 C 
BRANCH  30  31
ATOM     31  O   UNL     1       9.388  -4.477  27.146  0.00  0.00    -0.383 OA
ATOM     32  H   UNL     1       9.687  -5.406  27.035  0.00  0.00    +0.210 HD
ENDBRANCH  30  31
BRANCH  29  33
ATOM     33  O   UNL     1       6.362  -6.061  25.838  0.00  0.00    -0.386 OA
ATOM     34  H   UNL     1       6.264  -6.946  25.456  0.00  0.00    +0.210 HD
ENDBRANCH  29  33
BRANCH  28  35
ATOM     35  O   UNL     1       9.731  -5.538  24.525  0.00  0.00    -0.386 OA
ATOM     36  H   UNL     1      10.074  -5.591  23.614  0.00  0.00    +0.210 HD
ENDBRANCH  28  35
BRANCH  27  37
ATOM     37  C   UNL     1       6.589  -3.878  23.271  0.00  0.00    +0.190 C 
BRANCH  37  38
ATOM     38  O   UNL     1       6.058  -5.159  22.936  0.00  0.00    -0.392 OA
ATOM     39  H   UNL     1       5.108  -5.132  23.162  0.00  0.00    +0.210 HD
ENDBRANCH  37  38
ENDBRANCH  27  37
ENDBRANCH  24  25
ENDBRANCH   7  24
BRANCH   1  40
ATOM     40  O   UNL     1       4.830   4.935  26.686  0.00  0.00    -0.453 OA
BRANCH  40  43
ATOM     41  C   UNL     1       7.458   5.476  24.263  0.00  0.00    +0.179 C 
ATOM     42  O   UNL     1       6.509   4.765  25.067  0.00  0.00    -0.331 OA
ATOM     43  C   UNL     1       6.004   5.569  26.135  0.00  0.00    +0.340 C 
ATOM     44  C   UNL     1       7.148   5.853  27.138  0.00  0.00    +0.214 C 
ATOM     45  C   UNL     1       8.304   6.520  26.341  0.00  0.00    +0.180 C 
ATOM     46  C   UNL     1       8.714   5.704  25.105  0.00  0.00    +0.177 C 
BRANCH  46  47
ATOM     47  O   UNL     1       9.715   6.439  24.390  0.00  0.00    -0.386 OA
ATOM     48  H   UNL     1      10.494   6.486  24.977  0.00  0.00    +0.210 HD
ENDBRANCH  46  47
BRANCH  45  49
ATOM     49  O   UNL     1       9.446   6.746  27.179  0.00  0.00    -0.386 OA
ATOM     50  H   UNL     1       9.592   7.715  27.147  0.00  0.00    +0.210 HD
ENDBRANCH  45  49
BRANCH  44  51
ATOM     51  O   UNL     1       6.688   6.754  28.165  0.00  0.00    -0.383 OA
ATOM     52  H   UNL     1       5.719   6.826  28.071  0.00  0.00    +0.210 HD
ENDBRANCH  44  51
BRANCH  41  53
ATOM     53  C   UNL     1       7.695   4.678  22.982  0.00  0.00    +0.197 C 
BRANCH  53  54
ATOM     54  O   UNL     1       8.931   3.981  23.090  0.00  0.00    -0.346 OA
BRANCH  54  58
ATOM     55  C   UNL     1       7.092   0.033  23.128  0.00  0.00    +0.041 C 
ATOM     56  C   UNL     1       8.075   0.591  24.151  0.00  0.00    +0.149 C 
ATOM     57  O   UNL     1       8.154   2.021  24.106  0.00  0.00    -0.343 OA
ATOM     58  C   UNL     1       8.791   2.565  22.953  0.00  0.00    +0.282 C 
ATOM     59  C   UNL     1      10.219   2.015  22.739  0.00  0.00    +0.201 C 
ATOM     60  C   UNL     1      10.277   0.489  22.875  0.00  0.00    +0.179 C 
ATOM     61  C   UNL     1       9.492   0.004  24.098  0.00  0.00    +0.174 C 
BRANCH  61  62
ATOM     62  O   UNL     1      10.194   0.421  25.281  0.00  0.00    -0.387 OA
ATOM     63  H   UNL     1      11.077  -0.002  25.269  0.00  0.00    +0.210 HD
ENDBRANCH  61  62
BRANCH  60  64
ATOM     64  O   UNL     1       9.834  -0.149  21.668  0.00  0.00    -0.386 OA
ATOM     65  H   UNL     1       9.918   0.469  20.922  0.00  0.00    +0.210 HD
ENDBRANCH  60  64
BRANCH  59  66
ATOM     66  O   UNL     1      10.697   2.409  21.437  0.00  0.00    -0.384 OA
ATOM     67  H   UNL     1      11.472   2.986  21.565  0.00  0.00    +0.210 HD
ENDBRANCH  59  66
ENDBRANCH  54  58
ENDBRANCH  53  54
ENDBRANCH  41  53
ENDBRANCH  40  43
ENDBRANCH   1  40
TORSDOF 22
ENDMDL
MODEL 2
REMARK VINA RESULT:      -6.7      1.407      2.432
REMARK  Name = 
REMARK  23 active torsions:
REMARK  status: ('A' for Active; 'I' for Inactive)
REMARK    1  A    between atoms: C_1  and  C_2
REMARK    2  A    between atoms: C_4  and  O_69
REMARK    3  A    between atoms: C_6  and  O_68
REMARK    4  A    between atoms: C_8  and  O_67
REMARK    5  A    between atoms: C_10  and  O_13
REMARK    6  A    between atoms: O_13  and  C_14
REMARK    7  A    between atoms: C_14  and  C_15
REMARK    8  A    between atoms: C_17  and  O_66
REMARK    9  A    between atoms: C_19  and  O_65
REMARK   10  A    between atoms: C_21  and  O_64
REMARK   11  A    between atoms: C_23  and  O_26
REMARK   12  A    between atoms: O_26  and  C_27
REMARK   13  A    between atoms: C_28  and  C_56
REMARK   14  A    between atoms: C_32  and  O_39
REMARK   15  A    between atoms: C_34  and  O_38
REMARK   16  A    between atoms: O_39  and  C_40
REMARK   17  A    between atoms: C_42  and  O_55
REMARK   18  A    between atoms: C_44  and  O_54
REMARK   19  A    between atoms: C_46  and  O_53
REMARK   20  A    between atoms: C_48  and  C_51
REMARK   21  A    between atoms: C_51  and  O_52
REMARK   22  A    between atoms: C_58  and  O_63
REMARK   23  A    between atoms: C_59  and  O_62
REMARK                            x       y       z     vdW  Elec       q    Type
REMARK                         _______ _______ _______ _____ _____    ______ ____
ROOT
ATOM      1  C   UNL     1       5.452   3.210  26.285  0.00  0.00    +0.214 A 
ATOM      2  C   UNL     1       6.245   2.255  27.169  0.00  0.00    +0.238 A 
ATOM      3  O   UNL     1       6.876   2.587  28.170  0.00  0.00    -0.283 OA
ATOM      4  C   UNL     1       6.253   0.835  26.833  0.00  0.00    +0.109 A 
ATOM      5  C   UNL     1       5.231   0.397  26.026  0.00  0.00    +0.147 A 
ATOM      6  C   UNL     1       5.102  -0.955  25.726  0.00  0.00    +0.093 A 
ATOM      7  C   UNL     1       6.065  -1.869  26.168  0.00  0.00    +0.131 A 
ATOM      8  C   UNL     1       7.100  -1.431  27.002  0.00  0.00    +0.092 A 
ATOM      9  O   UNL     1       4.317   1.243  25.483  0.00  0.00    -0.451 OA
ATOM     10  C   UNL     1       7.190  -0.081  27.332  0.00  0.00    +0.135 A 
ATOM     11  C   UNL     1       4.544   2.623  25.457  0.00  0.00    +0.181 A 
ENDROOT
BRANCH  11  12
ATOM     12  C   UNL     1       3.592   3.257  24.468  0.00  0.00    +0.025 A 
ATOM     13  C   UNL     1       2.393   3.847  24.969  0.00  0.00    +0.015 A 
ATOM     14  C   UNL     1       1.482   4.535  24.162  0.00  0.00    +0.050 A 
ATOM     15  C   UNL     1       1.747   4.634  22.808  0.00  0.00    +0.158 A 
ATOM     16  C   UNL     1       2.847   3.990  22.265  0.00  0.00    +0.159 A 
ATOM     17  C   UNL     1       3.773   3.310  23.077  0.00  0.00    +0.060 A 
BRANCH  16  18
ATOM     18  O   UNL     1       2.973   4.039  20.906  0.00  0.00    -0.503 OA
ATOM     19  H   UNL     1       3.918   4.150  20.706  0.00  0.00    +0.292 HD
ENDBRANCH  16  18
BRANCH  15  20
ATOM     20  O   UNL     1       0.894   5.359  22.029  0.00  0.00    -0.503 OA
ATOM     21  H   UNL     1       0.171   4.737  21.818  0.00  0.00    +0.292 HD
ENDBRANCH  15  20
ENDBRANCH  11  12
BRANCH  10  22
ATOM     22  O   UNL     1       8.238   0.335  28.101  0.00  0.00    -0.506 OA
ATOM     23  H   UNL     1       8.369   1.290  27.997  0.00  0.00    +0.292 HD
ENDBRANCH  10  22
BRANCH   7  24
ATOM     24  O   UNL     1       6.076  -3.198  25.802  0.00  0.00    -0.461 OA
BRANCH  24  25
ATOM     25  C   UNL     1       5.162  -3.492  24.735  0.00  0.00    +0.339 C 
ATOM     26  O   UNL     1       4.234  -4.526  25.084  0.00  0.00    -0.331 OA
ATOM     27  C   UNL     1       4.731  -5.874  25.076  0.00  0.00    +0.179 C 
ATOM     28  C   UNL     1       5.415  -6.242  23.750  0.00  0.00    +0.177 C 
ATOM     29  C   UNL     1       6.433  -5.195  23.275  0.00  0.00    +0.180 C 
ATOM     30  C   UNL     1       5.879  -3.769  23.399  0.00  0.00    +0.214 C 
BRANCH  30  31
ATOM     31  O   UNL     1       4.924  -3.569  22.333  0.00  0.00    -0.383 OA
ATOM     32  H   UNL     1       4.573  -2.657  22.437  0.00  0.00    +0.210 HD
ENDBRANCH  30  31
BRANCH  29  33
ATOM     33  O   UNL     1       7.718  -5.364  23.866  0.00  0.00    -0.386 OA
ATOM     34  H   UNL     1       7.699  -5.173  24.815  0.00  0.00    +0.210 HD
ENDBRANCH  29  33
BRANCH  28  35
ATOM     35  O   UNL     1       4.373  -6.331  22.757  0.00  0.00    -0.386 OA
ATOM     36  H   UNL     1       4.455  -5.551  22.176  0.00  0.00    +0.210 HD
ENDBRANCH  28  35
BRANCH  27  37
ATOM     37  C   UNL     1       5.559  -6.181  26.331  0.00  0.00    +0.190 C 
BRANCH  37  38
ATOM     38  O   UNL     1       4.971  -7.262  27.052  0.00  0.00    -0.392 OA
ATOM     39  H   UNL     1       4.677  -6.896  27.908  0.00  0.00    +0.210 HD
ENDBRANCH  37  38
ENDBRANCH  27  37
ENDBRANCH  24  25
ENDBRANCH   7  24
BRANCH   1  40
ATOM     40  O   UNL     1       5.645   4.606  26.356  0.00  0.00    -0.453 OA
BRANCH  40  43
ATOM     41  C   UNL     1       8.071   4.503  23.678  0.00  0.00    +0.179 C 
ATOM     42  O   UNL     1       7.222   4.027  24.730  0.00  0.00    -0.331 OA
ATOM     43  C   UNL     1       6.740   5.092  25.551  0.00  0.00    +0.340 C 
ATOM     44  C   UNL     1       7.927   5.707  26.330  0.00  0.00    +0.214 C 
ATOM     45  C   UNL     1       8.985   6.151  25.282  0.00  0.00    +0.180 C 
ATOM     46  C   UNL     1       9.364   5.021  24.312  0.00  0.00    +0.177 C 
BRANCH  46  47
ATOM     47  O   UNL     1      10.269   5.548  23.333  0.00  0.00    -0.386 OA
ATOM     48  H   UNL     1       9.772   6.225  22.836  0.00  0.00    +0.210 HD
ENDBRANCH  46  47
BRANCH  45  49
ATOM     49  O   UNL     1      10.163   6.661  25.921  0.00  0.00    -0.386 OA
ATOM     50  H   UNL     1      10.243   7.584  25.599  0.00  0.00    +0.210 HD
ENDBRANCH  45  49
BRANCH  44  51
ATOM     51  O   UNL     1       7.481   6.855  27.079  0.00  0.00    -0.383 OA
ATOM     52  H   UNL     1       7.922   7.637  26.697  0.00  0.00    +0.210 HD
ENDBRANCH  44  51
BRANCH  41  53
ATOM     53  C   UNL     1       8.273   3.369  22.674  0.00  0.00    +0.197 C 
BRANCH  53  54
ATOM     54  O   UNL     1       9.581   2.833  22.834  0.00  0.00    -0.346 OA
BRANCH  54  58
ATOM     55  C   UNL     1      10.167  -1.267  21.487  0.00  0.00    +0.041 C 
ATOM     56  C   UNL     1       8.837  -0.538  21.638  0.00  0.00    +0.149 C 
ATOM     57  O   UNL     1       8.997   0.885  21.676  0.00  0.00    -0.343 OA
ATOM     58  C   UNL     1       9.604   1.403  22.857  0.00  0.00    +0.282 C 
ATOM     59  C   UNL     1       8.862   0.987  24.147  0.00  0.00    +0.201 C 
ATOM     60  C   UNL     1       8.536  -0.511  24.167  0.00  0.00    +0.179 C 
ATOM     61  C   UNL     1       7.969  -0.981  22.824  0.00  0.00    +0.174 C 
BRANCH  61  62
ATOM     62  O   UNL     1       6.660  -0.409  22.659  0.00  0.00    -0.387 OA
ATOM     63  H   UNL     1       6.077  -1.100  22.284  0.00  0.00    +0.210 HD
ENDBRANCH  61  62
BRANCH  60  64
ATOM     64  O   UNL     1       9.683  -1.279  24.561  0.00  0.00    -0.386 OA
ATOM     65  H   UNL     1       9.641  -2.162  24.154  0.00  0.00    +0.210 HD
ENDBRANCH  60  64
BRANCH  59  66
ATOM     66  O   UNL     1       9.663   1.329  25.295  0.00  0.00    -0.384 OA
ATOM     67  H   UNL     1      10.331   1.980  25.011  0.00  0.00    +0.210 HD
ENDBRANCH  59  66
ENDBRANCH  54  58
ENDBRANCH  53  54
ENDBRANCH  41  53
ENDBRANCH  40  43
ENDBRANCH   1  40
TORSDOF 22
ENDMDL
MODEL 3
REMARK VINA RESULT:      -6.7      1.867      2.720
REMARK  Name = 
REMARK  23 active torsions:
REMARK  status: ('A' for Active; 'I' for Inactive)
REMARK    1  A    between atoms: C_1  and  C_2
REMARK    2  A    between atoms: C_4  and  O_69
REMARK    3  A    between atoms: C_6  and  O_68
REMARK    4  A    between atoms: C_8  and  O_67
REMARK    5  A    between atoms: C_10  and  O_13
REMARK    6  A    between atoms: O_13  and  C_14
REMARK    7  A    between atoms: C_14  and  C_15
REMARK    8  A    between atoms: C_17  and  O_66
REMARK    9  A    between atoms: C_19  and  O_65
REMARK   10  A    between atoms: C_21  and  O_64
REMARK   11  A    between atoms: C_23  and  O_26
REMARK   12  A    between atoms: O_26  and  C_27
REMARK   13  A    between atoms: C_28  and  C_56
REMARK   14  A    between atoms: C_32  and  O_39
REMARK   15  A    between atoms: C_34  and  O_38
REMARK   16  A    between atoms: O_39  and  C_40
REMARK   17  A    between atoms: C_42  and  O_55
REMARK   18  A    between atoms: C_44  and  O_54
REMARK   19  A    between atoms: C_46  and  O_53
REMARK   20  A    between atoms: C_48  and  C_51
REMARK   21  A    between atoms: C_51  and  O_52
REMARK   22  A    between atoms: C_58  and  O_63
REMARK   23  A    between atoms: C_59  and  O_62
REMARK                            x       y       z     vdW  Elec       q    Type
REMARK                         _______ _______ _______ _____ _____    ______ ____
ROOT
ATOM      1  C   UNL     1       5.721   3.064  25.992  0.00  0.00    +0.214 A 
ATOM      2  C   UNL     1       6.445   2.072  26.894  0.00  0.00    +0.238 A 
ATOM      3  O   UNL     1       7.218   2.383  27.798  0.00  0.00    -0.283 OA
ATOM      4  C   UNL     1       6.201   0.646  26.704  0.00  0.00    +0.109 A 
ATOM      5  C   UNL     1       5.048   0.311  26.037  0.00  0.00    +0.147 A 
ATOM      6  C   UNL     1       4.684  -1.022  25.887  0.00  0.00    +0.093 A 
ATOM      7  C   UNL     1       5.536  -2.039  26.334  0.00  0.00    +0.131 A 
ATOM      8  C   UNL     1       6.705  -1.704  27.026  0.00  0.00    +0.092 A 
ATOM      9  O   UNL     1       4.223   1.244  25.493  0.00  0.00    -0.451 OA
ATOM     10  C   UNL     1       7.033  -0.363  27.210  0.00  0.00    +0.135 A 
ATOM     11  C   UNL     1       4.654   2.562  25.308  0.00  0.00    +0.181 A 
ENDROOT
BRANCH  11  12
ATOM     12  C   UNL     1       3.714   3.255  24.347  0.00  0.00    +0.025 A 
ATOM     13  C   UNL     1       2.586   3.943  24.885  0.00  0.00    +0.015 A 
ATOM     14  C   UNL     1       1.699   4.688  24.104  0.00  0.00    +0.050 A 
ATOM     15  C   UNL     1       1.916   4.748  22.738  0.00  0.00    +0.158 A 
ATOM     16  C   UNL     1       2.940   4.014  22.163  0.00  0.00    +0.159 A 
ATOM     17  C   UNL     1       3.843   3.275  22.949  0.00  0.00    +0.060 A 
BRANCH  16  18
ATOM     18  O   UNL     1       3.014   4.035  20.800  0.00  0.00    -0.503 OA
ATOM     19  H   UNL     1       2.857   3.128  20.487  0.00  0.00    +0.292 HD
ENDBRANCH  16  18
BRANCH  15  20
ATOM     20  O   UNL     1       1.091   5.527  21.982  0.00  0.00    -0.503 OA
ATOM     21  H   UNL     1       1.696   6.019  21.393  0.00  0.00    +0.292 HD
ENDBRANCH  15  20
ENDBRANCH  11  12
BRANCH  10  22
ATOM     22  O   UNL     1       8.205  -0.058  27.838  0.00  0.00    -0.506 OA
ATOM     23  H   UNL     1       8.798  -0.825  27.829  0.00  0.00    +0.292 HD
ENDBRANCH  10  22
BRANCH   7  24
ATOM     24  O   UNL     1       5.306  -3.379  26.104  0.00  0.00    -0.461 OA
BRANCH  24  25
ATOM     25  C   UNL     1       5.916  -4.227  27.088  0.00  0.00    +0.339 C 
ATOM     26  O   UNL     1       6.465  -5.419  26.513  0.00  0.00    -0.331 OA
ATOM     27  C   UNL     1       5.537  -6.451  26.148  0.00  0.00    +0.179 C 
ATOM     28  C   UNL     1       4.602  -6.839  27.305  0.00  0.00    +0.177 C 
ATOM     29  C   UNL     1       3.957  -5.633  28.003  0.00  0.00    +0.180 C 
ATOM     30  C   UNL     1       4.982  -4.523  28.278  0.00  0.00    +0.214 C 
BRANCH  30  31
ATOM     31  O   UNL     1       5.802  -4.942  29.392  0.00  0.00    -0.383 OA
ATOM     32  H   UNL     1       5.186  -5.191  30.116  0.00  0.00    +0.210 HD
ENDBRANCH  30  31
BRANCH  29  33
ATOM     33  O   UNL     1       2.781  -5.175  27.343  0.00  0.00    -0.386 OA
ATOM     34  H   UNL     1       2.903  -4.286  26.976  0.00  0.00    +0.210 HD
ENDBRANCH  29  33
BRANCH  28  35
ATOM     35  O   UNL     1       5.412  -7.533  28.276  0.00  0.00    -0.386 OA
ATOM     36  H   UNL     1       6.026  -8.111  27.787  0.00  0.00    +0.210 HD
ENDBRANCH  28  35
BRANCH  27  37
ATOM     37  C   UNL     1       4.822  -6.132  24.828  0.00  0.00    +0.190 C 
BRANCH  37  38
ATOM     38  O   UNL     1       4.527  -7.339  24.127  0.00  0.00    -0.392 OA
ATOM     39  H   UNL     1       4.908  -7.240  23.233  0.00  0.00    +0.210 HD
ENDBRANCH  37  38
ENDBRANCH  27  37
ENDBRANCH  24  25
ENDBRANCH   7  24
BRANCH   1  40
ATOM     40  O   UNL     1       6.132   4.411  25.904  0.00  0.00    -0.453 OA
BRANCH  40  43
ATOM     41  C   UNL     1       8.882   3.472  23.755  0.00  0.00    +0.179 C 
ATOM     42  O   UNL     1       7.991   3.435  24.876  0.00  0.00    -0.331 OA
ATOM     43  C   UNL     1       7.227   4.636  24.992  0.00  0.00    +0.340 C 
ATOM     44  C   UNL     1       8.174   5.805  25.355  0.00  0.00    +0.214 C 
ATOM     45  C   UNL     1       9.275   5.862  24.259  0.00  0.00    +0.180 C 
ATOM     46  C   UNL     1       9.969   4.507  24.049  0.00  0.00    +0.177 C 
BRANCH  46  47
ATOM     47  O   UNL     1      10.896   4.637  22.964  0.00  0.00    -0.386 OA
ATOM     48  H   UNL     1      11.544   5.315  23.236  0.00  0.00    +0.210 HD
ENDBRANCH  46  47
BRANCH  45  49
ATOM     49  O   UNL     1      10.250   6.870  24.559  0.00  0.00    -0.386 OA
ATOM     50  H   UNL     1      10.388   7.346  23.713  0.00  0.00    +0.210 HD
ENDBRANCH  45  49
BRANCH  44  51
ATOM     51  O   UNL     1       7.441   7.046  25.367  0.00  0.00    -0.383 OA
ATOM     52  H   UNL     1       7.586   7.456  26.242  0.00  0.00    +0.210 HD
ENDBRANCH  44  51
BRANCH  41  53
ATOM     53  C   UNL     1       9.409   2.059  23.514  0.00  0.00    +0.197 C 
BRANCH  53  54
ATOM     54  O   UNL     1       9.057   1.236  24.620  0.00  0.00    -0.346 OA
BRANCH  54  58
ATOM     55  C   UNL     1       9.199  -3.118  24.633  0.00  0.00    +0.041 C 
ATOM     56  C   UNL     1       9.861  -2.186  23.623  0.00  0.00    +0.149 C 
ATOM     57  O   UNL     1       9.995  -0.850  24.122  0.00  0.00    -0.343 OA
ATOM     58  C   UNL     1       8.779  -0.117  24.249  0.00  0.00    +0.282 C 
ATOM     59  C   UNL     1       7.982  -0.040  22.928  0.00  0.00    +0.201 C 
ATOM     60  C   UNL     1       7.868  -1.407  22.242  0.00  0.00    +0.179 C 
ATOM     61  C   UNL     1       9.210  -2.145  22.234  0.00  0.00    +0.174 C 
BRANCH  61  62
ATOM     62  O   UNL     1      10.102  -1.455  21.342  0.00  0.00    -0.387 OA
ATOM     63  H   UNL     1       9.893  -0.499  21.391  0.00  0.00    +0.210 HD
ENDBRANCH  61  62
BRANCH  60  64
ATOM     64  O   UNL     1       6.828  -2.194  22.841  0.00  0.00    -0.386 OA
ATOM     65  H   UNL     1       5.986  -1.710  22.800  0.00  0.00    +0.210 HD
ENDBRANCH  60  64
BRANCH  59  66
ATOM     66  O   UNL     1       6.666   0.488  23.189  0.00  0.00    -0.384 OA
ATOM     67  H   UNL     1       6.232   0.647  22.330  0.00  0.00    +0.210 HD
ENDBRANCH  59  66
ENDBRANCH  54  58
ENDBRANCH  53  54
ENDBRANCH  41  53
ENDBRANCH  40  43
ENDBRANCH   1  40
TORSDOF 22
ENDMDL
MODEL 4
REMARK VINA RESULT:      -6.6      2.246      8.845
REMARK  Name = 
REMARK  23 active torsions:
REMARK  status: ('A' for Active; 'I' for Inactive)
REMARK    1  A    between atoms: C_1  and  C_2
REMARK    2  A    between atoms: C_4  and  O_69
REMARK    3  A    between atoms: C_6  and  O_68
REMARK    4  A    between atoms: C_8  and  O_67
REMARK    5  A    between atoms: C_10  and  O_13
REMARK    6  A    between atoms: O_13  and  C_14
REMARK    7  A    between atoms: C_14  and  C_15
REMARK    8  A    between atoms: C_17  and  O_66
REMARK    9  A    between atoms: C_19  and  O_65
REMARK   10  A    between atoms: C_21  and  O_64
REMARK   11  A    between atoms: C_23  and  O_26
REMARK   12  A    between atoms: O_26  and  C_27
REMARK   13  A    between atoms: C_28  and  C_56
REMARK   14  A    between atoms: C_32  and  O_39
REMARK   15  A    between atoms: C_34  and  O_38
REMARK   16  A    between atoms: O_39  and  C_40
REMARK   17  A    between atoms: C_42  and  O_55
REMARK   18  A    between atoms: C_44  and  O_54
REMARK   19  A    between atoms: C_46  and  O_53
REMARK   20  A    between atoms: C_48  and  C_51
REMARK   21  A    between atoms: C_51  and  O_52
REMARK   22  A    between atoms: C_58  and  O_63
REMARK   23  A    between atoms: C_59  and  O_62
REMARK                            x       y       z     vdW  Elec       q    Type
REMARK                         _______ _______ _______ _____ _____    ______ ____
ROOT
ATOM      1  C   UNL     1       8.719  -2.005  24.078  0.00  0.00    +0.214 A 
ATOM      2  C   UNL     1       9.524  -0.712  24.132  0.00  0.00    +0.238 A 
ATOM      3  O   UNL     1      10.679  -0.622  24.542  0.00  0.00    -0.283 OA
ATOM      4  C   UNL     1       8.905   0.518  23.648  0.00  0.00    +0.109 A 
ATOM      5  C   UNL     1       7.833   0.366  22.803  0.00  0.00    +0.147 A 
ATOM      6  C   UNL     1       7.235   1.477  22.219  0.00  0.00    +0.093 A 
ATOM      7  C   UNL     1       7.660   2.766  22.559  0.00  0.00    +0.131 A 
ATOM      8  C   UNL     1       8.761   2.926  23.409  0.00  0.00    +0.092 A 
ATOM      9  O   UNL     1       7.306  -0.851  22.504  0.00  0.00    -0.451 OA
ATOM     10  C   UNL     1       9.379   1.803  23.950  0.00  0.00    +0.135 A 
ATOM     11  C   UNL     1       7.619  -1.976  23.275  0.00  0.00    +0.181 A 
ENDROOT
BRANCH  11  12
ATOM     12  C   UNL     1       6.613  -3.066  22.980  0.00  0.00    +0.025 A 
ATOM     13  C   UNL     1       7.016  -4.144  22.135  0.00  0.00    +0.015 A 
ATOM     14  C   UNL     1       6.204  -5.247  21.862  0.00  0.00    +0.050 A 
ATOM     15  C   UNL     1       4.940  -5.289  22.424  0.00  0.00    +0.158 A 
ATOM     16  C   UNL     1       4.473  -4.218  23.167  0.00  0.00    +0.159 A 
ATOM     17  C   UNL     1       5.294  -3.113  23.457  0.00  0.00    +0.060 A 
BRANCH  16  18
ATOM     18  O   UNL     1       3.176  -4.287  23.588  0.00  0.00    -0.503 OA
ATOM     19  H   UNL     1       2.717  -4.923  23.013  0.00  0.00    +0.292 HD
ENDBRANCH  16  18
BRANCH  15  20
ATOM     20  O   UNL     1       4.170  -6.395  22.212  0.00  0.00    -0.503 OA
ATOM     21  H   UNL     1       3.629  -6.167  21.430  0.00  0.00    +0.292 HD
ENDBRANCH  15  20
ENDBRANCH  11  12
BRANCH  10  22
ATOM     22  O   UNL     1      10.415   1.983  24.821  0.00  0.00    -0.506 OA
ATOM     23  H   UNL     1      10.994   2.694  24.507  0.00  0.00    +0.292 HD
ENDBRANCH  10  22
BRANCH   7  24
ATOM     24  O   UNL     1       7.032   3.914  22.124  0.00  0.00    -0.461 OA
BRANCH  24  25
ATOM     25  C   UNL     1       5.684   4.030  22.604  0.00  0.00    +0.339 C 
ATOM     26  O   UNL     1       5.067   5.257  22.199  0.00  0.00    -0.331 OA
ATOM     27  C   UNL     1       5.457   6.445  22.905  0.00  0.00    +0.179 C 
ATOM     28  C   UNL     1       5.321   6.296  24.429  0.00  0.00    +0.177 C 
ATOM     29  C   UNL     1       5.947   5.005  24.977  0.00  0.00    +0.180 C 
ATOM     30  C   UNL     1       5.572   3.786  24.122  0.00  0.00    +0.214 C 
BRANCH  30  31
ATOM     31  O   UNL     1       4.199   3.443  24.416  0.00  0.00    -0.383 OA
ATOM     32  H   UNL     1       4.223   2.780  25.140  0.00  0.00    +0.210 HD
ENDBRANCH  30  31
BRANCH  29  33
ATOM     33  O   UNL     1       7.346   5.126  25.217  0.00  0.00    -0.386 OA
ATOM     34  H   UNL     1       7.706   4.326  25.626  0.00  0.00    +0.210 HD
ENDBRANCH  29  33
BRANCH  28  35
ATOM     35  O   UNL     1       3.909   6.260  24.716  0.00  0.00    -0.386 OA
ATOM     36  H   UNL     1       3.436   6.224  23.864  0.00  0.00    +0.210 HD
ENDBRANCH  28  35
BRANCH  27  37
ATOM     37  C   UNL     1       6.822   6.964  22.432  0.00  0.00    +0.190 C 
BRANCH  37  38
ATOM     38  O   UNL     1       6.963   6.757  21.028  0.00  0.00    -0.392 OA
ATOM     39  H   UNL     1       7.662   6.084  20.916  0.00  0.00    +0.210 HD
ENDBRANCH  37  38
ENDBRANCH  27  37
ENDBRANCH  24  25
ENDBRANCH   7  24
BRANCH   1  40
ATOM     40  O   UNL     1       9.121  -3.149  24.799  0.00  0.00    -0.453 OA
BRANCH  40  43
ATOM     41  C   UNL     1       6.075  -3.278  26.742  0.00  0.00    +0.179 C 
ATOM     42  O   UNL     1       7.329  -2.784  26.256  0.00  0.00    -0.331 OA
ATOM     43  C   UNL     1       8.058  -3.783  25.540  0.00  0.00    +0.340 C 
ATOM     44  C   UNL     1       8.493  -4.893  26.526  0.00  0.00    +0.214 C 
ATOM     45  C   UNL     1       7.208  -5.426  27.218  0.00  0.00    +0.180 C 
ATOM     46  C   UNL     1       6.365  -4.302  27.841  0.00  0.00    +0.177 C 
BRANCH  46  47
ATOM     47  O   UNL     1       5.164  -4.878  28.370  0.00  0.00    -0.386 OA
ATOM     48  H   UNL     1       4.586  -4.130  28.616  0.00  0.00    +0.210 HD
ENDBRANCH  46  47
BRANCH  45  49
ATOM     49  O   UNL     1       7.526  -6.408  28.214  0.00  0.00    -0.386 OA
ATOM     50  H   UNL     1       6.692  -6.539  28.712  0.00  0.00    +0.210 HD
ENDBRANCH  45  49
BRANCH  44  51
ATOM     51  O   UNL     1       9.133  -5.966  25.806  0.00  0.00    -0.383 OA
ATOM     52  H   UNL     1       9.246  -6.705  26.434  0.00  0.00    +0.210 HD
ENDBRANCH  44  51
BRANCH  41  53
ATOM     53  C   UNL     1       5.233  -2.088  27.197  0.00  0.00    +0.197 C 
BRANCH  53  54
ATOM     54  O   UNL     1       5.829  -0.887  26.719  0.00  0.00    -0.346 OA
BRANCH  54  58
ATOM     55  C   UNL     1       5.216   1.216  30.484  0.00  0.00    +0.041 C 
ATOM     56  C   UNL     1       4.595   1.560  29.136  0.00  0.00    +0.149 C 
ATOM     57  O   UNL     1       4.640   0.460  28.219  0.00  0.00    -0.343 OA
ATOM     58  C   UNL     1       5.934   0.127  27.722  0.00  0.00    +0.282 C 
ATOM     59  C   UNL     1       6.645   1.321  27.048  0.00  0.00    +0.201 C 
ATOM     60  C   UNL     1       6.565   2.595  27.897  0.00  0.00    +0.179 C 
ATOM     61  C   UNL     1       5.153   2.814  28.449  0.00  0.00    +0.174 C 
BRANCH  61  62
ATOM     62  O   UNL     1       4.285   3.149  27.353  0.00  0.00    -0.387 OA
ATOM     63  H   UNL     1       3.955   4.058  27.501  0.00  0.00    +0.210 HD
ENDBRANCH  61  62
BRANCH  60  64
ATOM     64  O   UNL     1       7.550   2.577  28.940  0.00  0.00    -0.386 OA
ATOM     65  H   UNL     1       7.627   1.678  29.303  0.00  0.00    +0.210 HD
ENDBRANCH  60  64
BRANCH  59  66
ATOM     66  O   UNL     1       8.025   0.982  26.802  0.00  0.00    -0.384 OA
ATOM     67  H   UNL     1       8.577   1.709  27.146  0.00  0.00    +0.210 HD
ENDBRANCH  59  66
ENDBRANCH  54  58
ENDBRANCH  53  54
ENDBRANCH  41  53
ENDBRANCH  40  43
ENDBRANCH   1  40
TORSDOF 22
ENDMDL
MODEL 5
REMARK VINA RESULT:      -6.6      3.119      6.913
REMARK  Name = 
REMARK  23 active torsions:
REMARK  status: ('A' for Active; 'I' for Inactive)
REMARK    1  A    between atoms: C_1  and  C_2
REMARK    2  A    between atoms: C_4  and  O_69
REMARK    3  A    between atoms: C_6  and  O_68
REMARK    4  A    between atoms: C_8  and  O_67
REMARK    5  A    between atoms: C_10  and  O_13
REMARK    6  A    between atoms: O_13  and  C_14
REMARK    7  A    between atoms: C_14  and  C_15
REMARK    8  A    between atoms: C_17  and  O_66
REMARK    9  A    between atoms: C_19  and  O_65
REMARK   10  A    between atoms: C_21  and  O_64
REMARK   11  A    between atoms: C_23  and  O_26
REMARK   12  A    between atoms: O_26  and  C_27
REMARK   13  A    between atoms: C_28  and  C_56
REMARK   14  A    between atoms: C_32  and  O_39
REMARK   15  A    between atoms: C_34  and  O_38
REMARK   16  A    between atoms: O_39  and  C_40
REMARK   17  A    between atoms: C_42  and  O_55
REMARK   18  A    between atoms: C_44  and  O_54
REMARK   19  A    between atoms: C_46  and  O_53
REMARK   20  A    between atoms: C_48  and  C_51
REMARK   21  A    between atoms: C_51  and  O_52
REMARK   22  A    between atoms: C_58  and  O_63
REMARK   23  A    between atoms: C_59  and  O_62
REMARK                            x       y       z     vdW  Elec       q    Type
REMARK                         _______ _______ _______ _____ _____    ______ ____
ROOT
ATOM      1  C   UNL     1       8.429  -2.135  25.592  0.00  0.00    +0.214 A 
ATOM      2  C   UNL     1       8.497  -3.495  24.907  0.00  0.00    +0.238 A 
ATOM      3  O   UNL     1       9.536  -4.058  24.568  0.00  0.00    -0.283 OA
ATOM      4  C   UNL     1       7.251  -4.208  24.644  0.00  0.00    +0.109 A 
ATOM      5  C   UNL     1       6.164  -3.826  25.390  0.00  0.00    +0.147 A 
ATOM      6  C   UNL     1       4.957  -4.508  25.276  0.00  0.00    +0.093 A 
ATOM      7  C   UNL     1       4.813  -5.531  24.332  0.00  0.00    +0.131 A 
ATOM      8  C   UNL     1       5.922  -5.933  23.578  0.00  0.00    +0.092 A 
ATOM      9  O   UNL     1       6.205  -2.779  26.256  0.00  0.00    -0.451 OA
ATOM     10  C   UNL     1       7.136  -5.272  23.737  0.00  0.00    +0.135 A 
ATOM     11  C   UNL     1       7.247  -1.847  26.205  0.00  0.00    +0.181 A 
ENDROOT
BRANCH  11  12
ATOM     12  C   UNL     1       6.839  -0.614  26.979  0.00  0.00    +0.025 A 
ATOM     13  C   UNL     1       5.506  -0.129  26.821  0.00  0.00    +0.015 A 
ATOM     14  C   UNL     1       4.992   0.948  27.547  0.00  0.00    +0.050 A 
ATOM     15  C   UNL     1       5.821   1.588  28.452  0.00  0.00    +0.158 A 
ATOM     16  C   UNL     1       7.150   1.213  28.563  0.00  0.00    +0.159 A 
ATOM     17  C   UNL     1       7.666   0.119  27.845  0.00  0.00    +0.060 A 
BRANCH  16  18
ATOM     18  O   UNL     1       7.929   1.968  29.392  0.00  0.00    -0.503 OA
ATOM     19  H   UNL     1       8.363   2.644  28.846  0.00  0.00    +0.292 HD
ENDBRANCH  16  18
BRANCH  15  20
ATOM     20  O   UNL     1       5.303   2.597  29.209  0.00  0.00    -0.503 OA
ATOM     21  H   UNL     1       5.101   3.304  28.564  0.00  0.00    +0.292 HD
ENDBRANCH  15  20
ENDBRANCH  11  12
BRANCH  10  22
ATOM     22  O   UNL     1       8.190  -5.643  22.953  0.00  0.00    -0.506 OA
ATOM     23  H   UNL     1       7.942  -5.592  22.017  0.00  0.00    +0.292 HD
ENDBRANCH  10  22
BRANCH   7  24
ATOM     24  O   UNL     1       3.615  -6.161  24.070  0.00  0.00    -0.461 OA
BRANCH  24  25
ATOM     25  C   UNL     1       3.308  -7.194  25.018  0.00  0.00    +0.339 C 
ATOM     26  O   UNL     1       2.890  -8.407  24.382  0.00  0.00    -0.331 OA
ATOM     27  C   UNL     1       1.552  -8.440  23.861  0.00  0.00    +0.179 C 
ATOM     28  C   UNL     1       0.502  -8.035  24.908  0.00  0.00    +0.177 C 
ATOM     29  C   UNL     1       0.852  -6.742  25.659  0.00  0.00    +0.180 C 
ATOM     30  C   UNL     1       2.321  -6.727  26.105  0.00  0.00    +0.214 C 
BRANCH  30  31
ATOM     31  O   UNL     1       2.452  -7.617  27.236  0.00  0.00    -0.383 OA
ATOM     32  H   UNL     1       2.499  -8.529  26.872  0.00  0.00    +0.210 HD
ENDBRANCH  30  31
BRANCH  29  33
ATOM     33  O   UNL     1       0.454  -5.569  24.957  0.00  0.00    -0.386 OA
ATOM     34  H   UNL     1      -0.369  -5.711  24.466  0.00  0.00    +0.210 HD
ENDBRANCH  29  33
BRANCH  28  35
ATOM     35  O   UNL     1       0.444  -9.106  25.871  0.00  0.00    -0.386 OA
ATOM     36  H   UNL     1      -0.354  -8.969  26.415  0.00  0.00    +0.210 HD
ENDBRANCH  28  35
BRANCH  27  37
ATOM     37  C   UNL     1       1.445  -7.692  22.525  0.00  0.00    +0.190 C 
BRANCH  37  38
ATOM     38  O   UNL     1       1.480  -8.620  21.442  0.00  0.00    -0.392 OA
ATOM     39  H   UNL     1       2.117  -9.316  21.695  0.00  0.00    +0.210 HD
ENDBRANCH  37  38
ENDBRANCH  27  37
ENDBRANCH  24  25
ENDBRANCH   7  24
BRANCH   1  40
ATOM     40  O   UNL     1       9.537  -1.261  25.597  0.00  0.00    -0.453 OA
BRANCH  40  43
ATOM     41  C   UNL     1       8.798   1.672  23.618  0.00  0.00    +0.179 C 
ATOM     42  O   UNL     1       8.586   0.592  24.535  0.00  0.00    -0.331 OA
ATOM     43  C   UNL     1       9.613  -0.397  24.444  0.00  0.00    +0.340 C 
ATOM     44  C   UNL     1       9.517  -1.100  23.069  0.00  0.00    +0.214 C 
ATOM     45  C   UNL     1       9.609   0.005  21.980  0.00  0.00    +0.180 C 
ATOM     46  C   UNL     1       8.593   1.136  22.201  0.00  0.00    +0.177 C 
BRANCH  46  47
ATOM     47  O   UNL     1       8.815   2.145  21.207  0.00  0.00    -0.386 OA
ATOM     48  H   UNL     1       9.691   2.529  21.397  0.00  0.00    +0.210 HD
ENDBRANCH  46  47
BRANCH  45  49
ATOM     49  O   UNL     1       9.446  -0.549  20.667  0.00  0.00    -0.386 OA
ATOM     50  H   UNL     1      10.261  -0.295  20.185  0.00  0.00    +0.210 HD
ENDBRANCH  45  49
BRANCH  44  51
ATOM     51  O   UNL     1      10.613  -2.023  22.912  0.00  0.00    -0.383 OA
ATOM     52  H   UNL     1      11.118  -2.014  23.748  0.00  0.00    +0.210 HD
ENDBRANCH  44  51
BRANCH  41  53
ATOM     53  C   UNL     1       7.862   2.817  24.000  0.00  0.00    +0.197 C 
BRANCH  53  54
ATOM     54  O   UNL     1       6.717   2.784  23.155  0.00  0.00    -0.346 OA
BRANCH  54  58
ATOM     55  C   UNL     1       3.658   4.001  26.006  0.00  0.00    +0.041 C 
ATOM     56  C   UNL     1       3.463   3.111  24.784  0.00  0.00    +0.149 C 
ATOM     57  O   UNL     1       4.697   2.554  24.314  0.00  0.00    -0.343 OA
ATOM     58  C   UNL     1       5.594   3.478  23.702  0.00  0.00    +0.282 C 
ATOM     59  C   UNL     1       4.954   4.247  22.524  0.00  0.00    +0.201 C 
ATOM     60  C   UNL     1       3.568   4.799  22.879  0.00  0.00    +0.179 C 
ATOM     61  C   UNL     1       2.717   3.753  23.606  0.00  0.00    +0.174 C 
BRANCH  61  62
ATOM     62  O   UNL     1       2.377   2.716  22.671  0.00  0.00    -0.387 OA
ATOM     63  H   UNL     1       3.194   2.215  22.471  0.00  0.00    +0.210 HD
ENDBRANCH  61  62
BRANCH  60  64
ATOM     64  O   UNL     1       3.680   6.015  23.633  0.00  0.00    -0.386 OA
ATOM     65  H   UNL     1       3.497   6.776  23.055  0.00  0.00    +0.210 HD
ENDBRANCH  60  64
BRANCH  59  66
ATOM     66  O   UNL     1       5.823   5.326  22.125  0.00  0.00    -0.384 OA
ATOM     67  H   UNL     1       5.287   6.139  22.078  0.00  0.00    +0.210 HD
ENDBRANCH  59  66
ENDBRANCH  54  58
ENDBRANCH  53  54
ENDBRANCH  41  53
ENDBRANCH  40  43
ENDBRANCH   1  40
TORSDOF 22
ENDMDL
MODEL 6
REMARK VINA RESULT:      -6.6      2.710      6.245
REMARK  Name = 
REMARK  23 active torsions:
REMARK  status: ('A' for Active; 'I' for Inactive)
REMARK    1  A    between atoms: C_1  and  C_2
REMARK    2  A    between atoms: C_4  and  O_69
REMARK    3  A    between atoms: C_6  and  O_68
REMARK    4  A    between atoms: C_8  and  O_67
REMARK    5  A    between atoms: C_10  and  O_13
REMARK    6  A    between atoms: O_13  and  C_14
REMARK    7  A    between atoms: C_14  and  C_15
REMARK    8  A    between atoms: C_17  and  O_66
REMARK    9  A    between atoms: C_19  and  O_65
REMARK   10  A    between atoms: C_21  and  O_64
REMARK   11  A    between atoms: C_23  and  O_26
REMARK   12  A    between atoms: O_26  and  C_27
REMARK   13  A    between atoms: C_28  and  C_56
REMARK   14  A    between atoms: C_32  and  O_39
REMARK   15  A    between atoms: C_34  and  O_38
REMARK   16  A    between atoms: O_39  and  C_40
REMARK   17  A    between atoms: C_42  and  O_55
REMARK   18  A    between atoms: C_44  and  O_54
REMARK   19  A    between atoms: C_46  and  O_53
REMARK   20  A    between atoms: C_48  and  C_51
REMARK   21  A    between atoms: C_51  and  O_52
REMARK   22  A    between atoms: C_58  and  O_63
REMARK   23  A    between atoms: C_59  and  O_62
REMARK                            x       y       z     vdW  Elec       q    Type
REMARK                         _______ _______ _______ _____ _____    ______ ____
ROOT
ATOM      1  C   UNL     1       8.200  -1.631  26.710  0.00  0.00    +0.214 A 
ATOM      2  C   UNL     1       8.236  -3.151  26.815  0.00  0.00    +0.238 A 
ATOM      3  O   UNL     1       9.252  -3.816  27.006  0.00  0.00    -0.283 OA
ATOM      4  C   UNL     1       6.983  -3.890  26.704  0.00  0.00    +0.109 A 
ATOM      5  C   UNL     1       5.834  -3.174  26.939  0.00  0.00    +0.147 A 
ATOM      6  C   UNL     1       4.598  -3.811  26.946  0.00  0.00    +0.093 A 
ATOM      7  C   UNL     1       4.504  -5.170  26.623  0.00  0.00    +0.131 A 
ATOM      8  C   UNL     1       5.673  -5.907  26.398  0.00  0.00    +0.092 A 
ATOM      9  O   UNL     1       5.842  -1.834  27.163  0.00  0.00    -0.451 OA
ATOM     10  C   UNL     1       6.907  -5.265  26.440  0.00  0.00    +0.135 A 
ATOM     11  C   UNL     1       6.970  -1.063  26.860  0.00  0.00    +0.181 A 
ENDROOT
BRANCH  11  12
ATOM     12  C   UNL     1       6.572   0.395  26.827  0.00  0.00    +0.025 A 
ATOM     13  C   UNL     1       5.521   0.787  25.945  0.00  0.00    +0.015 A 
ATOM     14  C   UNL     1       5.012   2.087  25.891  0.00  0.00    +0.050 A 
ATOM     15  C   UNL     1       5.565   3.046  26.721  0.00  0.00    +0.158 A 
ATOM     16  C   UNL     1       6.652   2.731  27.520  0.00  0.00    +0.159 A 
ATOM     17  C   UNL     1       7.157   1.420  27.587  0.00  0.00    +0.060 A 
BRANCH  16  18
ATOM     18  O   UNL     1       7.212   3.760  28.221  0.00  0.00    -0.503 OA
ATOM     19  H   UNL     1       7.956   3.395  28.728  0.00  0.00    +0.292 HD
ENDBRANCH  16  18
BRANCH  15  20
ATOM     20  O   UNL     1       5.027   4.299  26.718  0.00  0.00    -0.503 OA
ATOM     21  H   UNL     1       5.136   4.607  25.796  0.00  0.00    +0.292 HD
ENDBRANCH  15  20
ENDBRANCH  11  12
BRANCH  10  22
ATOM     22  O   UNL     1       8.030  -5.989  26.162  0.00  0.00    -0.506 OA
ATOM     23  H   UNL     1       8.223  -5.953  25.212  0.00  0.00    +0.292 HD
ENDBRANCH  10  22
BRANCH   7  24
ATOM     24  O   UNL     1       3.306  -5.837  26.482  0.00  0.00    -0.461 OA
BRANCH  24  25
ATOM     25  C   UNL     1       2.529  -5.361  25.373  0.00  0.00    +0.339 C 
ATOM     26  O   UNL     1       1.236  -5.975  25.312  0.00  0.00    -0.331 OA
ATOM     27  C   UNL     1       1.180  -7.322  24.818  0.00  0.00    +0.179 C 
ATOM     28  C   UNL     1       1.873  -7.479  23.455  0.00  0.00    +0.177 C 
ATOM     29  C   UNL     1       3.272  -6.849  23.403  0.00  0.00    +0.180 C 
ATOM     30  C   UNL     1       3.287  -5.449  24.034  0.00  0.00    +0.214 C 
BRANCH  30  31
ATOM     31  O   UNL     1       2.659  -4.536  23.107  0.00  0.00    -0.383 OA
ATOM     32  H   UNL     1       1.692  -4.586  23.275  0.00  0.00    +0.210 HD
ENDBRANCH  30  31
BRANCH  29  33
ATOM     33  O   UNL     1       4.288  -7.713  23.903  0.00  0.00    -0.386 OA
ATOM     34  H   UNL     1       4.067  -8.047  24.785  0.00  0.00    +0.210 HD
ENDBRANCH  29  33
BRANCH  28  35
ATOM     35  O   UNL     1       1.045  -6.800  22.489  0.00  0.00    -0.386 OA
ATOM     36  H   UNL     1       0.318  -7.404  22.249  0.00  0.00    +0.210 HD
ENDBRANCH  28  35
BRANCH  27  37
ATOM     37  C   UNL     1       1.622  -8.336  25.881  0.00  0.00    +0.190 C 
BRANCH  37  38
ATOM     38  O   UNL     1       2.283  -9.437  25.261  0.00  0.00    -0.392 OA
ATOM     39  H   UNL     1       3.087  -9.610  25.789  0.00  0.00    +0.210 HD
ENDBRANCH  37  38
ENDBRANCH  27  37
ENDBRANCH  24  25
ENDBRANCH   7  24
BRANCH   1  40
ATOM     40  O   UNL     1       9.376  -0.882  26.496  0.00  0.00    -0.453 OA
BRANCH  40  43
ATOM     41  C   UNL     1       9.812   1.294  23.643  0.00  0.00    +0.179 C 
ATOM     42  O   UNL     1       9.288   0.810  24.885  0.00  0.00    -0.331 OA
ATOM     43  C   UNL     1       9.627  -0.559  25.113  0.00  0.00    +0.340 C 
ATOM     44  C   UNL     1       8.897  -1.441  24.072  0.00  0.00    +0.214 C 
ATOM     45  C   UNL     1       9.295  -0.918  22.664  0.00  0.00    +0.180 C 
ATOM     46  C   UNL     1       9.064   0.593  22.508  0.00  0.00    +0.177 C 
BRANCH  46  47
ATOM     47  O   UNL     1       9.544   0.994  21.219  0.00  0.00    -0.386 OA
ATOM     48  H   UNL     1       9.246   0.310  20.590  0.00  0.00    +0.210 HD
ENDBRANCH  46  47
BRANCH  45  49
ATOM     49  O   UNL     1       8.597  -1.629  21.632  0.00  0.00    -0.386 OA
ATOM     50  H   UNL     1       7.680  -1.722  21.969  0.00  0.00    +0.210 HD
ENDBRANCH  45  49
BRANCH  44  51
ATOM     51  O   UNL     1       9.312  -2.813  24.213  0.00  0.00    -0.383 OA
ATOM     52  H   UNL     1      10.288  -2.823  24.179  0.00  0.00    +0.210 HD
ENDBRANCH  44  51
BRANCH  41  53
ATOM     53  C   UNL     1       9.689   2.817  23.631  0.00  0.00    +0.197 C 
BRANCH  53  54
ATOM     54  O   UNL     1       8.835   3.223  24.694  0.00  0.00    -0.346 OA
BRANCH  54  58
ATOM     55  C   UNL     1       5.037   3.995  22.706  0.00  0.00    +0.041 C 
ATOM     56  C   UNL     1       6.416   4.459  22.251  0.00  0.00    +0.149 C 
ATOM     57  O   UNL     1       7.472   3.701  22.852  0.00  0.00    -0.343 OA
ATOM     58  C   UNL     1       7.674   3.927  24.245  0.00  0.00    +0.282 C 
ATOM     59  C   UNL     1       7.922   5.414  24.583  0.00  0.00    +0.201 C 
ATOM     60  C   UNL     1       6.909   6.339  23.897  0.00  0.00    +0.179 C 
ATOM     61  C   UNL     1       6.704   5.956  22.428  0.00  0.00    +0.174 C 
BRANCH  61  62
ATOM     62  O   UNL     1       7.907   6.270  21.706  0.00  0.00    -0.387 OA
ATOM     63  H   UNL     1       8.287   7.083  22.097  0.00  0.00    +0.210 HD
ENDBRANCH  61  62
BRANCH  60  64
ATOM     64  O   UNL     1       5.670   6.365  24.621  0.00  0.00    -0.386 OA
ATOM     65  H   UNL     1       5.743   5.808  25.415  0.00  0.00    +0.210 HD
ENDBRANCH  60  64
BRANCH  59  66
ATOM     66  O   UNL     1       7.866   5.600  26.011  0.00  0.00    -0.384 OA
ATOM     67  H   UNL     1       8.781   5.607  26.348  0.00  0.00    +0.210 HD
ENDBRANCH  59  66
ENDBRANCH  54  58
ENDBRANCH  53  54
ENDBRANCH  41  53
ENDBRANCH  40  43
ENDBRANCH   1  40
TORSDOF 22
ENDMDL
MODEL 7
REMARK VINA RESULT:      -6.6      1.749      2.966
REMARK  Name = 
REMARK  23 active torsions:
REMARK  status: ('A' for Active; 'I' for Inactive)
REMARK    1  A    between atoms: C_1  and  C_2
REMARK    2  A    between atoms: C_4  and  O_69
REMARK    3  A    between atoms: C_6  and  O_68
REMARK    4  A    between atoms: C_8  and  O_67
REMARK    5  A    between atoms: C_10  and  O_13
REMARK    6  A    between atoms: O_13  and  C_14
REMARK    7  A    between atoms: C_14  and  C_15
REMARK    8  A    between atoms: C_17  and  O_66
REMARK    9  A    between atoms: C_19  and  O_65
REMARK   10  A    between atoms: C_21  and  O_64
REMARK   11  A    between atoms: C_23  and  O_26
REMARK   12  A    between atoms: O_26  and  C_27
REMARK   13  A    between atoms: C_28  and  C_56
REMARK   14  A    between atoms: C_32  and  O_39
REMARK   15  A    between atoms: C_34  and  O_38
REMARK   16  A    between atoms: O_39  and  C_40
REMARK   17  A    between atoms: C_42  and  O_55
REMARK   18  A    between atoms: C_44  and  O_54
REMARK   19  A    between atoms: C_46  and  O_53
REMARK   20  A    between atoms: C_48  and  C_51
REMARK   21  A    between atoms: C_51  and  O_52
REMARK   22  A    between atoms: C_58  and  O_63
REMARK   23  A    between atoms: C_59  and  O_62
REMARK                            x       y       z     vdW  Elec       q    Type
REMARK                         _______ _______ _______ _____ _____    ______ ____
ROOT
ATOM      1  C   UNL     1       5.528   2.973  25.873  0.00  0.00    +0.214 A 
ATOM      2  C   UNL     1       6.260   2.080  26.867  0.00  0.00    +0.238 A 
ATOM      3  O   UNL     1       7.083   2.474  27.690  0.00  0.00    -0.283 OA
ATOM      4  C   UNL     1       5.960   0.651  26.876  0.00  0.00    +0.109 A 
ATOM      5  C   UNL     1       4.768   0.278  26.307  0.00  0.00    +0.147 A 
ATOM      6  C   UNL     1       4.353  -1.049  26.348  0.00  0.00    +0.093 A 
ATOM      7  C   UNL     1       5.191  -2.032  26.888  0.00  0.00    +0.131 A 
ATOM      8  C   UNL     1       6.401  -1.655  27.482  0.00  0.00    +0.092 A 
ATOM      9  O   UNL     1       3.950   1.163  25.679  0.00  0.00    -0.451 OA
ATOM     10  C   UNL     1       6.781  -0.316  27.475  0.00  0.00    +0.135 A 
ATOM     11  C   UNL     1       4.415   2.429  25.306  0.00  0.00    +0.181 A 
ENDROOT
BRANCH  11  12
ATOM     12  C   UNL     1       3.456   3.027  24.302  0.00  0.00    +0.025 A 
ATOM     13  C   UNL     1       2.139   3.357  24.742  0.00  0.00    +0.015 A 
ATOM     14  C   UNL     1       1.196   3.991  23.928  0.00  0.00    +0.050 A 
ATOM     15  C   UNL     1       1.551   4.299  22.626  0.00  0.00    +0.158 A 
ATOM     16  C   UNL     1       2.783   3.907  22.130  0.00  0.00    +0.159 A 
ATOM     17  C   UNL     1       3.739   3.282  22.951  0.00  0.00    +0.060 A 
BRANCH  16  18
ATOM     18  O   UNL     1       3.010   4.145  20.805  0.00  0.00    -0.503 OA
ATOM     19  H   UNL     1       2.353   3.637  20.301  0.00  0.00    +0.292 HD
ENDBRANCH  16  18
BRANCH  15  20
ATOM     20  O   UNL     1       0.657   4.975  21.851  0.00  0.00    -0.503 OA
ATOM     21  H   UNL     1       0.028   4.289  21.552  0.00  0.00    +0.292 HD
ENDBRANCH  15  20
ENDBRANCH  11  12
BRANCH  10  22
ATOM     22  O   UNL     1       7.991   0.023  28.009  0.00  0.00    -0.506 OA
ATOM     23  H   UNL     1       8.228  -0.596  28.716  0.00  0.00    +0.292 HD
ENDBRANCH  10  22
BRANCH   7  24
ATOM     24  O   UNL     1       4.907  -3.380  26.846  0.00  0.00    -0.461 OA
BRANCH  24  25
ATOM     25  C   UNL     1       4.412  -3.807  25.567  0.00  0.00    +0.339 C 
ATOM     26  O   UNL     1       3.371  -4.783  25.687  0.00  0.00    -0.331 OA
ATOM     27  C   UNL     1       3.771  -6.122  26.018  0.00  0.00    +0.179 C 
ATOM     28  C   UNL     1       4.857  -6.663  25.076  0.00  0.00    +0.177 C 
ATOM     29  C   UNL     1       6.028  -5.691  24.869  0.00  0.00    +0.180 C 
ATOM     30  C   UNL     1       5.537  -4.258  24.616  0.00  0.00    +0.214 C 
BRANCH  30  31
ATOM     31  O   UNL     1       5.028  -4.196  23.265  0.00  0.00    -0.383 OA
ATOM     32  H   UNL     1       5.634  -3.608  22.763  0.00  0.00    +0.210 HD
ENDBRANCH  30  31
BRANCH  29  33
ATOM     33  O   UNL     1       7.014  -5.786  25.893  0.00  0.00    -0.386 OA
ATOM     34  H   UNL     1       7.867  -5.433  25.598  0.00  0.00    +0.210 HD
ENDBRANCH  29  33
BRANCH  28  35
ATOM     35  O   UNL     1       4.227  -6.876  23.797  0.00  0.00    -0.386 OA
ATOM     36  H   UNL     1       4.746  -6.391  23.129  0.00  0.00    +0.210 HD
ENDBRANCH  28  35
BRANCH  27  37
ATOM     37  C   UNL     1       4.090  -6.266  27.512  0.00  0.00    +0.190 C 
BRANCH  37  38
ATOM     38  O   UNL     1       5.060  -7.293  27.708  0.00  0.00    -0.392 OA
ATOM     39  H   UNL     1       5.557  -7.367  26.870  0.00  0.00    +0.210 HD
ENDBRANCH  37  38
ENDBRANCH  27  37
ENDBRANCH  24  25
ENDBRANCH   7  24
BRANCH   1  40
ATOM     40  O   UNL     1       5.979   4.281  25.593  0.00  0.00    -0.453 OA
BRANCH  40  43
ATOM     41  C   UNL     1       9.012   3.099  24.021  0.00  0.00    +0.179 C 
ATOM     42  O   UNL     1       8.043   3.326  25.053  0.00  0.00    -0.331 OA
ATOM     43  C   UNL     1       7.102   4.337  24.690  0.00  0.00    +0.340 C 
ATOM     44  C   UNL     1       7.831   5.700  24.607  0.00  0.00    +0.214 C 
ATOM     45  C   UNL     1       9.001   5.536  23.597  0.00  0.00    +0.180 C 
ATOM     46  C   UNL     1       9.903   4.338  23.930  0.00  0.00    +0.177 C 
BRANCH  46  47
ATOM     47  O   UNL     1      10.891   4.215  22.898  0.00  0.00    -0.386 OA
ATOM     48  H   UNL     1      10.402   4.175  22.054  0.00  0.00    +0.210 HD
ENDBRANCH  46  47
BRANCH  45  49
ATOM     49  O   UNL     1       9.786   6.734  23.518  0.00  0.00    -0.386 OA
ATOM     50  H   UNL     1      10.673   6.433  23.227  0.00  0.00    +0.210 HD
ENDBRANCH  45  49
BRANCH  44  51
ATOM     51  O   UNL     1       6.924   6.715  24.134  0.00  0.00    -0.383 OA
ATOM     52  H   UNL     1       7.404   7.565  24.163  0.00  0.00    +0.210 HD
ENDBRANCH  44  51
BRANCH  41  53
ATOM     53  C   UNL     1       9.761   1.807  24.343  0.00  0.00    +0.197 C 
BRANCH  53  54
ATOM     54  O   UNL     1       8.902   0.941  25.077  0.00  0.00    -0.346 OA
BRANCH  54  58
ATOM     55  C   UNL     1       9.248  -3.329  24.289  0.00  0.00    +0.041 C 
ATOM     56  C   UNL     1       9.917  -2.201  23.512  0.00  0.00    +0.149 C 
ATOM     57  O   UNL     1       9.962  -0.978  24.257  0.00  0.00    -0.343 OA
ATOM     58  C   UNL     1       8.708  -0.327  24.445  0.00  0.00    +0.282 C 
ATOM     59  C   UNL     1       7.979  -0.032  23.115  0.00  0.00    +0.201 C 
ATOM     60  C   UNL     1       7.966  -1.248  22.182  0.00  0.00    +0.179 C 
ATOM     61  C   UNL     1       9.339  -1.922  22.117  0.00  0.00    +0.174 C 
BRANCH  61  62
ATOM     62  O   UNL     1      10.243  -1.044  21.425  0.00  0.00    -0.387 OA
ATOM     63  H   UNL     1       9.707  -0.425  20.889  0.00  0.00    +0.210 HD
ENDBRANCH  61  62
BRANCH  60  64
ATOM     64  O   UNL     1       6.934  -2.171  22.560  0.00  0.00    -0.386 OA
ATOM     65  H   UNL     1       7.331  -3.028  22.792  0.00  0.00    +0.210 HD
ENDBRANCH  60  64
BRANCH  59  66
ATOM     66  O   UNL     1       6.628   0.390  23.390  0.00  0.00    -0.384 OA
ATOM     67  H   UNL     1       6.562   0.578  24.344  0.00  0.00    +0.210 HD
ENDBRANCH  59  66
ENDBRANCH  54  58
ENDBRANCH  53  54
ENDBRANCH  41  53
ENDBRANCH  40  43
ENDBRANCH   1  40
TORSDOF 22
ENDMDL
MODEL 8
REMARK VINA RESULT:      -6.6      2.323      9.117
REMARK  Name = 
REMARK  23 active torsions:
REMARK  status: ('A' for Active; 'I' for Inactive)
REMARK    1  A    between atoms: C_1  and  C_2
REMARK    2  A    between atoms: C_4  and  O_69
REMARK    3  A    between atoms: C_6  and  O_68
REMARK    4  A    between atoms: C_8  and  O_67
REMARK    5  A    between atoms: C_10  and  O_13
REMARK    6  A    between atoms: O_13  and  C_14
REMARK    7  A    between atoms: C_14  and  C_15
REMARK    8  A    between atoms: C_17  and  O_66
REMARK    9  A    between atoms: C_19  and  O_65
REMARK   10  A    between atoms: C_21  and  O_64
REMARK   11  A    between atoms: C_23  and  O_26
REMARK   12  A    between atoms: O_26  and  C_27
REMARK   13  A    between atoms: C_28  and  C_56
REMARK   14  A    between atoms: C_32  and  O_39
REMARK   15  A    between atoms: C_34  and  O_38
REMARK   16  A    between atoms: O_39  and  C_40
REMARK   17  A    between atoms: C_42  and  O_55
REMARK   18  A    between atoms: C_44  and  O_54
REMARK   19  A    between atoms: C_46  and  O_53
REMARK   20  A    between atoms: C_48  and  C_51
REMARK   21  A    between atoms: C_51  and  O_52
REMARK   22  A    between atoms: C_58  and  O_63
REMARK   23  A    between atoms: C_59  and  O_62
REMARK                            x       y       z     vdW  Elec       q    Type
REMARK                         _______ _______ _______ _____ _____    ______ ____
ROOT
ATOM      1  C   UNL     1       8.208  -1.400  24.562  0.00  0.00    +0.214 A 
ATOM      2  C   UNL     1       8.639   0.036  24.838  0.00  0.00    +0.238 A 
ATOM      3  O   UNL     1       9.648   0.356  25.463  0.00  0.00    -0.283 OA
ATOM      4  C   UNL     1       7.822   1.125  24.313  0.00  0.00    +0.109 A 
ATOM      5  C   UNL     1       6.983   0.808  23.273  0.00  0.00    +0.147 A 
ATOM      6  C   UNL     1       6.233   1.797  22.648  0.00  0.00    +0.093 A 
ATOM      7  C   UNL     1       6.255   3.110  23.133  0.00  0.00    +0.131 A 
ATOM      8  C   UNL     1       7.118   3.441  24.183  0.00  0.00    +0.092 A 
ATOM      9  O   UNL     1       6.839  -0.463  22.814  0.00  0.00    -0.451 OA
ATOM     10  C   UNL     1       7.899   2.449  24.769  0.00  0.00    +0.135 A 
ATOM     11  C   UNL     1       7.289  -1.553  23.568  0.00  0.00    +0.181 A 
ENDROOT
BRANCH  11  12
ATOM     12  C   UNL     1       6.656  -2.816  23.028  0.00  0.00    +0.025 A 
ATOM     13  C   UNL     1       7.461  -3.686  22.233  0.00  0.00    +0.015 A 
ATOM     14  C   UNL     1       7.011  -4.919  21.753  0.00  0.00    +0.050 A 
ATOM     15  C   UNL     1       5.716  -5.308  22.048  0.00  0.00    +0.158 A 
ATOM     16  C   UNL     1       4.871  -4.450  22.732  0.00  0.00    +0.159 A 
ATOM     17  C   UNL     1       5.325  -3.215  23.229  0.00  0.00    +0.060 A 
BRANCH  16  18
ATOM     18  O   UNL     1       3.577  -4.859  22.882  0.00  0.00    -0.503 OA
ATOM     19  H   UNL     1       3.588  -5.825  22.987  0.00  0.00    +0.292 HD
ENDBRANCH  16  18
BRANCH  15  20
ATOM     20  O   UNL     1       5.296  -6.538  21.637  0.00  0.00    -0.503 OA
ATOM     21  H   UNL     1       5.699  -7.158  22.276  0.00  0.00    +0.292 HD
ENDBRANCH  15  20
ENDBRANCH  11  12
BRANCH  10  22
ATOM     22  O   UNL     1       8.692   2.782  25.829  0.00  0.00    -0.506 OA
ATOM     23  H   UNL     1       8.153   3.155  26.544  0.00  0.00    +0.292 HD
ENDBRANCH  10  22
BRANCH   7  24
ATOM     24  O   UNL     1       5.441   4.113  22.650  0.00  0.00    -0.461 OA
BRANCH  24  25
ATOM     25  C   UNL     1       4.855   4.907  23.692  0.00  0.00    +0.339 C 
ATOM     26  O   UNL     1       3.511   4.510  23.986  0.00  0.00    -0.331 OA
ATOM     27  C   UNL     1       2.495   4.917  23.057  0.00  0.00    +0.179 C 
ATOM     28  C   UNL     1       2.521   6.429  22.781  0.00  0.00    +0.177 C 
ATOM     29  C   UNL     1       3.922   6.969  22.456  0.00  0.00    +0.180 C 
ATOM     30  C   UNL     1       4.978   6.420  23.426  0.00  0.00    +0.214 C 
BRANCH  30  31
ATOM     31  O   UNL     1       4.823   7.107  24.688  0.00  0.00    -0.383 OA
ATOM     32  H   UNL     1       4.589   6.423  25.353  0.00  0.00    +0.210 HD
ENDBRANCH  30  31
BRANCH  29  33
ATOM     33  O   UNL     1       4.270   6.816  21.084  0.00  0.00    -0.386 OA
ATOM     34  H   UNL     1       3.483   6.754  20.523  0.00  0.00    +0.210 HD
ENDBRANCH  29  33
BRANCH  28  35
ATOM     35  O   UNL     1       2.063   7.078  23.984  0.00  0.00    -0.386 OA
ATOM     36  H   UNL     1       1.191   6.703  24.207  0.00  0.00    +0.210 HD
ENDBRANCH  28  35
BRANCH  27  37
ATOM     37  C   UNL     1       2.490   4.037  21.800  0.00  0.00    +0.190 C 
BRANCH  37  38
ATOM     38  O   UNL     1       2.695   2.672  22.159  0.00  0.00    -0.392 OA
ATOM     39  H   UNL     1       1.908   2.183  21.850  0.00  0.00    +0.210 HD
ENDBRANCH  37  38
ENDBRANCH  27  37
ENDBRANCH  24  25
ENDBRANCH   7  24
BRANCH   1  40
ATOM     40  O   UNL     1       8.757  -2.481  25.282  0.00  0.00    -0.453 OA
BRANCH  40  43
ATOM     41  C   UNL     1       5.631  -3.392  26.855  0.00  0.00    +0.179 C 
ATOM     42  O   UNL     1       6.805  -2.623  26.561  0.00  0.00    -0.331 OA
ATOM     43  C   UNL     1       7.774  -3.381  25.835  0.00  0.00    +0.340 C 
ATOM     44  C   UNL     1       8.325  -4.502  26.747  0.00  0.00    +0.214 C 
ATOM     45  C   UNL     1       7.110  -5.338  27.237  0.00  0.00    +0.180 C 
ATOM     46  C   UNL     1       6.014  -4.468  27.871  0.00  0.00    +0.177 C 
BRANCH  46  47
ATOM     47  O   UNL     1       4.904  -5.311  28.205  0.00  0.00    -0.386 OA
ATOM     48  H   UNL     1       4.452  -5.517  27.364  0.00  0.00    +0.210 HD
ENDBRANCH  46  47
BRANCH  45  49
ATOM     49  O   UNL     1       7.521  -6.357  28.160  0.00  0.00    -0.386 OA
ATOM     50  H   UNL     1       6.750  -6.486  28.750  0.00  0.00    +0.210 HD
ENDBRANCH  45  49
BRANCH  44  51
ATOM     51  O   UNL     1       9.222  -5.348  26.000  0.00  0.00    -0.383 OA
ATOM     52  H   UNL     1      10.098  -4.915  26.007  0.00  0.00    +0.210 HD
ENDBRANCH  44  51
BRANCH  41  53
ATOM     53  C   UNL     1       4.538  -2.437  27.330  0.00  0.00    +0.197 C 
BRANCH  53  54
ATOM     54  O   UNL     1       4.536  -1.281  26.499  0.00  0.00    -0.346 OA
BRANCH  54  58
ATOM     55  C   UNL     1       1.613   1.085  28.697  0.00  0.00    +0.041 C 
ATOM     56  C   UNL     1       1.834   1.079  27.188  0.00  0.00    +0.149 C 
ATOM     57  O   UNL     1       2.539  -0.087  26.745  0.00  0.00    -0.343 OA
ATOM     58  C   UNL     1       3.915  -0.149  27.112  0.00  0.00    +0.282 C 
ATOM     59  C   UNL     1       4.718   1.084  26.643  0.00  0.00    +0.201 C 
ATOM     60  C   UNL     1       4.000   2.399  26.967  0.00  0.00    +0.179 C 
ATOM     61  C   UNL     1       2.512   2.330  26.612  0.00  0.00    +0.174 C 
BRANCH  61  62
ATOM     62  O   UNL     1       2.389   2.286  25.180  0.00  0.00    -0.387 OA
ATOM     63  H   UNL     1       3.120   1.733  24.834  0.00  0.00    +0.210 HD
ENDBRANCH  61  62
BRANCH  60  64
ATOM     64  O   UNL     1       4.206   2.769  28.338  0.00  0.00    -0.386 OA
ATOM     65  H   UNL     1       5.081   2.463  28.632  0.00  0.00    +0.210 HD
ENDBRANCH  60  64
BRANCH  59  66
ATOM     66  O   UNL     1       6.022   1.073  27.258  0.00  0.00    -0.384 OA
ATOM     67  H   UNL     1       5.925   0.706  28.156  0.00  0.00    +0.210 HD
ENDBRANCH  59  66
ENDBRANCH  54  58
ENDBRANCH  53  54
ENDBRANCH  41  53
ENDBRANCH  40  43
ENDBRANCH   1  40
TORSDOF 22
ENDMDL
MODEL 9
REMARK VINA RESULT:      -6.5      3.035      6.674
REMARK  Name = 
REMARK  23 active torsions:
REMARK  status: ('A' for Active; 'I' for Inactive)
REMARK    1  A    between atoms: C_1  and  C_2
REMARK    2  A    between atoms: C_4  and  O_69
REMARK    3  A    between atoms: C_6  and  O_68
REMARK    4  A    between atoms: C_8  and  O_67
REMARK    5  A    between atoms: C_10  and  O_13
REMARK    6  A    between atoms: O_13  and  C_14
REMARK    7  A    between atoms: C_14  and  C_15
REMARK    8  A    between atoms: C_17  and  O_66
REMARK    9  A    between atoms: C_19  and  O_65
REMARK   10  A    between atoms: C_21  and  O_64
REMARK   11  A    between atoms: C_23  and  O_26
REMARK   12  A    between atoms: O_26  and  C_27
REMARK   13  A    between atoms: C_28  and  C_56
REMARK   14  A    between atoms: C_32  and  O_39
REMARK   15  A    between atoms: C_34  and  O_38
REMARK   16  A    between atoms: O_39  and  C_40
REMARK   17  A    between atoms: C_42  and  O_55
REMARK   18  A    between atoms: C_44  and  O_54
REMARK   19  A    between atoms: C_46  and  O_53
REMARK   20  A    between atoms: C_48  and  C_51
REMARK   21  A    between atoms: C_51  and  O_52
REMARK   22  A    between atoms: C_58  and  O_63
REMARK   23  A    between atoms: C_59  and  O_62
REMARK                            x       y       z     vdW  Elec       q    Type
REMARK                         _______ _______ _______ _____ _____    ______ ____
ROOT
ATOM      1  C   UNL     1       8.555  -2.046  25.703  0.00  0.00    +0.214 A 
ATOM      2  C   UNL     1       8.642  -3.463  25.151  0.00  0.00    +0.238 A 
ATOM      3  O   UNL     1       9.688  -4.087  24.982  0.00  0.00    -0.283 OA
ATOM      4  C   UNL     1       7.405  -4.160  24.812  0.00  0.00    +0.109 A 
ATOM      5  C   UNL     1       6.258  -3.678  25.394  0.00  0.00    +0.147 A 
ATOM      6  C   UNL     1       5.045  -4.330  25.204  0.00  0.00    +0.093 A 
ATOM      7  C   UNL     1       4.965  -5.430  24.342  0.00  0.00    +0.131 A 
ATOM      8  C   UNL     1       6.132  -5.933  23.757  0.00  0.00    +0.092 A 
ATOM      9  O   UNL     1       6.246  -2.558  26.165  0.00  0.00    -0.451 OA
ATOM     10  C   UNL     1       7.348  -5.297  23.994  0.00  0.00    +0.135 A 
ATOM     11  C   UNL     1       7.325  -1.667  26.151  0.00  0.00    +0.181 A 
ENDROOT
BRANCH  11  12
ATOM     12  C   UNL     1       6.885  -0.356  26.763  0.00  0.00    +0.025 A 
ATOM     13  C   UNL     1       7.558   0.099  27.937  0.00  0.00    +0.015 A 
ATOM     14  C   UNL     1       7.296   1.333  28.539  0.00  0.00    +0.050 A 
ATOM     15  C   UNL     1       6.324   2.145  27.981  0.00  0.00    +0.158 A 
ATOM     16  C   UNL     1       5.579   1.698  26.903  0.00  0.00    +0.159 A 
ATOM     17  C   UNL     1       5.851   0.464  26.285  0.00  0.00    +0.060 A 
BRANCH  16  18
ATOM     18  O   UNL     1       4.564   2.509  26.485  0.00  0.00    -0.503 OA
ATOM     19  H   UNL     1       4.407   3.163  27.187  0.00  0.00    +0.292 HD
ENDBRANCH  16  18
BRANCH  15  20
ATOM     20  O   UNL     1       6.112   3.376  28.528  0.00  0.00    -0.503 OA
ATOM     21  H   UNL     1       5.417   3.773  27.967  0.00  0.00    +0.292 HD
ENDBRANCH  15  20
ENDBRANCH  11  12
BRANCH  10  22
ATOM     22  O   UNL     1       8.465  -5.770  23.369  0.00  0.00    -0.506 OA
ATOM     23  H   UNL     1       9.261  -5.436  23.812  0.00  0.00    +0.292 HD
ENDBRANCH  10  22
BRANCH   7  24
ATOM     24  O   UNL     1       3.778  -6.044  24.001  0.00  0.00    -0.461 OA
BRANCH  24  25
ATOM     25  C   UNL     1       3.404  -7.084  24.918  0.00  0.00    +0.339 C 
ATOM     26  O   UNL     1       2.956  -8.265  24.244  0.00  0.00    -0.331 OA
ATOM     27  C   UNL     1       1.632  -8.233  23.687  0.00  0.00    +0.179 C 
ATOM     28  C   UNL     1       0.571  -7.809  24.715  0.00  0.00    +0.177 C 
ATOM     29  C   UNL     1       0.951  -6.547  25.504  0.00  0.00    +0.180 C 
ATOM     30  C   UNL     1       2.407  -6.600  25.989  0.00  0.00    +0.214 C 
BRANCH  30  31
ATOM     31  O   UNL     1       2.471  -7.520  27.102  0.00  0.00    -0.383 OA
ATOM     32  H   UNL     1       2.129  -8.381  26.776  0.00  0.00    +0.210 HD
ENDBRANCH  30  31
BRANCH  29  33
ATOM     33  O   UNL     1       0.620  -5.344  24.818  0.00  0.00    -0.386 OA
ATOM     34  H   UNL     1      -0.117  -5.478  24.203  0.00  0.00    +0.210 HD
ENDBRANCH  29  33
BRANCH  28  35
ATOM     35  O   UNL     1       0.444  -8.897  25.652  0.00  0.00    -0.386 OA
ATOM     36  H   UNL     1      -0.435  -8.826  26.067  0.00  0.00    +0.210 HD
ENDBRANCH  28  35
BRANCH  27  37
ATOM     37  C   UNL     1       1.592  -7.453  22.366  0.00  0.00    +0.190 C 
BRANCH  37  38
ATOM     38  O   UNL     1       1.503  -8.358  21.267  0.00  0.00    -0.392 OA
ATOM     39  H   UNL     1       2.007  -9.155  21.524  0.00  0.00    +0.210 HD
ENDBRANCH  37  38
ENDBRANCH  27  37
ENDBRANCH  24  25
ENDBRANCH   7  24
BRANCH   1  40
ATOM     40  O   UNL     1       9.690  -1.209  25.758  0.00  0.00    -0.453 OA
BRANCH  40  43
ATOM     41  C   UNL     1       9.430   1.859  23.864  0.00  0.00    +0.179 C 
ATOM     42  O   UNL     1       9.071   0.828  24.792  0.00  0.00    -0.331 OA
ATOM     43  C   UNL     1       9.850  -0.355  24.606  0.00  0.00    +0.340 C 
ATOM     44  C   UNL     1       9.488  -0.990  23.242  0.00  0.00    +0.214 C 
ATOM     45  C   UNL     1       9.721   0.094  22.153  0.00  0.00    +0.180 C 
ATOM     46  C   UNL     1       8.993   1.411  22.468  0.00  0.00    +0.177 C 
BRANCH  46  47
ATOM     47  O   UNL     1       9.340   2.371  21.462  0.00  0.00    -0.386 OA
ATOM     48  H   UNL     1       9.231   1.921  20.603  0.00  0.00    +0.210 HD
ENDBRANCH  46  47
BRANCH  45  49
ATOM     49  O   UNL     1       9.331  -0.382  20.858  0.00  0.00    -0.386 OA
ATOM     50  H   UNL     1      10.081  -0.153  20.270  0.00  0.00    +0.210 HD
ENDBRANCH  45  49
BRANCH  44  51
ATOM     51  O   UNL     1      10.343  -2.122  22.985  0.00  0.00    -0.383 OA
ATOM     52  H   UNL     1      11.082  -1.804  22.432  0.00  0.00    +0.210 HD
ENDBRANCH  44  51
BRANCH  41  53
ATOM     53  C   UNL     1       8.797   3.168  24.331  0.00  0.00    +0.197 C 
BRANCH  53  54
ATOM     54  O   UNL     1       7.382   3.015  24.364  0.00  0.00    -0.346 OA
BRANCH  54  58
ATOM     55  C   UNL     1       5.967   7.108  24.830  0.00  0.00    +0.041 C 
ATOM     56  C   UNL     1       5.178   5.833  25.105  0.00  0.00    +0.149 C 
ATOM     57  O   UNL     1       6.027   4.692  25.275  0.00  0.00    -0.343 OA
ATOM     58  C   UNL     1       6.679   4.230  24.094  0.00  0.00    +0.282 C 
ATOM     59  C   UNL     1       5.693   3.906  22.950  0.00  0.00    +0.201 C 
ATOM     60  C   UNL     1       4.657   5.018  22.748  0.00  0.00    +0.179 C 
ATOM     61  C   UNL     1       4.081   5.499  24.084  0.00  0.00    +0.174 C 
BRANCH  61  62
ATOM     62  O   UNL     1       3.266   4.448  24.630  0.00  0.00    -0.387 OA
ATOM     63  H   UNL     1       2.704   4.840  25.330  0.00  0.00    +0.210 HD
ENDBRANCH  61  62
BRANCH  60  64
ATOM     64  O   UNL     1       5.210   6.100  21.985  0.00  0.00    -0.386 OA
ATOM     65  H   UNL     1       5.413   5.794  21.084  0.00  0.00    +0.210 HD
ENDBRANCH  60  64
BRANCH  59  66
ATOM     66  O   UNL     1       6.426   3.692  21.728  0.00  0.00    -0.384 OA
ATOM     67  H   UNL     1       7.341   3.999  21.870  0.00  0.00    +0.210 HD
ENDBRANCH  59  66
ENDBRANCH  54  58
ENDBRANCH  53  54
ENDBRANCH  41  53
ENDBRANCH  40  43
ENDBRANCH   1  40
TORSDOF 22
ENDMDL
