MODEL 1
REMARK VINA RESULT:      -6.1      0.000      0.000
REMARK  Name = 
REMARK  30 active torsions:
REMARK  status: ('A' for Active; 'I' for Inactive)
REMARK    1  A    between atoms: C_1  and  O_2
REMARK    2  A    between atoms: O_2  and  C_3
REMARK    3  A    between atoms: C_4  and  O_83
REMARK    4  A    between atoms: C_7  and  C_9
REMARK    5  A    between atoms: C_10  and  C_11
REMARK    6  A    between atoms: C_11  and  O_13
REMARK    7  A    between atoms: O_13  and  C_14
REMARK    8  A    between atoms: C_14  and  C_15
REMARK    9  A    between atoms: C_17  and  O_82
REMARK   10  A    between atoms: C_19  and  O_81
REMARK   11  A    between atoms: C_21  and  O_80
REMARK   12  A    between atoms: C_23  and  O_26
REMARK   13  A    between atoms: O_26  and  C_27
REMARK   14  A    between atoms: C_29  and  O_79
REMARK   15  A    between atoms: C_31  and  O_78
REMARK   16  A    between atoms: C_33  and  C_76
REMARK   17  A    between atoms: C_36  and  O_38
REMARK   18  A    between atoms: O_38  and  C_39
REMARK   19  A    between atoms: C_40  and  C_68
REMARK   20  A    between atoms: C_44  and  O_51
REMARK   21  A    between atoms: C_46  and  O_50
REMARK   22  A    between atoms: O_51  and  C_52
REMARK   23  A    between atoms: C_54  and  O_67
REMARK   24  A    between atoms: C_56  and  O_66
REMARK   25  A    between atoms: C_58  and  O_65
REMARK   26  A    between atoms: C_60  and  C_63
REMARK   27  A    between atoms: C_63  and  O_64
REMARK   28  A    between atoms: C_70  and  O_75
REMARK   29  A    between atoms: C_71  and  O_74
REMARK   30  A    between atoms: C_76  and  O_77
REMARK                            x       y       z     vdW  Elec       q    Type
REMARK                         _______ _______ _______ _____ _____    ______ ____
ROOT
ATOM      1  C   UNL     1       7.872   5.292  24.923  0.00  0.00    +0.221 C 
ATOM      2  C   UNL     1       8.409   5.340  23.436  0.00  0.00    +0.340 C 
ATOM      3  O   UNL     1       9.804   4.897  23.417  0.00  0.00    -0.331 OA
ATOM      4  C   UNL     1      10.613   5.944  24.042  0.00  0.00    +0.179 C 
ATOM      5  C   UNL     1      10.243   6.050  25.532  0.00  0.00    +0.177 C 
ATOM      6  C   UNL     1       8.738   6.340  25.686  0.00  0.00    +0.180 C 
ENDROOT
BRANCH   6   7
ATOM      7  O   UNL     1       8.445   6.381  27.094  0.00  0.00    -0.386 OA
ATOM      8  H   UNL     1       7.476   6.496  27.142  0.00  0.00    +0.210 HD
ENDBRANCH   6   7
BRANCH   5   9
ATOM      9  O   UNL     1      10.993   7.092  26.182  0.00  0.00    -0.386 OA
ATOM     10  H   UNL     1      11.932   6.831  26.064  0.00  0.00    +0.210 HD
ENDBRANCH   5   9
BRANCH   4  11
ATOM     11  C   UNL     1      12.122   5.744  23.822  0.00  0.00    +0.190 C 
BRANCH  11  12
ATOM     12  O   UNL     1      12.906   6.640  24.614  0.00  0.00    -0.392 OA
ATOM     13  H   UNL     1      12.799   6.369  25.553  0.00  0.00    +0.210 HD
ENDBRANCH  11  12
ENDBRANCH   4  11
BRANCH   2  14
ATOM     14  O   UNL     1       7.529   4.692  22.474  0.00  0.00    -0.453 OA
BRANCH  14  15
ATOM     15  C   UNL     1       7.233   3.343  22.816  0.00  0.00    +0.214 A 
ATOM     16  C   UNL     1       8.249   2.231  22.519  0.00  0.00    +0.238 A 
ATOM     17  O   UNL     1       9.372   2.429  22.067  0.00  0.00    -0.283 OA
ATOM     18  C   UNL     1       7.903   0.846  22.737  0.00  0.00    +0.109 A 
ATOM     19  C   UNL     1       6.727   0.606  23.410  0.00  0.00    +0.147 A 
ATOM     20  C   UNL     1       6.398  -0.704  23.757  0.00  0.00    +0.093 A 
ATOM     21  C   UNL     1       7.217  -1.766  23.365  0.00  0.00    +0.131 A 
ATOM     22  C   UNL     1       8.393  -1.517  22.655  0.00  0.00    +0.092 A 
ATOM     23  O   UNL     1       5.851   1.599  23.737  0.00  0.00    -0.451 OA
ATOM     24  C   UNL     1       8.732  -0.214  22.336  0.00  0.00    +0.135 A 
ATOM     25  C   UNL     1       6.019   2.915  23.264  0.00  0.00    +0.181 A 
BRANCH  25  26
ATOM     26  C   UNL     1       4.676   3.636  23.308  0.00  0.00    +0.025 A 
ATOM     27  C   UNL     1       3.671   3.051  24.135  0.00  0.00    +0.015 A 
ATOM     28  C   UNL     1       2.349   3.509  24.197  0.00  0.00    +0.050 A 
ATOM     29  C   UNL     1       1.989   4.609  23.458  0.00  0.00    +0.158 A 
ATOM     30  C   UNL     1       2.950   5.262  22.691  0.00  0.00    +0.159 A 
ATOM     31  C   UNL     1       4.279   4.782  22.590  0.00  0.00    +0.060 A 
BRANCH  30  32
ATOM     32  O   UNL     1       2.546   6.405  22.052  0.00  0.00    -0.503 OA
ATOM     33  H   UNL     1       2.399   6.165  21.119  0.00  0.00    +0.292 HD
ENDBRANCH  30  32
BRANCH  29  34
ATOM     34  O   UNL     1       0.698   5.047  23.538  0.00  0.00    -0.503 OA
ATOM     35  H   UNL     1       0.135   4.251  23.507  0.00  0.00    +0.292 HD
ENDBRANCH  29  34
ENDBRANCH  25  26
BRANCH  24  36
ATOM     36  O   UNL     1       9.875  -0.003  21.616  0.00  0.00    -0.506 OA
ATOM     37  H   UNL     1      10.371   0.759  21.952  0.00  0.00    +0.292 HD
ENDBRANCH  24  36
BRANCH  21  38
ATOM     38  O   UNL     1       6.973  -3.087  23.574  0.00  0.00    -0.461 OA
BRANCH  38  39
ATOM     39  C   UNL     1       5.612  -3.478  23.775  0.00  0.00    +0.339 C 
ATOM     40  O   UNL     1       5.421  -3.927  25.128  0.00  0.00    -0.331 OA
ATOM     41  C   UNL     1       5.889  -5.239  25.481  0.00  0.00    +0.179 C 
ATOM     42  C   UNL     1       5.545  -6.338  24.453  0.00  0.00    +0.177 C 
ATOM     43  C   UNL     1       5.746  -5.894  22.998  0.00  0.00    +0.180 C 
ATOM     44  C   UNL     1       5.089  -4.527  22.769  0.00  0.00    +0.214 C 
BRANCH  44  45
ATOM     45  O   UNL     1       3.659  -4.634  22.903  0.00  0.00    -0.383 OA
ATOM     46  H   UNL     1       3.301  -4.778  22.001  0.00  0.00    +0.210 HD
ENDBRANCH  44  45
BRANCH  43  47
ATOM     47  O   UNL     1       7.112  -5.925  22.591  0.00  0.00    -0.386 OA
ATOM     48  H   UNL     1       7.657  -5.439  23.247  0.00  0.00    +0.210 HD
ENDBRANCH  43  47
BRANCH  42  49
ATOM     49  O   UNL     1       4.152  -6.664  24.635  0.00  0.00    -0.386 OA
ATOM     50  H   UNL     1       4.080  -7.192  25.454  0.00  0.00    +0.210 HD
ENDBRANCH  42  49
BRANCH  41  51
ATOM     51  C   UNL     1       7.362  -5.237  25.913  0.00  0.00    +0.190 C 
BRANCH  51  52
ATOM     52  O   UNL     1       7.779  -3.977  26.425  0.00  0.00    -0.392 OA
ATOM     53  H   UNL     1       8.708  -4.113  26.710  0.00  0.00    +0.210 HD
ENDBRANCH  51  52
ENDBRANCH  41  51
ENDBRANCH  38  39
ENDBRANCH  21  38
ENDBRANCH  14  15
ENDBRANCH   2  14
BRANCH   1  54
ATOM     54  O   UNL     1       6.461   5.574  25.188  0.00  0.00    -0.337 OA
BRANCH  54  57
ATOM     55  C   UNL     1       5.555   3.258  27.918  0.00  0.00    +0.190 C 
ATOM     56  O   UNL     1       6.039   3.742  26.639  0.00  0.00    -0.339 OA
ATOM     57  C   UNL     1       5.881   5.181  26.454  0.00  0.00    +0.282 C 
ATOM     58  C   UNL     1       4.406   5.614  26.601  0.00  0.00    +0.201 C 
ATOM     59  C   UNL     1       3.803   5.032  27.882  0.00  0.00    +0.179 C 
ATOM     60  C   UNL     1       4.046   3.534  28.012  0.00  0.00    +0.178 C 
BRANCH  58  61
ATOM     61  O   UNL     1       4.293   7.049  26.660  0.00  0.00    -0.384 OA
ATOM     62  H   UNL     1       3.814   7.354  25.870  0.00  0.00    +0.210 HD
ENDBRANCH  58  61
BRANCH  59  63
ATOM     63  O   UNL     1       2.392   5.280  27.924  0.00  0.00    -0.386 OA
ATOM     64  H   UNL     1       2.271   6.146  27.488  0.00  0.00    +0.210 HD
ENDBRANCH  59  63
BRANCH  60  65
ATOM     65  O   UNL     1       3.465   3.129  29.257  0.00  0.00    -0.386 OA
ATOM     66  H   UNL     1       3.781   3.757  29.935  0.00  0.00    +0.210 HD
ENDBRANCH  60  65
BRANCH  55  67
ATOM     67  C   UNL     1       5.840   1.740  28.097  0.00  0.00    +0.266 C 
BRANCH  67  68
ATOM     68  O   UNL     1       4.624   0.944  28.210  0.00  0.00    -0.459 OA
BRANCH  68  69
ATOM     69  C   UNL     1       4.316   0.136  27.154  0.00  0.00    +0.332 C 
ATOM     70  O   UNL     1       3.923   0.511  26.066  0.00  0.00    -0.246 OA
BRANCH  69  72
ATOM     71  C   UNL     1       3.559  -2.147  27.726  0.00  0.00    +0.015 C 
ATOM     72  C   UNL     1       4.576  -1.285  27.530  0.00  0.00    +0.092 C 
BRANCH  71  75
ATOM     73  C   UNL     1       3.049  -5.928  27.770  0.00  0.00    +0.162 A 
ATOM     74  C   UNL     1       2.879  -4.573  27.454  0.00  0.00    +0.057 A 
ATOM     75  C   UNL     1       3.693  -3.589  28.040  0.00  0.00    -0.021 A 
ATOM     76  C   UNL     1       4.702  -4.001  28.928  0.00  0.00    +0.012 A 
ATOM     77  C   UNL     1       4.864  -5.351  29.264  0.00  0.00    +0.050 A 
ATOM     78  C   UNL     1       4.030  -6.299  28.693  0.00  0.00    +0.158 A 
BRANCH  73  80
ATOM     79  C   UNL     1       1.105  -6.562  26.588  0.00  0.00    +0.277 C 
ATOM     80  O   UNL     1       2.296  -6.959  27.262  0.00  0.00    -0.491 OA
ENDBRANCH  73  80
BRANCH  78  81
ATOM     81  O   UNL     1       4.201  -7.613  29.036  0.00  0.00    -0.503 OA
ATOM     82  H   UNL     1       5.120  -7.827  28.783  0.00  0.00    +0.292 HD
ENDBRANCH  78  81
ENDBRANCH  71  75
ENDBRANCH  69  72
ENDBRANCH  68  69
ENDBRANCH  67  68
ENDBRANCH  55  67
ENDBRANCH  54  57
ENDBRANCH   1  54
TORSDOF 29
ENDMDL
MODEL 2
REMARK VINA RESULT:      -5.8      1.898      6.173
REMARK  Name = 
REMARK  30 active torsions:
REMARK  status: ('A' for Active; 'I' for Inactive)
REMARK    1  A    between atoms: C_1  and  O_2
REMARK    2  A    between atoms: O_2  and  C_3
REMARK    3  A    between atoms: C_4  and  O_83
REMARK    4  A    between atoms: C_7  and  C_9
REMARK    5  A    between atoms: C_10  and  C_11
REMARK    6  A    between atoms: C_11  and  O_13
REMARK    7  A    between atoms: O_13  and  C_14
REMARK    8  A    between atoms: C_14  and  C_15
REMARK    9  A    between atoms: C_17  and  O_82
REMARK   10  A    between atoms: C_19  and  O_81
REMARK   11  A    between atoms: C_21  and  O_80
REMARK   12  A    between atoms: C_23  and  O_26
REMARK   13  A    between atoms: O_26  and  C_27
REMARK   14  A    between atoms: C_29  and  O_79
REMARK   15  A    between atoms: C_31  and  O_78
REMARK   16  A    between atoms: C_33  and  C_76
REMARK   17  A    between atoms: C_36  and  O_38
REMARK   18  A    between atoms: O_38  and  C_39
REMARK   19  A    between atoms: C_40  and  C_68
REMARK   20  A    between atoms: C_44  and  O_51
REMARK   21  A    between atoms: C_46  and  O_50
REMARK   22  A    between atoms: O_51  and  C_52
REMARK   23  A    between atoms: C_54  and  O_67
REMARK   24  A    between atoms: C_56  and  O_66
REMARK   25  A    between atoms: C_58  and  O_65
REMARK   26  A    between atoms: C_60  and  C_63
REMARK   27  A    between atoms: C_63  and  O_64
REMARK   28  A    between atoms: C_70  and  O_75
REMARK   29  A    between atoms: C_71  and  O_74
REMARK   30  A    between atoms: C_76  and  O_77
REMARK                            x       y       z     vdW  Elec       q    Type
REMARK                         _______ _______ _______ _____ _____    ______ ____
ROOT
ATOM      1  C   UNL     1       4.984   3.059  22.822  0.00  0.00    +0.221 C 
ATOM      2  C   UNL     1       5.367   3.214  24.349  0.00  0.00    +0.340 C 
ATOM      3  O   UNL     1       4.184   2.946  25.168  0.00  0.00    -0.331 OA
ATOM      4  C   UNL     1       3.257   4.066  24.994  0.00  0.00    +0.179 C 
ATOM      5  C   UNL     1       2.748   4.084  23.543  0.00  0.00    +0.177 C 
ATOM      6  C   UNL     1       3.934   4.182  22.565  0.00  0.00    +0.180 C 
ENDROOT
BRANCH   6   7
ATOM      7  O   UNL     1       3.401   4.148  21.229  0.00  0.00    -0.386 OA
ATOM      8  H   UNL     1       2.505   4.528  21.310  0.00  0.00    +0.210 HD
ENDBRANCH   6   7
BRANCH   5   9
ATOM      9  O   UNL     1       1.857   5.190  23.317  0.00  0.00    -0.386 OA
ATOM     10  H   UNL     1       1.645   5.524  24.214  0.00  0.00    +0.210 HD
ENDBRANCH   5   9
BRANCH   4  11
ATOM     11  C   UNL     1       2.112   4.058  26.021  0.00  0.00    +0.190 C 
BRANCH  11  12
ATOM     12  O   UNL     1       0.865   3.677  25.435  0.00  0.00    -0.392 OA
ATOM     13  H   UNL     1       0.220   3.563  26.169  0.00  0.00    +0.210 HD
ENDBRANCH  11  12
ENDBRANCH   4  11
BRANCH   2  14
ATOM     14  O   UNL     1       6.572   2.492  24.728  0.00  0.00    -0.453 OA
BRANCH  14  15
ATOM     15  C   UNL     1       6.296   1.294  25.445  0.00  0.00    +0.214 A 
ATOM     16  C   UNL     1       5.976  -0.002  24.688  0.00  0.00    +0.238 A 
ATOM     17  O   UNL     1       6.019  -0.113  23.467  0.00  0.00    -0.283 OA
ATOM     18  C   UNL     1       5.563  -1.186  25.404  0.00  0.00    +0.109 A 
ATOM     19  C   UNL     1       5.681  -1.146  26.775  0.00  0.00    +0.147 A 
ATOM     20  C   UNL     1       5.412  -2.298  27.513  0.00  0.00    +0.093 A 
ATOM     21  C   UNL     1       4.962  -3.458  26.876  0.00  0.00    +0.131 A 
ATOM     22  C   UNL     1       4.815  -3.481  25.488  0.00  0.00    +0.092 A 
ATOM     23  O   UNL     1       6.030  -0.014  27.449  0.00  0.00    -0.451 OA
ATOM     24  C   UNL     1       5.109  -2.345  24.753  0.00  0.00    +0.135 A 
ATOM     25  C   UNL     1       6.137   1.230  26.797  0.00  0.00    +0.181 A 
BRANCH  25  26
ATOM     26  C   UNL     1       5.990   2.346  27.826  0.00  0.00    +0.025 A 
ATOM     27  C   UNL     1       4.702   2.494  28.420  0.00  0.00    +0.015 A 
ATOM     28  C   UNL     1       4.357   3.539  29.286  0.00  0.00    +0.050 A 
ATOM     29  C   UNL     1       5.314   4.463  29.629  0.00  0.00    +0.158 A 
ATOM     30  C   UNL     1       6.608   4.323  29.135  0.00  0.00    +0.159 A 
ATOM     31  C   UNL     1       6.954   3.293  28.226  0.00  0.00    +0.060 A 
BRANCH  30  32
ATOM     32  O   UNL     1       7.534   5.225  29.590  0.00  0.00    -0.503 OA
ATOM     33  H   UNL     1       7.795   4.930  30.482  0.00  0.00    +0.292 HD
ENDBRANCH  30  32
BRANCH  29  34
ATOM     34  O   UNL     1       4.964   5.469  30.482  0.00  0.00    -0.503 OA
ATOM     35  H   UNL     1       4.204   5.140  30.999  0.00  0.00    +0.292 HD
ENDBRANCH  29  34
ENDBRANCH  25  26
BRANCH  24  36
ATOM     36  O   UNL     1       4.929  -2.389  23.399  0.00  0.00    -0.506 OA
ATOM     37  H   UNL     1       4.900  -1.499  23.016  0.00  0.00    +0.292 HD
ENDBRANCH  24  36
BRANCH  21  38
ATOM     38  O   UNL     1       4.597  -4.617  27.485  0.00  0.00    -0.461 OA
BRANCH  38  39
ATOM     39  C   UNL     1       3.516  -4.554  28.419  0.00  0.00    +0.339 C 
ATOM     40  O   UNL     1       3.977  -4.915  29.734  0.00  0.00    -0.331 OA
ATOM     41  C   UNL     1       4.193  -6.306  30.021  0.00  0.00    +0.179 C 
ATOM     42  C   UNL     1       3.070  -7.242  29.524  0.00  0.00    +0.177 C 
ATOM     43  C   UNL     1       2.561  -6.890  28.120  0.00  0.00    +0.180 C 
ATOM     44  C   UNL     1       2.276  -5.386  28.025  0.00  0.00    +0.214 C 
BRANCH  44  45
ATOM     45  O   UNL     1       1.179  -5.032  28.889  0.00  0.00    -0.383 OA
ATOM     46  H   UNL     1       1.118  -5.736  29.570  0.00  0.00    +0.210 HD
ENDBRANCH  44  45
BRANCH  43  47
ATOM     47  O   UNL     1       3.423  -7.355  27.084  0.00  0.00    -0.386 OA
ATOM     48  H   UNL     1       4.003  -8.063  27.438  0.00  0.00    +0.210 HD
ENDBRANCH  43  47
BRANCH  42  49
ATOM     49  O   UNL     1       1.970  -7.107  30.448  0.00  0.00    -0.386 OA
ATOM     50  H   UNL     1       1.694  -6.170  30.437  0.00  0.00    +0.210 HD
ENDBRANCH  42  49
BRANCH  41  51
ATOM     51  C   UNL     1       5.603  -6.770  29.628  0.00  0.00    +0.190 C 
BRANCH  51  52
ATOM     52  O   UNL     1       5.613  -7.519  28.419  0.00  0.00    -0.392 OA
ATOM     53  H   UNL     1       5.129  -6.964  27.772  0.00  0.00    +0.210 HD
ENDBRANCH  51  52
ENDBRANCH  41  51
ENDBRANCH  38  39
ENDBRANCH  21  38
ENDBRANCH  14  15
ENDBRANCH   2  14
BRANCH   1  54
ATOM     54  O   UNL     1       6.030   3.158  21.804  0.00  0.00    -0.337 OA
BRANCH  54  57
ATOM     55  C   UNL     1       9.343   3.553  23.386  0.00  0.00    +0.190 C 
ATOM     56  O   UNL     1       8.039   3.008  23.060  0.00  0.00    -0.339 OA
ATOM     57  C   UNL     1       7.275   3.823  22.122  0.00  0.00    +0.282 C 
ATOM     58  C   UNL     1       7.073   5.259  22.651  0.00  0.00    +0.201 C 
ATOM     59  C   UNL     1       8.405   5.848  23.121  0.00  0.00    +0.179 C 
ATOM     60  C   UNL     1       9.152   4.917  24.068  0.00  0.00    +0.178 C 
BRANCH  58  61
ATOM     61  O   UNL     1       6.537   6.116  21.625  0.00  0.00    -0.384 OA
ATOM     62  H   UNL     1       6.088   6.867  22.051  0.00  0.00    +0.210 HD
ENDBRANCH  58  61
BRANCH  59  63
ATOM     63  O   UNL     1       8.189   7.104  23.778  0.00  0.00    -0.386 OA
ATOM     64  H   UNL     1       8.278   7.779  23.076  0.00  0.00    +0.210 HD
ENDBRANCH  59  63
BRANCH  60  65
ATOM     65  O   UNL     1      10.382   5.570  24.401  0.00  0.00    -0.386 OA
ATOM     66  H   UNL     1      10.631   5.267  25.295  0.00  0.00    +0.210 HD
ENDBRANCH  60  65
BRANCH  55  67
ATOM     67  C   UNL     1      10.147   2.595  24.308  0.00  0.00    +0.266 C 
BRANCH  67  68
ATOM     68  O   UNL     1      10.929   1.614  23.565  0.00  0.00    -0.459 OA
BRANCH  68  69
ATOM     69  C   UNL     1      10.232   0.671  22.868  0.00  0.00    +0.332 C 
ATOM     70  O   UNL     1      10.011   0.694  21.672  0.00  0.00    -0.246 OA
BRANCH  69  72
ATOM     71  C   UNL     1       9.187  -1.519  23.339  0.00  0.00    +0.015 C 
ATOM     72  C   UNL     1       9.812  -0.418  23.798  0.00  0.00    +0.092 C 
BRANCH  71  75
ATOM     73  C   UNL     1       7.822  -4.920  24.403  0.00  0.00    +0.162 A 
ATOM     74  C   UNL     1       8.180  -3.830  23.597  0.00  0.00    +0.057 A 
ATOM     75  C   UNL     1       8.781  -2.689  24.153  0.00  0.00    -0.021 A 
ATOM     76  C   UNL     1       9.041  -2.679  25.535  0.00  0.00    +0.012 A 
ATOM     77  C   UNL     1       8.668  -3.756  26.350  0.00  0.00    +0.050 A 
ATOM     78  C   UNL     1       8.052  -4.859  25.780  0.00  0.00    +0.158 A 
BRANCH  73  80
ATOM     79  C   UNL     1       6.124  -5.873  23.066  0.00  0.00    +0.277 C 
ATOM     80  O   UNL     1       7.220  -6.071  23.956  0.00  0.00    -0.491 OA
ENDBRANCH  73  80
BRANCH  78  81
ATOM     81  O   UNL     1       7.692  -5.899  26.592  0.00  0.00    -0.503 OA
ATOM     82  H   UNL     1       6.767  -6.103  26.356  0.00  0.00    +0.292 HD
ENDBRANCH  78  81
ENDBRANCH  71  75
ENDBRANCH  69  72
ENDBRANCH  68  69
ENDBRANCH  67  68
ENDBRANCH  55  67
ENDBRANCH  54  57
ENDBRANCH   1  54
TORSDOF 29
ENDMDL
MODEL 3
REMARK VINA RESULT:      -5.4      1.221      2.233
REMARK  Name = 
REMARK  30 active torsions:
REMARK  status: ('A' for Active; 'I' for Inactive)
REMARK    1  A    between atoms: C_1  and  O_2
REMARK    2  A    between atoms: O_2  and  C_3
REMARK    3  A    between atoms: C_4  and  O_83
REMARK    4  A    between atoms: C_7  and  C_9
REMARK    5  A    between atoms: C_10  and  C_11
REMARK    6  A    between atoms: C_11  and  O_13
REMARK    7  A    between atoms: O_13  and  C_14
REMARK    8  A    between atoms: C_14  and  C_15
REMARK    9  A    between atoms: C_17  and  O_82
REMARK   10  A    between atoms: C_19  and  O_81
REMARK   11  A    between atoms: C_21  and  O_80
REMARK   12  A    between atoms: C_23  and  O_26
REMARK   13  A    between atoms: O_26  and  C_27
REMARK   14  A    between atoms: C_29  and  O_79
REMARK   15  A    between atoms: C_31  and  O_78
REMARK   16  A    between atoms: C_33  and  C_76
REMARK   17  A    between atoms: C_36  and  O_38
REMARK   18  A    between atoms: O_38  and  C_39
REMARK   19  A    between atoms: C_40  and  C_68
REMARK   20  A    between atoms: C_44  and  O_51
REMARK   21  A    between atoms: C_46  and  O_50
REMARK   22  A    between atoms: O_51  and  C_52
REMARK   23  A    between atoms: C_54  and  O_67
REMARK   24  A    between atoms: C_56  and  O_66
REMARK   25  A    between atoms: C_58  and  O_65
REMARK   26  A    between atoms: C_60  and  C_63
REMARK   27  A    between atoms: C_63  and  O_64
REMARK   28  A    between atoms: C_70  and  O_75
REMARK   29  A    between atoms: C_71  and  O_74
REMARK   30  A    between atoms: C_76  and  O_77
REMARK                            x       y       z     vdW  Elec       q    Type
REMARK                         _______ _______ _______ _____ _____    ______ ____
ROOT
ATOM      1  C   UNL     1       7.927   5.245  24.935  0.00  0.00    +0.221 C 
ATOM      2  C   UNL     1       8.440   5.422  23.449  0.00  0.00    +0.340 C 
ATOM      3  O   UNL     1       9.853   5.045  23.384  0.00  0.00    -0.331 OA
ATOM      4  C   UNL     1      10.624   6.081  24.073  0.00  0.00    +0.179 C 
ATOM      5  C   UNL     1      10.271   6.065  25.571  0.00  0.00    +0.177 C 
ATOM      6  C   UNL     1       8.757   6.274  25.761  0.00  0.00    +0.180 C 
ENDROOT
BRANCH   6   7
ATOM      7  O   UNL     1       8.482   6.203  27.172  0.00  0.00    -0.386 OA
ATOM      8  H   UNL     1       7.809   5.500  27.258  0.00  0.00    +0.210 HD
ENDBRANCH   6   7
BRANCH   5   9
ATOM      9  O   UNL     1      10.983   7.090  26.285  0.00  0.00    -0.386 OA
ATOM     10  H   UNL     1      10.575   7.099  27.178  0.00  0.00    +0.210 HD
ENDBRANCH   5   9
BRANCH   4  11
ATOM     11  C   UNL     1      12.137   5.965  23.823  0.00  0.00    +0.190 C 
BRANCH  11  12
ATOM     12  O   UNL     1      12.897   6.772  24.726  0.00  0.00    -0.392 OA
ATOM     13  H   UNL     1      13.250   7.532  24.211  0.00  0.00    +0.210 HD
ENDBRANCH  11  12
ENDBRANCH   4  11
BRANCH   2  14
ATOM     14  O   UNL     1       7.577   4.805  22.454  0.00  0.00    -0.453 OA
BRANCH  14  15
ATOM     15  C   UNL     1       7.269   3.449  22.753  0.00  0.00    +0.214 A 
ATOM     16  C   UNL     1       8.373   2.382  22.726  0.00  0.00    +0.238 A 
ATOM     17  O   UNL     1       9.561   2.628  22.540  0.00  0.00    -0.283 OA
ATOM     18  C   UNL     1       8.048   0.986  22.894  0.00  0.00    +0.109 A 
ATOM     19  C   UNL     1       6.759   0.699  23.284  0.00  0.00    +0.147 A 
ATOM     20  C   UNL     1       6.417  -0.621  23.578  0.00  0.00    +0.093 A 
ATOM     21  C   UNL     1       7.350  -1.647  23.413  0.00  0.00    +0.131 A 
ATOM     22  C   UNL     1       8.646  -1.352  22.986  0.00  0.00    +0.092 A 
ATOM     23  O   UNL     1       5.790   1.653  23.375  0.00  0.00    -0.451 OA
ATOM     24  C   UNL     1       8.993  -0.038  22.721  0.00  0.00    +0.135 A 
ATOM     25  C   UNL     1       6.004   2.968  22.919  0.00  0.00    +0.181 A 
BRANCH  25  26
ATOM     26  C   UNL     1       4.657   3.624  22.635  0.00  0.00    +0.025 A 
ATOM     27  C   UNL     1       4.529   4.995  23.007  0.00  0.00    +0.015 A 
ATOM     28  C   UNL     1       3.329   5.714  22.933  0.00  0.00    +0.050 A 
ATOM     29  C   UNL     1       2.209   5.094  22.437  0.00  0.00    +0.158 A 
ATOM     30  C   UNL     1       2.298   3.778  21.990  0.00  0.00    +0.159 A 
ATOM     31  C   UNL     1       3.496   3.030  22.100  0.00  0.00    +0.060 A 
BRANCH  30  32
ATOM     32  O   UNL     1       1.168   3.250  21.423  0.00  0.00    -0.503 OA
ATOM     33  H   UNL     1       1.349   3.166  20.469  0.00  0.00    +0.292 HD
ENDBRANCH  30  32
BRANCH  29  34
ATOM     34  O   UNL     1       1.052   5.813  22.363  0.00  0.00    -0.503 OA
ATOM     35  H   UNL     1       0.348   5.238  22.716  0.00  0.00    +0.292 HD
ENDBRANCH  29  34
ENDBRANCH  25  26
BRANCH  24  36
ATOM     36  O   UNL     1      10.261   0.218  22.279  0.00  0.00    -0.506 OA
ATOM     37  H   UNL     1      10.570  -0.470  21.669  0.00  0.00    +0.292 HD
ENDBRANCH  24  36
BRANCH  21  38
ATOM     38  O   UNL     1       7.123  -2.975  23.594  0.00  0.00    -0.461 OA
BRANCH  38  39
ATOM     39  C   UNL     1       8.047  -3.692  24.417  0.00  0.00    +0.339 C 
ATOM     40  O   UNL     1       7.901  -5.108  24.209  0.00  0.00    -0.331 OA
ATOM     41  C   UNL     1       6.783  -5.773  24.820  0.00  0.00    +0.179 C 
ATOM     42  C   UNL     1       6.529  -5.375  26.290  0.00  0.00    +0.177 C 
ATOM     43  C   UNL     1       6.669  -3.868  26.545  0.00  0.00    +0.180 C 
ATOM     44  C   UNL     1       7.969  -3.347  25.921  0.00  0.00    +0.214 C 
BRANCH  44  45
ATOM     45  O   UNL     1       9.108  -3.918  26.593  0.00  0.00    -0.383 OA
ATOM     46  H   UNL     1       8.910  -4.871  26.722  0.00  0.00    +0.210 HD
ENDBRANCH  44  45
BRANCH  43  47
ATOM     47  O   UNL     1       5.523  -3.126  26.134  0.00  0.00    -0.386 OA
ATOM     48  H   UNL     1       5.348  -3.300  25.184  0.00  0.00    +0.210 HD
ENDBRANCH  43  47
BRANCH  42  49
ATOM     49  O   UNL     1       7.516  -6.059  27.088  0.00  0.00    -0.386 OA
ATOM     50  H   UNL     1       7.054  -6.443  27.858  0.00  0.00    +0.210 HD
ENDBRANCH  42  49
BRANCH  41  51
ATOM     51  C   UNL     1       5.525  -5.726  23.941  0.00  0.00    +0.190 C 
BRANCH  51  52
ATOM     52  O   UNL     1       4.742  -6.909  24.047  0.00  0.00    -0.392 OA
ATOM     53  H   UNL     1       5.186  -7.560  23.462  0.00  0.00    +0.210 HD
ENDBRANCH  51  52
ENDBRANCH  41  51
ENDBRANCH  38  39
ENDBRANCH  21  38
ENDBRANCH  14  15
ENDBRANCH   2  14
BRANCH   1  54
ATOM     54  O   UNL     1       6.508   5.443  25.236  0.00  0.00    -0.337 OA
BRANCH  54  57
ATOM     55  C   UNL     1       4.825   2.885  27.297  0.00  0.00    +0.190 C 
ATOM     56  O   UNL     1       5.350   3.577  26.137  0.00  0.00    -0.339 OA
ATOM     57  C   UNL     1       5.948   4.873  26.441  0.00  0.00    +0.282 C 
ATOM     58  C   UNL     1       4.942   5.811  27.141  0.00  0.00    +0.201 C 
ATOM     59  C   UNL     1       4.265   5.094  28.311  0.00  0.00    +0.179 C 
ATOM     60  C   UNL     1       3.702   3.735  27.913  0.00  0.00    +0.178 C 
BRANCH  58  61
ATOM     61  O   UNL     1       5.602   6.985  27.652  0.00  0.00    -0.384 OA
ATOM     62  H   UNL     1       6.546   6.782  27.774  0.00  0.00    +0.210 HD
ENDBRANCH  58  61
BRANCH  59  63
ATOM     63  O   UNL     1       3.205   5.899  28.842  0.00  0.00    -0.386 OA
ATOM     64  H   UNL     1       2.540   5.950  28.127  0.00  0.00    +0.210 HD
ENDBRANCH  59  63
BRANCH  60  65
ATOM     65  O   UNL     1       3.132   3.164  29.096  0.00  0.00    -0.386 OA
ATOM     66  H   UNL     1       3.678   3.466  29.848  0.00  0.00    +0.210 HD
ENDBRANCH  60  65
BRANCH  55  67
ATOM     67  C   UNL     1       4.292   1.473  26.926  0.00  0.00    +0.266 C 
BRANCH  67  68
ATOM     68  O   UNL     1       2.917   1.493  26.442  0.00  0.00    -0.459 OA
BRANCH  68  69
ATOM     69  C   UNL     1       2.017   0.717  27.113  0.00  0.00    +0.332 C 
ATOM     70  O   UNL     1       0.939   1.090  27.538  0.00  0.00    -0.246 OA
BRANCH  69  72
ATOM     71  C   UNL     1       1.739  -1.737  27.009  0.00  0.00    +0.015 C 
ATOM     72  C   UNL     1       2.543  -0.675  27.210  0.00  0.00    +0.092 C 
BRANCH  71  75
ATOM     73  C   UNL     1       3.092  -5.128  28.118  0.00  0.00    +0.162 A 
ATOM     74  C   UNL     1       2.719  -3.777  28.149  0.00  0.00    +0.057 A 
ATOM     75  C   UNL     1       2.159  -3.158  27.019  0.00  0.00    -0.021 A 
ATOM     76  C   UNL     1       1.956  -3.936  25.865  0.00  0.00    +0.012 A 
ATOM     77  C   UNL     1       2.344  -5.280  25.820  0.00  0.00    +0.050 A 
ATOM     78  C   UNL     1       2.920  -5.860  26.940  0.00  0.00    +0.158 A 
BRANCH  73  80
ATOM     79  C   UNL     1       4.913  -5.312  29.610  0.00  0.00    +0.277 C 
ATOM     80  O   UNL     1       3.657  -5.817  29.163  0.00  0.00    -0.491 OA
ENDBRANCH  73  80
BRANCH  78  81
ATOM     81  O   UNL     1       3.296  -7.174  26.876  0.00  0.00    -0.503 OA
ATOM     82  H   UNL     1       3.315  -7.390  25.924  0.00  0.00    +0.292 HD
ENDBRANCH  78  81
ENDBRANCH  71  75
ENDBRANCH  69  72
ENDBRANCH  68  69
ENDBRANCH  67  68
ENDBRANCH  55  67
ENDBRANCH  54  57
ENDBRANCH   1  54
TORSDOF 29
ENDMDL
MODEL 4
REMARK VINA RESULT:      -5.4      2.065      6.656
REMARK  Name = 
REMARK  30 active torsions:
REMARK  status: ('A' for Active; 'I' for Inactive)
REMARK    1  A    between atoms: C_1  and  O_2
REMARK    2  A    between atoms: O_2  and  C_3
REMARK    3  A    between atoms: C_4  and  O_83
REMARK    4  A    between atoms: C_7  and  C_9
REMARK    5  A    between atoms: C_10  and  C_11
REMARK    6  A    between atoms: C_11  and  O_13
REMARK    7  A    between atoms: O_13  and  C_14
REMARK    8  A    between atoms: C_14  and  C_15
REMARK    9  A    between atoms: C_17  and  O_82
REMARK   10  A    between atoms: C_19  and  O_81
REMARK   11  A    between atoms: C_21  and  O_80
REMARK   12  A    between atoms: C_23  and  O_26
REMARK   13  A    between atoms: O_26  and  C_27
REMARK   14  A    between atoms: C_29  and  O_79
REMARK   15  A    between atoms: C_31  and  O_78
REMARK   16  A    between atoms: C_33  and  C_76
REMARK   17  A    between atoms: C_36  and  O_38
REMARK   18  A    between atoms: O_38  and  C_39
REMARK   19  A    between atoms: C_40  and  C_68
REMARK   20  A    between atoms: C_44  and  O_51
REMARK   21  A    between atoms: C_46  and  O_50
REMARK   22  A    between atoms: O_51  and  C_52
REMARK   23  A    between atoms: C_54  and  O_67
REMARK   24  A    between atoms: C_56  and  O_66
REMARK   25  A    between atoms: C_58  and  O_65
REMARK   26  A    between atoms: C_60  and  C_63
REMARK   27  A    between atoms: C_63  and  O_64
REMARK   28  A    between atoms: C_70  and  O_75
REMARK   29  A    between atoms: C_71  and  O_74
REMARK   30  A    between atoms: C_76  and  O_77
REMARK                            x       y       z     vdW  Elec       q    Type
REMARK                         _______ _______ _______ _____ _____    ______ ____
ROOT
ATOM      1  C   UNL     1       5.441   1.969  23.339  0.00  0.00    +0.221 C 
ATOM      2  C   UNL     1       5.944   2.350  24.789  0.00  0.00    +0.340 C 
ATOM      3  O   UNL     1       4.795   2.740  25.607  0.00  0.00    -0.331 OA
ATOM      4  C   UNL     1       4.323   4.038  25.123  0.00  0.00    +0.179 C 
ATOM      5  C   UNL     1       3.768   3.878  23.697  0.00  0.00    +0.177 C 
ATOM      6  C   UNL     1       4.850   3.294  22.769  0.00  0.00    +0.180 C 
ENDROOT
BRANCH   6   7
ATOM      7  O   UNL     1       4.261   3.123  21.467  0.00  0.00    -0.386 OA
ATOM      8  H   UNL     1       3.422   2.650  21.635  0.00  0.00    +0.210 HD
ENDBRANCH   6   7
BRANCH   5   9
ATOM      9  O   UNL     1       3.321   5.137  23.166  0.00  0.00    -0.386 OA
ATOM     10  H   UNL     1       4.140   5.668  23.064  0.00  0.00    +0.210 HD
ENDBRANCH   5   9
BRANCH   4  11
ATOM     11  C   UNL     1       3.314   4.701  26.076  0.00  0.00    +0.190 C 
BRANCH  11  12
ATOM     12  O   UNL     1       1.965   4.338  25.772  0.00  0.00    -0.392 OA
ATOM     13  H   UNL     1       1.528   4.103  26.622  0.00  0.00    +0.210 HD
ENDBRANCH  11  12
ENDBRANCH   4  11
BRANCH   2  14
ATOM     14  O   UNL     1       6.830   1.359  25.381  0.00  0.00    -0.453 OA
BRANCH  14  15
ATOM     15  C   UNL     1       6.137   0.392  26.161  0.00  0.00    +0.214 A 
ATOM     16  C   UNL     1       5.534  -0.851  25.492  0.00  0.00    +0.238 A 
ATOM     17  O   UNL     1       5.677  -1.130  24.306  0.00  0.00    -0.283 OA
ATOM     18  C   UNL     1       4.714  -1.766  26.251  0.00  0.00    +0.109 A 
ATOM     19  C   UNL     1       4.687  -1.580  27.614  0.00  0.00    +0.147 A 
ATOM     20  C   UNL     1       4.011  -2.502  28.412  0.00  0.00    +0.093 A 
ATOM     21  C   UNL     1       3.312  -3.563  27.830  0.00  0.00    +0.131 A 
ATOM     22  C   UNL     1       3.318  -3.727  26.444  0.00  0.00    +0.092 A 
ATOM     23  O   UNL     1       5.279  -0.512  28.221  0.00  0.00    -0.451 OA
ATOM     24  C   UNL     1       4.013  -2.827  25.654  0.00  0.00    +0.135 A 
ATOM     25  C   UNL     1       5.819   0.554  27.476  0.00  0.00    +0.181 A 
BRANCH  25  26
ATOM     26  C   UNL     1       5.895   1.793  28.363  0.00  0.00    +0.025 A 
ATOM     27  C   UNL     1       4.665   2.470  28.611  0.00  0.00    +0.015 A 
ATOM     28  C   UNL     1       4.570   3.688  29.297  0.00  0.00    +0.050 A 
ATOM     29  C   UNL     1       5.711   4.259  29.804  0.00  0.00    +0.158 A 
ATOM     30  C   UNL     1       6.930   3.601  29.653  0.00  0.00    +0.159 A 
ATOM     31  C   UNL     1       7.041   2.391  28.926  0.00  0.00    +0.060 A 
BRANCH  30  32
ATOM     32  O   UNL     1       8.013   4.179  30.262  0.00  0.00    -0.503 OA
ATOM     33  H   UNL     1       7.795   4.248  31.210  0.00  0.00    +0.292 HD
ENDBRANCH  30  32
BRANCH  29  34
ATOM     34  O   UNL     1       5.599   5.440  30.478  0.00  0.00    -0.503 OA
ATOM     35  H   UNL     1       5.173   5.231  31.330  0.00  0.00    +0.292 HD
ENDBRANCH  29  34
ENDBRANCH  25  26
BRANCH  24  36
ATOM     36  O   UNL     1       3.978  -2.997  24.298  0.00  0.00    -0.506 OA
ATOM     37  H   UNL     1       3.501  -3.805  24.054  0.00  0.00    +0.292 HD
ENDBRANCH  24  36
BRANCH  21  38
ATOM     38  O   UNL     1       2.556  -4.483  28.487  0.00  0.00    -0.461 OA
BRANCH  38  39
ATOM     39  C   UNL     1       3.164  -5.746  28.771  0.00  0.00    +0.339 C 
ATOM     40  O   UNL     1       2.837  -6.696  27.741  0.00  0.00    -0.331 OA
ATOM     41  C   UNL     1       1.525  -7.282  27.749  0.00  0.00    +0.179 C 
ATOM     42  C   UNL     1       1.042  -7.748  29.139  0.00  0.00    +0.177 C 
ATOM     43  C   UNL     1       1.368  -6.753  30.261  0.00  0.00    +0.180 C 
ATOM     44  C   UNL     1       2.835  -6.317  30.168  0.00  0.00    +0.214 C 
BRANCH  44  45
ATOM     45  O   UNL     1       3.704  -7.434  30.435  0.00  0.00    -0.383 OA
ATOM     46  H   UNL     1       4.241  -7.193  31.221  0.00  0.00    +0.210 HD
ENDBRANCH  44  45
BRANCH  43  47
ATOM     47  O   UNL     1       0.466  -5.649  30.304  0.00  0.00    -0.386 OA
ATOM     48  H   UNL     1       0.977  -4.815  30.381  0.00  0.00    +0.210 HD
ENDBRANCH  43  47
BRANCH  42  49
ATOM     49  O   UNL     1       1.720  -8.987  29.427  0.00  0.00    -0.386 OA
ATOM     50  H   UNL     1       2.201  -8.869  30.269  0.00  0.00    +0.210 HD
ENDBRANCH  42  49
BRANCH  41  51
ATOM     51  C   UNL     1       0.499  -6.426  26.993  0.00  0.00    +0.190 C 
BRANCH  51  52
ATOM     52  O   UNL     1       0.803  -6.304  25.609  0.00  0.00    -0.392 OA
ATOM     53  H   UNL     1       1.724  -5.967  25.580  0.00  0.00    +0.210 HD
ENDBRANCH  51  52
ENDBRANCH  41  51
ENDBRANCH  38  39
ENDBRANCH  21  38
ENDBRANCH  14  15
ENDBRANCH   2  14
BRANCH   1  54
ATOM     54  O   UNL     1       6.390   1.426  22.366  0.00  0.00    -0.337 OA
BRANCH  54  57
ATOM     55  C   UNL     1       9.990   1.480  23.181  0.00  0.00    +0.190 C 
ATOM     56  O   UNL     1       8.590   1.105  23.199  0.00  0.00    -0.339 OA
ATOM     57  C   UNL     1       7.746   1.927  22.337  0.00  0.00    +0.282 C 
ATOM     58  C   UNL     1       7.845   3.423  22.706  0.00  0.00    +0.201 C 
ATOM     59  C   UNL     1       9.310   3.851  22.817  0.00  0.00    +0.179 C 
ATOM     60  C   UNL     1      10.124   2.919  23.705  0.00  0.00    +0.178 C 
BRANCH  58  61
ATOM     61  O   UNL     1       7.208   4.243  21.707  0.00  0.00    -0.384 OA
ATOM     62  H   UNL     1       6.574   4.833  22.150  0.00  0.00    +0.210 HD
ENDBRANCH  58  61
BRANCH  59  63
ATOM     63  O   UNL     1       9.400   5.184  23.336  0.00  0.00    -0.386 OA
ATOM     64  H   UNL     1      10.318   5.467  23.157  0.00  0.00    +0.210 HD
ENDBRANCH  59  63
BRANCH  60  65
ATOM     65  O   UNL     1      11.468   3.411  23.695  0.00  0.00    -0.386 OA
ATOM     66  H   UNL     1      12.047   2.664  23.943  0.00  0.00    +0.210 HD
ENDBRANCH  60  65
BRANCH  55  67
ATOM     67  C   UNL     1      10.851   0.510  24.038  0.00  0.00    +0.266 C 
BRANCH  67  68
ATOM     68  O   UNL     1      10.128  -0.692  24.434  0.00  0.00    -0.459 OA
BRANCH  68  69
ATOM     69  C   UNL     1       9.942  -1.644  23.475  0.00  0.00    +0.332 C 
ATOM     70  O   UNL     1      10.549  -1.717  22.423  0.00  0.00    -0.246 OA
BRANCH  69  72
ATOM     71  C   UNL     1       8.211  -3.356  23.051  0.00  0.00    +0.015 C 
ATOM     72  C   UNL     1       8.901  -2.609  23.934  0.00  0.00    +0.092 C 
BRANCH  71  75
ATOM     73  C   UNL     1       6.060  -5.855  24.972  0.00  0.00    +0.162 A 
ATOM     74  C   UNL     1       7.035  -4.888  24.692  0.00  0.00    +0.057 A 
ATOM     75  C   UNL     1       7.202  -4.388  23.390  0.00  0.00    -0.021 A 
ATOM     76  C   UNL     1       6.345  -4.860  22.380  0.00  0.00    +0.012 A 
ATOM     77  C   UNL     1       5.382  -5.841  22.647  0.00  0.00    +0.050 A 
ATOM     78  C   UNL     1       5.257  -6.338  23.935  0.00  0.00    +0.158 A 
BRANCH  73  80
ATOM     79  C   UNL     1       6.360  -5.683  27.308  0.00  0.00    +0.277 C 
ATOM     80  O   UNL     1       5.830  -6.414  26.205  0.00  0.00    -0.491 OA
ENDBRANCH  73  80
BRANCH  78  81
ATOM     81  O   UNL     1       4.312  -7.298  24.176  0.00  0.00    -0.503 OA
ATOM     82  H   UNL     1       4.127  -7.702  23.306  0.00  0.00    +0.292 HD
ENDBRANCH  78  81
ENDBRANCH  71  75
ENDBRANCH  69  72
ENDBRANCH  68  69
ENDBRANCH  67  68
ENDBRANCH  55  67
ENDBRANCH  54  57
ENDBRANCH   1  54
TORSDOF 29
ENDMDL
MODEL 5
REMARK VINA RESULT:      -4.8      2.277     11.207
REMARK  Name = 
REMARK  30 active torsions:
REMARK  status: ('A' for Active; 'I' for Inactive)
REMARK    1  A    between atoms: C_1  and  O_2
REMARK    2  A    between atoms: O_2  and  C_3
REMARK    3  A    between atoms: C_4  and  O_83
REMARK    4  A    between atoms: C_7  and  C_9
REMARK    5  A    between atoms: C_10  and  C_11
REMARK    6  A    between atoms: C_11  and  O_13
REMARK    7  A    between atoms: O_13  and  C_14
REMARK    8  A    between atoms: C_14  and  C_15
REMARK    9  A    between atoms: C_17  and  O_82
REMARK   10  A    between atoms: C_19  and  O_81
REMARK   11  A    between atoms: C_21  and  O_80
REMARK   12  A    between atoms: C_23  and  O_26
REMARK   13  A    between atoms: O_26  and  C_27
REMARK   14  A    between atoms: C_29  and  O_79
REMARK   15  A    between atoms: C_31  and  O_78
REMARK   16  A    between atoms: C_33  and  C_76
REMARK   17  A    between atoms: C_36  and  O_38
REMARK   18  A    between atoms: O_38  and  C_39
REMARK   19  A    between atoms: C_40  and  C_68
REMARK   20  A    between atoms: C_44  and  O_51
REMARK   21  A    between atoms: C_46  and  O_50
REMARK   22  A    between atoms: O_51  and  C_52
REMARK   23  A    between atoms: C_54  and  O_67
REMARK   24  A    between atoms: C_56  and  O_66
REMARK   25  A    between atoms: C_58  and  O_65
REMARK   26  A    between atoms: C_60  and  C_63
REMARK   27  A    between atoms: C_63  and  O_64
REMARK   28  A    between atoms: C_70  and  O_75
REMARK   29  A    between atoms: C_71  and  O_74
REMARK   30  A    between atoms: C_76  and  O_77
REMARK                            x       y       z     vdW  Elec       q    Type
REMARK                         _______ _______ _______ _____ _____    ______ ____
ROOT
ATOM      1  C   UNL     1       4.633  -6.619  24.378  0.00  0.00    +0.221 C 
ATOM      2  C   UNL     1       3.729  -6.536  25.673  0.00  0.00    +0.340 C 
ATOM      3  O   UNL     1       2.695  -7.570  25.603  0.00  0.00    -0.331 OA
ATOM      4  C   UNL     1       1.739  -7.175  24.567  0.00  0.00    +0.179 C 
ATOM      5  C   UNL     1       2.436  -7.206  23.195  0.00  0.00    +0.177 C 
ATOM      6  C   UNL     1       3.666  -6.279  23.204  0.00  0.00    +0.180 C 
ENDROOT
BRANCH   6   7
ATOM      7  O   UNL     1       4.299  -6.385  21.916  0.00  0.00    -0.386 OA
ATOM      8  H   UNL     1       5.179  -6.767  22.103  0.00  0.00    +0.210 HD
ENDBRANCH   6   7
BRANCH   5   9
ATOM      9  O   UNL     1       1.541  -6.793  22.147  0.00  0.00    -0.386 OA
ATOM     10  H   UNL     1       1.195  -5.924  22.445  0.00  0.00    +0.210 HD
ENDBRANCH   5   9
BRANCH   4  11
ATOM     11  C   UNL     1       0.451  -8.014  24.592  0.00  0.00    +0.190 C 
BRANCH  11  12
ATOM     12  O   UNL     1       0.603  -9.258  23.903  0.00  0.00    -0.392 OA
ATOM     13  H   UNL     1       1.548  -9.520  23.981  0.00  0.00    +0.210 HD
ENDBRANCH  11  12
ENDBRANCH   4  11
BRANCH   2  14
ATOM     14  O   UNL     1       4.487  -6.488  26.915  0.00  0.00    -0.453 OA
BRANCH  14  15
ATOM     15  C   UNL     1       4.437  -5.213  27.545  0.00  0.00    +0.214 A 
ATOM     16  C   UNL     1       3.092  -4.635  28.009  0.00  0.00    +0.238 A 
ATOM     17  O   UNL     1       2.027  -5.241  27.952  0.00  0.00    -0.283 OA
ATOM     18  C   UNL     1       3.013  -3.289  28.525  0.00  0.00    +0.109 A 
ATOM     19  C   UNL     1       4.209  -2.654  28.770  0.00  0.00    +0.147 A 
ATOM     20  C   UNL     1       4.200  -1.400  29.380  0.00  0.00    +0.093 A 
ATOM     21  C   UNL     1       2.991  -0.765  29.675  0.00  0.00    +0.131 A 
ATOM     22  C   UNL     1       1.780  -1.402  29.394  0.00  0.00    +0.092 A 
ATOM     23  O   UNL     1       5.412  -3.193  28.420  0.00  0.00    -0.451 OA
ATOM     24  C   UNL     1       1.791  -2.660  28.814  0.00  0.00    +0.135 A 
ATOM     25  C   UNL     1       5.497  -4.362  27.640  0.00  0.00    +0.181 A 
BRANCH  25  26
ATOM     26  C   UNL     1       6.863  -4.412  26.963  0.00  0.00    +0.025 A 
ATOM     27  C   UNL     1       7.435  -3.157  26.598  0.00  0.00    +0.015 A 
ATOM     28  C   UNL     1       8.618  -3.024  25.862  0.00  0.00    +0.050 A 
ATOM     29  C   UNL     1       9.307  -4.155  25.496  0.00  0.00    +0.158 A 
ATOM     30  C   UNL     1       8.831  -5.403  25.891  0.00  0.00    +0.159 A 
ATOM     31  C   UNL     1       7.613  -5.548  26.600  0.00  0.00    +0.060 A 
BRANCH  30  32
ATOM     32  O   UNL     1       9.613  -6.482  25.572  0.00  0.00    -0.503 OA
ATOM     33  H   UNL     1       9.027  -7.260  25.573  0.00  0.00    +0.292 HD
ENDBRANCH  30  32
BRANCH  29  34
ATOM     34  O   UNL     1      10.463  -4.006  24.787  0.00  0.00    -0.503 OA
ATOM     35  H   UNL     1      11.184  -3.958  25.443  0.00  0.00    +0.292 HD
ENDBRANCH  29  34
ENDBRANCH  25  26
BRANCH  24  36
ATOM     36  O   UNL     1       0.591  -3.247  28.526  0.00  0.00    -0.506 OA
ATOM     37  H   UNL     1      -0.130  -2.600  28.525  0.00  0.00    +0.292 HD
ENDBRANCH  24  36
BRANCH  21  38
ATOM     38  O   UNL     1       2.845   0.481  30.198  0.00  0.00    -0.461 OA
BRANCH  38  39
ATOM     39  C   UNL     1       3.872   1.434  29.913  0.00  0.00    +0.339 C 
ATOM     40  O   UNL     1       3.534   2.711  30.484  0.00  0.00    -0.331 OA
ATOM     41  C   UNL     1       2.549   3.516  29.815  0.00  0.00    +0.179 C 
ATOM     42  C   UNL     1       2.724   3.595  28.283  0.00  0.00    +0.177 C 
ATOM     43  C   UNL     1       3.077   2.247  27.640  0.00  0.00    +0.180 C 
ATOM     44  C   UNL     1       4.218   1.578  28.415  0.00  0.00    +0.214 C 
BRANCH  44  45
ATOM     45  O   UNL     1       5.428   2.350  28.285  0.00  0.00    -0.383 OA
ATOM     46  H   UNL     1       6.129   1.728  27.994  0.00  0.00    +0.210 HD
ENDBRANCH  44  45
BRANCH  43  47
ATOM     47  O   UNL     1       1.945   1.395  27.479  0.00  0.00    -0.386 OA
ATOM     48  H   UNL     1       1.969   0.691  28.163  0.00  0.00    +0.210 HD
ENDBRANCH  43  47
BRANCH  42  49
ATOM     49  O   UNL     1       3.808   4.511  28.030  0.00  0.00    -0.386 OA
ATOM     50  H   UNL     1       3.446   5.256  27.511  0.00  0.00    +0.210 HD
ENDBRANCH  42  49
BRANCH  41  51
ATOM     51  C   UNL     1       1.119   3.175  30.257  0.00  0.00    +0.190 C 
BRANCH  51  52
ATOM     52  O   UNL     1       0.644   1.964  29.682  0.00  0.00    -0.392 OA
ATOM     53  H   UNL     1       0.840   2.044  28.724  0.00  0.00    +0.210 HD
ENDBRANCH  51  52
ENDBRANCH  41  51
ENDBRANCH  38  39
ENDBRANCH  21  38
ENDBRANCH  14  15
ENDBRANCH   2  14
BRANCH   1  54
ATOM     54  O   UNL     1       5.816  -5.766  24.269  0.00  0.00    -0.337 OA
BRANCH  54  57
ATOM     55  C   UNL     1       6.996  -2.910  22.249  0.00  0.00    +0.190 C 
ATOM     56  O   UNL     1       7.009  -4.141  23.015  0.00  0.00    -0.339 OA
ATOM     57  C   UNL     1       5.716  -4.491  23.594  0.00  0.00    +0.282 C 
ATOM     58  C   UNL     1       5.180  -3.367  24.506  0.00  0.00    +0.201 C 
ATOM     59  C   UNL     1       5.250  -2.016  23.789  0.00  0.00    +0.179 C 
ATOM     60  C   UNL     1       6.623  -1.749  23.185  0.00  0.00    +0.178 C 
BRANCH  58  61
ATOM     61  O   UNL     1       3.808  -3.612  24.873  0.00  0.00    -0.384 OA
ATOM     62  H   UNL     1       3.294  -3.771  24.063  0.00  0.00    +0.210 HD
ENDBRANCH  58  61
BRANCH  59  63
ATOM     63  O   UNL     1       4.926  -0.955  24.695  0.00  0.00    -0.386 OA
ATOM     64  H   UNL     1       5.060  -1.330  25.588  0.00  0.00    +0.210 HD
ENDBRANCH  59  63
BRANCH  60  65
ATOM     65  O   UNL     1       6.541  -0.481  22.523  0.00  0.00    -0.386 OA
ATOM     66  H   UNL     1       7.217  -0.485  21.818  0.00  0.00    +0.210 HD
ENDBRANCH  60  65
BRANCH  55  67
ATOM     67  C   UNL     1       8.372  -2.642  21.577  0.00  0.00    +0.266 C 
BRANCH  67  68
ATOM     68  O   UNL     1       8.896  -1.312  21.866  0.00  0.00    -0.459 OA
BRANCH  68  69
ATOM     69  C   UNL     1      10.083  -1.251  22.535  0.00  0.00    +0.332 C 
ATOM     70  O   UNL     1      10.887  -2.158  22.638  0.00  0.00    -0.246 OA
BRANCH  69  72
ATOM     71  C   UNL     1       9.721   1.194  22.483  0.00  0.00    +0.015 C 
ATOM     72  C   UNL     1      10.263   0.122  23.093  0.00  0.00    +0.092 C 
BRANCH  71  75
ATOM     73  C   UNL     1       8.728   4.672  23.698  0.00  0.00    +0.162 A 
ATOM     74  C   UNL     1       8.628   3.358  23.222  0.00  0.00    +0.057 A 
ATOM     75  C   UNL     1       9.779   2.592  22.973  0.00  0.00    -0.021 A 
ATOM     76  C   UNL     1      11.033   3.167  23.243  0.00  0.00    +0.012 A 
ATOM     77  C   UNL     1      11.142   4.487  23.699  0.00  0.00    +0.050 A 
ATOM     78  C   UNL     1       9.991   5.231  23.910  0.00  0.00    +0.158 A 
BRANCH  73  80
ATOM     79  C   UNL     1       6.414   5.064  23.435  0.00  0.00    +0.277 C 
ATOM     80  O   UNL     1       7.665   5.503  23.957  0.00  0.00    -0.491 OA
ENDBRANCH  73  80
BRANCH  78  81
ATOM     81  O   UNL     1      10.118   6.519  24.352  0.00  0.00    -0.503 OA
ATOM     82  H   UNL     1      10.191   7.063  23.545  0.00  0.00    +0.292 HD
ENDBRANCH  78  81
ENDBRANCH  71  75
ENDBRANCH  69  72
ENDBRANCH  68  69
ENDBRANCH  67  68
ENDBRANCH  55  67
ENDBRANCH  54  57
ENDBRANCH   1  54
TORSDOF 29
ENDMDL
MODEL 6
REMARK VINA RESULT:      -4.5      2.132     10.611
REMARK  Name = 
REMARK  30 active torsions:
REMARK  status: ('A' for Active; 'I' for Inactive)
REMARK    1  A    between atoms: C_1  and  O_2
REMARK    2  A    between atoms: O_2  and  C_3
REMARK    3  A    between atoms: C_4  and  O_83
REMARK    4  A    between atoms: C_7  and  C_9
REMARK    5  A    between atoms: C_10  and  C_11
REMARK    6  A    between atoms: C_11  and  O_13
REMARK    7  A    between atoms: O_13  and  C_14
REMARK    8  A    between atoms: C_14  and  C_15
REMARK    9  A    between atoms: C_17  and  O_82
REMARK   10  A    between atoms: C_19  and  O_81
REMARK   11  A    between atoms: C_21  and  O_80
REMARK   12  A    between atoms: C_23  and  O_26
REMARK   13  A    between atoms: O_26  and  C_27
REMARK   14  A    between atoms: C_29  and  O_79
REMARK   15  A    between atoms: C_31  and  O_78
REMARK   16  A    between atoms: C_33  and  C_76
REMARK   17  A    between atoms: C_36  and  O_38
REMARK   18  A    between atoms: O_38  and  C_39
REMARK   19  A    between atoms: C_40  and  C_68
REMARK   20  A    between atoms: C_44  and  O_51
REMARK   21  A    between atoms: C_46  and  O_50
REMARK   22  A    between atoms: O_51  and  C_52
REMARK   23  A    between atoms: C_54  and  O_67
REMARK   24  A    between atoms: C_56  and  O_66
REMARK   25  A    between atoms: C_58  and  O_65
REMARK   26  A    between atoms: C_60  and  C_63
REMARK   27  A    between atoms: C_63  and  O_64
REMARK   28  A    between atoms: C_70  and  O_75
REMARK   29  A    between atoms: C_71  and  O_74
REMARK   30  A    between atoms: C_76  and  O_77
REMARK                            x       y       z     vdW  Elec       q    Type
REMARK                         _______ _______ _______ _____ _____    ______ ____
ROOT
ATOM      1  C   UNL     1       5.919  -4.558  25.829  0.00  0.00    +0.221 C 
ATOM      2  C   UNL     1       5.696  -3.935  27.266  0.00  0.00    +0.340 C 
ATOM      3  O   UNL     1       5.885  -4.978  28.274  0.00  0.00    -0.331 OA
ATOM      4  C   UNL     1       4.747  -5.896  28.186  0.00  0.00    +0.179 C 
ATOM      5  C   UNL     1       4.790  -6.629  26.834  0.00  0.00    +0.177 C 
ATOM      6  C   UNL     1       4.779  -5.610  25.678  0.00  0.00    +0.180 C 
ENDROOT
BRANCH   6   7
ATOM      7  O   UNL     1       4.867  -6.349  24.446  0.00  0.00    -0.386 OA
ATOM      8  H   UNL     1       5.769  -6.173  24.115  0.00  0.00    +0.210 HD
ENDBRANCH   6   7
BRANCH   5   9
ATOM      9  O   UNL     1       3.670  -7.519  26.688  0.00  0.00    -0.386 OA
ATOM     10  H   UNL     1       2.882  -6.952  26.835  0.00  0.00    +0.210 HD
ENDBRANCH   5   9
BRANCH   4  11
ATOM     11  C   UNL     1       4.666  -6.863  29.378  0.00  0.00    +0.190 C 
BRANCH  11  12
ATOM     12  O   UNL     1       3.450  -7.615  29.382  0.00  0.00    -0.392 OA
ATOM     13  H   UNL     1       3.009  -7.460  28.516  0.00  0.00    +0.210 HD
ENDBRANCH  11  12
ENDBRANCH   4  11
BRANCH   2  14
ATOM     14  O   UNL     1       6.435  -2.701  27.490  0.00  0.00    -0.453 OA
BRANCH  14  15
ATOM     15  C   UNL     1       5.708  -1.542  27.101  0.00  0.00    +0.214 A 
ATOM     16  C   UNL     1       6.452  -0.245  26.753  0.00  0.00    +0.238 A 
ATOM     17  O   UNL     1       7.674  -0.146  26.704  0.00  0.00    -0.283 OA
ATOM     18  C   UNL     1       5.721   0.971  26.490  0.00  0.00    +0.109 A 
ATOM     19  C   UNL     1       4.356   0.850  26.359  0.00  0.00    +0.147 A 
ATOM     20  C   UNL     1       3.608   1.967  25.986  0.00  0.00    +0.093 A 
ATOM     21  C   UNL     1       4.226   3.208  25.815  0.00  0.00    +0.131 A 
ATOM     22  C   UNL     1       5.607   3.329  25.980  0.00  0.00    +0.092 A 
ATOM     23  O   UNL     1       3.696  -0.318  26.601  0.00  0.00    -0.451 OA
ATOM     24  C   UNL     1       6.353   2.214  26.323  0.00  0.00    +0.135 A 
ATOM     25  C   UNL     1       4.351  -1.433  27.157  0.00  0.00    +0.181 A 
BRANCH  25  26
ATOM     26  C   UNL     1       3.316  -2.346  27.809  0.00  0.00    +0.025 A 
ATOM     27  C   UNL     1       3.340  -2.413  29.233  0.00  0.00    +0.015 A 
ATOM     28  C   UNL     1       2.548  -3.290  29.985  0.00  0.00    +0.050 A 
ATOM     29  C   UNL     1       1.659  -4.111  29.335  0.00  0.00    +0.158 A 
ATOM     30  C   UNL     1       1.544  -4.032  27.949  0.00  0.00    +0.159 A 
ATOM     31  C   UNL     1       2.370  -3.178  27.178  0.00  0.00    +0.060 A 
BRANCH  30  32
ATOM     32  O   UNL     1       0.576  -4.812  27.373  0.00  0.00    -0.503 OA
ATOM     33  H   UNL     1       1.000  -5.659  27.145  0.00  0.00    +0.292 HD
ENDBRANCH  30  32
BRANCH  29  34
ATOM     34  O   UNL     1       0.889  -4.952  30.084  0.00  0.00    -0.503 OA
ATOM     35  H   UNL     1       0.818  -4.546  30.968  0.00  0.00    +0.292 HD
ENDBRANCH  29  34
ENDBRANCH  25  26
BRANCH  24  36
ATOM     36  O   UNL     1       7.699   2.369  26.505  0.00  0.00    -0.506 OA
ATOM     37  H   UNL     1       8.134   1.521  26.676  0.00  0.00    +0.292 HD
ENDBRANCH  24  36
BRANCH  21  38
ATOM     38  O   UNL     1       3.604   4.382  25.526  0.00  0.00    -0.461 OA
BRANCH  38  39
ATOM     39  C   UNL     1       3.838   4.945  24.232  0.00  0.00    +0.339 C 
ATOM     40  O   UNL     1       3.761   6.380  24.296  0.00  0.00    -0.331 OA
ATOM     41  C   UNL     1       2.462   6.989  24.369  0.00  0.00    +0.179 C 
ATOM     42  C   UNL     1       1.424   6.398  23.391  0.00  0.00    +0.177 C 
ATOM     43  C   UNL     1       1.473   4.867  23.304  0.00  0.00    +0.180 C 
ATOM     44  C   UNL     1       2.920   4.396  23.118  0.00  0.00    +0.214 C 
BRANCH  44  45
ATOM     45  O   UNL     1       3.424   4.830  21.839  0.00  0.00    -0.383 OA
ATOM     46  H   UNL     1       2.899   4.360  21.156  0.00  0.00    +0.210 HD
ENDBRANCH  44  45
BRANCH  43  47
ATOM     47  O   UNL     1       0.822   4.227  24.400  0.00  0.00    -0.386 OA
ATOM     48  H   UNL     1       0.381   4.906  24.956  0.00  0.00    +0.210 HD
ENDBRANCH  43  47
BRANCH  42  49
ATOM     49  O   UNL     1       1.725   6.931  22.085  0.00  0.00    -0.386 OA
ATOM     50  H   UNL     1       0.888   7.260  21.704  0.00  0.00    +0.210 HD
ENDBRANCH  42  49
BRANCH  41  51
ATOM     51  C   UNL     1       1.952   7.108  25.812  0.00  0.00    +0.190 C 
BRANCH  51  52
ATOM     52  O   UNL     1       0.588   6.728  25.942  0.00  0.00    -0.392 OA
ATOM     53  H   UNL     1       0.176   7.441  26.475  0.00  0.00    +0.210 HD
ENDBRANCH  51  52
ENDBRANCH  41  51
ENDBRANCH  38  39
ENDBRANCH  21  38
ENDBRANCH  14  15
ENDBRANCH   2  14
BRANCH   1  54
ATOM     54  O   UNL     1       5.906  -3.685  24.655  0.00  0.00    -0.337 OA
BRANCH  54  57
ATOM     55  C   UNL     1       9.250  -2.349  23.842  0.00  0.00    +0.190 C 
ATOM     56  O   UNL     1       7.976  -2.532  24.510  0.00  0.00    -0.339 OA
ATOM     57  C   UNL     1       7.112  -3.521  23.874  0.00  0.00    +0.282 C 
ATOM     58  C   UNL     1       6.831  -3.164  22.399  0.00  0.00    +0.201 C 
ATOM     59  C   UNL     1       8.136  -2.845  21.667  0.00  0.00    +0.179 C 
ATOM     60  C   UNL     1       8.992  -1.832  22.418  0.00  0.00    +0.178 C 
BRANCH  58  61
ATOM     61  O   UNL     1       6.187  -4.258  21.717  0.00  0.00    -0.384 OA
ATOM     62  H   UNL     1       6.790  -4.592  21.030  0.00  0.00    +0.210 HD
ENDBRANCH  58  61
BRANCH  59  63
ATOM     63  O   UNL     1       7.860  -2.338  20.355  0.00  0.00    -0.386 OA
ATOM     64  H   UNL     1       7.091  -1.745  20.467  0.00  0.00    +0.210 HD
ENDBRANCH  59  63
BRANCH  60  65
ATOM     65  O   UNL     1      10.186  -1.651  21.648  0.00  0.00    -0.386 OA
ATOM     66  H   UNL     1      10.819  -1.169  22.214  0.00  0.00    +0.210 HD
ENDBRANCH  60  65
BRANCH  55  67
ATOM     67  C   UNL     1      10.164  -1.360  24.619  0.00  0.00    +0.266 C 
BRANCH  67  68
ATOM     68  O   UNL     1      10.579  -0.218  23.814  0.00  0.00    -0.459 OA
BRANCH  68  69
ATOM     69  C   UNL     1      11.168   0.820  24.475  0.00  0.00    +0.332 C 
ATOM     70  O   UNL     1      12.125   0.733  25.220  0.00  0.00    -0.246 OA
BRANCH  69  72
ATOM     71  C   UNL     1       9.261   2.076  23.527  0.00  0.00    +0.015 C 
ATOM     72  C   UNL     1      10.476   2.090  24.110  0.00  0.00    +0.092 C 
BRANCH  71  75
ATOM     73  C   UNL     1       7.909   5.640  23.366  0.00  0.00    +0.162 A 
ATOM     74  C   UNL     1       8.690   4.536  23.734  0.00  0.00    +0.057 A 
ATOM     75  C   UNL     1       8.453   3.268  23.177  0.00  0.00    -0.021 A 
ATOM     76  C   UNL     1       7.431   3.141  22.220  0.00  0.00    +0.012 A 
ATOM     77  C   UNL     1       6.633   4.235  21.862  0.00  0.00    +0.050 A 
ATOM     78  C   UNL     1       6.870   5.469  22.447  0.00  0.00    +0.158 A 
BRANCH  73  80
ATOM     79  C   UNL     1       7.671   7.076  25.225  0.00  0.00    +0.277 C 
ATOM     80  O   UNL     1       8.053   6.913  23.862  0.00  0.00    -0.491 OA
ENDBRANCH  73  80
BRANCH  78  81
ATOM     81  O   UNL     1       6.078   6.526  22.087  0.00  0.00    -0.503 OA
ATOM     82  H   UNL     1       6.514   6.920  21.307  0.00  0.00    +0.292 HD
ENDBRANCH  78  81
ENDBRANCH  71  75
ENDBRANCH  69  72
ENDBRANCH  68  69
ENDBRANCH  67  68
ENDBRANCH  55  67
ENDBRANCH  54  57
ENDBRANCH   1  54
TORSDOF 29
ENDMDL
MODEL 7
REMARK VINA RESULT:      -4.0      1.849      2.681
REMARK  Name = 
REMARK  30 active torsions:
REMARK  status: ('A' for Active; 'I' for Inactive)
REMARK    1  A    between atoms: C_1  and  O_2
REMARK    2  A    between atoms: O_2  and  C_3
REMARK    3  A    between atoms: C_4  and  O_83
REMARK    4  A    between atoms: C_7  and  C_9
REMARK    5  A    between atoms: C_10  and  C_11
REMARK    6  A    between atoms: C_11  and  O_13
REMARK    7  A    between atoms: O_13  and  C_14
REMARK    8  A    between atoms: C_14  and  C_15
REMARK    9  A    between atoms: C_17  and  O_82
REMARK   10  A    between atoms: C_19  and  O_81
REMARK   11  A    between atoms: C_21  and  O_80
REMARK   12  A    between atoms: C_23  and  O_26
REMARK   13  A    between atoms: O_26  and  C_27
REMARK   14  A    between atoms: C_29  and  O_79
REMARK   15  A    between atoms: C_31  and  O_78
REMARK   16  A    between atoms: C_33  and  C_76
REMARK   17  A    between atoms: C_36  and  O_38
REMARK   18  A    between atoms: O_38  and  C_39
REMARK   19  A    between atoms: C_40  and  C_68
REMARK   20  A    between atoms: C_44  and  O_51
REMARK   21  A    between atoms: C_46  and  O_50
REMARK   22  A    between atoms: O_51  and  C_52
REMARK   23  A    between atoms: C_54  and  O_67
REMARK   24  A    between atoms: C_56  and  O_66
REMARK   25  A    between atoms: C_58  and  O_65
REMARK   26  A    between atoms: C_60  and  C_63
REMARK   27  A    between atoms: C_63  and  O_64
REMARK   28  A    between atoms: C_70  and  O_75
REMARK   29  A    between atoms: C_71  and  O_74
REMARK   30  A    between atoms: C_76  and  O_77
REMARK                            x       y       z     vdW  Elec       q    Type
REMARK                         _______ _______ _______ _____ _____    ______ ____
ROOT
ATOM      1  C   UNL     1       6.633   5.044  26.977  0.00  0.00    +0.221 C 
ATOM      2  C   UNL     1       7.401   5.799  25.819  0.00  0.00    +0.340 C 
ATOM      3  O   UNL     1       8.831   5.827  26.131  0.00  0.00    -0.331 OA
ATOM      4  C   UNL     1       9.026   6.752  27.249  0.00  0.00    +0.179 C 
ATOM      5  C   UNL     1       8.349   6.180  28.506  0.00  0.00    +0.177 C 
ATOM      6  C   UNL     1       6.852   5.934  28.238  0.00  0.00    +0.180 C 
ENDROOT
BRANCH   6   7
ATOM      7  O   UNL     1       6.285   5.358  29.428  0.00  0.00    -0.386 OA
ATOM      8  H   UNL     1       6.864   4.599  29.636  0.00  0.00    +0.210 HD
ENDBRANCH   6   7
BRANCH   5   9
ATOM      9  O   UNL     1       8.488   7.073  29.625  0.00  0.00    -0.386 OA
ATOM     10  H   UNL     1       7.742   7.704  29.531  0.00  0.00    +0.210 HD
ENDBRANCH   5   9
BRANCH   4  11
ATOM     11  C   UNL     1      10.505   7.101  27.483  0.00  0.00    +0.190 C 
BRANCH  11  12
ATOM     12  O   UNL     1      10.890   6.929  28.850  0.00  0.00    -0.392 OA
ATOM     13  H   UNL     1      11.316   7.768  29.140  0.00  0.00    +0.210 HD
ENDBRANCH  11  12
ENDBRANCH   4  11
BRANCH   2  14
ATOM     14  O   UNL     1       7.057   5.331  24.485  0.00  0.00    -0.453 OA
BRANCH  14  15
ATOM     15  C   UNL     1       7.015   3.912  24.390  0.00  0.00    +0.214 A 
ATOM     16  C   UNL     1       8.314   3.096  24.439  0.00  0.00    +0.238 A 
ATOM     17  O   UNL     1       9.423   3.582  24.642  0.00  0.00    -0.283 OA
ATOM     18  C   UNL     1       8.294   1.672  24.208  0.00  0.00    +0.109 A 
ATOM     19  C   UNL     1       7.054   1.076  24.160  0.00  0.00    +0.147 A 
ATOM     20  C   UNL     1       6.972  -0.313  24.060  0.00  0.00    +0.093 A 
ATOM     21  C   UNL     1       8.132  -1.084  23.940  0.00  0.00    +0.131 A 
ATOM     22  C   UNL     1       9.385  -0.469  23.959  0.00  0.00    +0.092 A 
ATOM     23  O   UNL     1       5.894   1.791  24.183  0.00  0.00    -0.451 OA
ATOM     24  C   UNL     1       9.466   0.907  24.087  0.00  0.00    +0.135 A 
ATOM     25  C   UNL     1       5.893   3.196  24.097  0.00  0.00    +0.181 A 
BRANCH  25  26
ATOM     26  C   UNL     1       4.528   3.664  23.602  0.00  0.00    +0.025 A 
ATOM     27  C   UNL     1       3.391   3.070  24.225  0.00  0.00    +0.015 A 
ATOM     28  C   UNL     1       2.071   3.289  23.811  0.00  0.00    +0.050 A 
ATOM     29  C   UNL     1       1.833   4.156  22.773  0.00  0.00    +0.158 A 
ATOM     30  C   UNL     1       2.904   4.820  22.177  0.00  0.00    +0.159 A 
ATOM     31  C   UNL     1       4.244   4.572  22.562  0.00  0.00    +0.060 A 
BRANCH  30  32
ATOM     32  O   UNL     1       2.588   5.738  21.210  0.00  0.00    -0.503 OA
ATOM     33  H   UNL     1       3.138   6.524  21.383  0.00  0.00    +0.292 HD
ENDBRANCH  30  32
BRANCH  29  34
ATOM     34  O   UNL     1       0.541   4.366  22.389  0.00  0.00    -0.503 OA
ATOM     35  H   UNL     1       0.338   5.296  22.600  0.00  0.00    +0.292 HD
ENDBRANCH  29  34
ENDBRANCH  25  26
BRANCH  24  36
ATOM     36  O   UNL     1      10.706   1.484  24.074  0.00  0.00    -0.506 OA
ATOM     37  H   UNL     1      10.809   2.120  24.798  0.00  0.00    +0.292 HD
ENDBRANCH  24  36
BRANCH  21  38
ATOM     38  O   UNL     1       8.185  -2.431  23.763  0.00  0.00    -0.461 OA
BRANCH  38  39
ATOM     39  C   UNL     1       8.952  -3.185  24.705  0.00  0.00    +0.339 C 
ATOM     40  O   UNL     1       9.051  -4.556  24.280  0.00  0.00    -0.331 OA
ATOM     41  C   UNL     1       7.910  -5.410  24.467  0.00  0.00    +0.179 C 
ATOM     42  C   UNL     1       7.237  -5.280  25.850  0.00  0.00    +0.177 C 
ATOM     43  C   UNL     1       7.108  -3.829  26.332  0.00  0.00    +0.180 C 
ATOM     44  C   UNL     1       8.445  -3.098  26.162  0.00  0.00    +0.214 C 
BRANCH  44  45
ATOM     45  O   UNL     1       9.438  -3.666  27.039  0.00  0.00    -0.383 OA
ATOM     46  H   UNL     1      10.142  -2.989  27.142  0.00  0.00    +0.210 HD
ENDBRANCH  44  45
BRANCH  43  47
ATOM     47  O   UNL     1       6.020  -3.137  25.724  0.00  0.00    -0.386 OA
ATOM     48  H   UNL     1       6.369  -2.407  25.169  0.00  0.00    +0.210 HD
ENDBRANCH  43  47
BRANCH  42  49
ATOM     49  O   UNL     1       8.066  -5.994  26.790  0.00  0.00    -0.386 OA
ATOM     50  H   UNL     1       7.497  -6.262  27.537  0.00  0.00    +0.210 HD
ENDBRANCH  42  49
BRANCH  41  51
ATOM     51  C   UNL     1       6.926  -5.335  23.292  0.00  0.00    +0.190 C 
BRANCH  51  52
ATOM     52  O   UNL     1       7.427  -4.561  22.208  0.00  0.00    -0.392 OA
ATOM     53  H   UNL     1       7.971  -5.186  21.682  0.00  0.00    +0.210 HD
ENDBRANCH  51  52
ENDBRANCH  41  51
ENDBRANCH  38  39
ENDBRANCH  21  38
ENDBRANCH  14  15
ENDBRANCH   2  14
BRANCH   1  54
ATOM     54  O   UNL     1       5.202   4.777  26.838  0.00  0.00    -0.337 OA
BRANCH  54  57
ATOM     55  C   UNL     1       3.341   2.849  29.377  0.00  0.00    +0.190 C 
ATOM     56  O   UNL     1       4.086   3.162  28.174  0.00  0.00    -0.339 OA
ATOM     57  C   UNL     1       4.394   4.581  28.022  0.00  0.00    +0.282 C 
ATOM     58  C   UNL     1       3.114   5.443  28.028  0.00  0.00    +0.201 C 
ATOM     59  C   UNL     1       2.226   5.074  29.219  0.00  0.00    +0.179 C 
ATOM     60  C   UNL     1       1.986   3.572  29.322  0.00  0.00    +0.178 C 
BRANCH  58  61
ATOM     61  O   UNL     1       3.437   6.844  28.124  0.00  0.00    -0.384 OA
ATOM     62  H   UNL     1       2.676   7.312  28.509  0.00  0.00    +0.210 HD
ENDBRANCH  58  61
BRANCH  59  63
ATOM     63  O   UNL     1       0.961   5.741  29.121  0.00  0.00    -0.386 OA
ATOM     64  H   UNL     1       1.163   6.690  29.242  0.00  0.00    +0.210 HD
ENDBRANCH  59  63
BRANCH  60  65
ATOM     65  O   UNL     1       1.176   3.365  30.485  0.00  0.00    -0.386 OA
ATOM     66  H   UNL     1       0.314   3.027  30.174  0.00  0.00    +0.210 HD
ENDBRANCH  60  65
BRANCH  55  67
ATOM     67  C   UNL     1       3.129   1.317  29.534  0.00  0.00    +0.266 C 
BRANCH  67  68
ATOM     68  O   UNL     1       2.853   0.649  28.267  0.00  0.00    -0.459 OA
BRANCH  68  69
ATOM     69  C   UNL     1       1.692  -0.063  28.186  0.00  0.00    +0.332 C 
ATOM     70  O   UNL     1       0.570   0.405  28.227  0.00  0.00    -0.246 OA
BRANCH  69  72
ATOM     71  C   UNL     1       2.932  -2.119  28.774  0.00  0.00    +0.015 C 
ATOM     72  C   UNL     1       2.014  -1.508  28.001  0.00  0.00    +0.092 C 
BRANCH  71  75
ATOM     73  C   UNL     1       3.779  -5.621  27.518  0.00  0.00    +0.162 A 
ATOM     74  C   UNL     1       3.428  -4.264  27.519  0.00  0.00    +0.057 A 
ATOM     75  C   UNL     1       3.289  -3.557  28.725  0.00  0.00    -0.021 A 
ATOM     76  C   UNL     1       3.540  -4.238  29.929  0.00  0.00    +0.012 A 
ATOM     77  C   UNL     1       3.871  -5.598  29.937  0.00  0.00    +0.050 A 
ATOM     78  C   UNL     1       3.975  -6.280  28.734  0.00  0.00    +0.158 A 
BRANCH  73  80
ATOM     79  C   UNL     1       3.633  -5.745  25.164  0.00  0.00    +0.277 C 
ATOM     80  O   UNL     1       3.925  -6.400  26.395  0.00  0.00    -0.491 OA
ENDBRANCH  73  80
BRANCH  78  81
ATOM     81  O   UNL     1       4.297  -7.609  28.762  0.00  0.00    -0.503 OA
ATOM     82  H   UNL     1       4.003  -7.964  27.901  0.00  0.00    +0.292 HD
ENDBRANCH  78  81
ENDBRANCH  71  75
ENDBRANCH  69  72
ENDBRANCH  68  69
ENDBRANCH  67  68
ENDBRANCH  55  67
ENDBRANCH  54  57
ENDBRANCH   1  54
TORSDOF 29
ENDMDL
MODEL 8
REMARK VINA RESULT:      -3.8      2.185      7.753
REMARK  Name = 
REMARK  30 active torsions:
REMARK  status: ('A' for Active; 'I' for Inactive)
REMARK    1  A    between atoms: C_1  and  O_2
REMARK    2  A    between atoms: O_2  and  C_3
REMARK    3  A    between atoms: C_4  and  O_83
REMARK    4  A    between atoms: C_7  and  C_9
REMARK    5  A    between atoms: C_10  and  C_11
REMARK    6  A    between atoms: C_11  and  O_13
REMARK    7  A    between atoms: O_13  and  C_14
REMARK    8  A    between atoms: C_14  and  C_15
REMARK    9  A    between atoms: C_17  and  O_82
REMARK   10  A    between atoms: C_19  and  O_81
REMARK   11  A    between atoms: C_21  and  O_80
REMARK   12  A    between atoms: C_23  and  O_26
REMARK   13  A    between atoms: O_26  and  C_27
REMARK   14  A    between atoms: C_29  and  O_79
REMARK   15  A    between atoms: C_31  and  O_78
REMARK   16  A    between atoms: C_33  and  C_76
REMARK   17  A    between atoms: C_36  and  O_38
REMARK   18  A    between atoms: O_38  and  C_39
REMARK   19  A    between atoms: C_40  and  C_68
REMARK   20  A    between atoms: C_44  and  O_51
REMARK   21  A    between atoms: C_46  and  O_50
REMARK   22  A    between atoms: O_51  and  C_52
REMARK   23  A    between atoms: C_54  and  O_67
REMARK   24  A    between atoms: C_56  and  O_66
REMARK   25  A    between atoms: C_58  and  O_65
REMARK   26  A    between atoms: C_60  and  C_63
REMARK   27  A    between atoms: C_63  and  O_64
REMARK   28  A    between atoms: C_70  and  O_75
REMARK   29  A    between atoms: C_71  and  O_74
REMARK   30  A    between atoms: C_76  and  O_77
REMARK                            x       y       z     vdW  Elec       q    Type
REMARK                         _______ _______ _______ _____ _____    ______ ____
ROOT
ATOM      1  C   UNL     1       8.250   1.311  25.252  0.00  0.00    +0.221 C 
ATOM      2  C   UNL     1       7.359   0.124  24.704  0.00  0.00    +0.340 C 
ATOM      3  O   UNL     1       8.061  -1.141  24.924  0.00  0.00    -0.331 OA
ATOM      4  C   UNL     1       9.195  -1.190  23.999  0.00  0.00    +0.179 C 
ATOM      5  C   UNL     1      10.208  -0.095  24.379  0.00  0.00    +0.177 C 
ATOM      6  C   UNL     1       9.527   1.287  24.359  0.00  0.00    +0.180 C 
ENDROOT
BRANCH   6   7
ATOM      7  O   UNL     1      10.506   2.260  24.766  0.00  0.00    -0.386 OA
ATOM      8  H   UNL     1      10.496   2.228  25.743  0.00  0.00    +0.210 HD
ENDBRANCH   6   7
BRANCH   5   9
ATOM      9  O   UNL     1      11.326  -0.084  23.476  0.00  0.00    -0.386 OA
ATOM     10  H   UNL     1      10.923  -0.102  22.582  0.00  0.00    +0.210 HD
ENDBRANCH   5   9
BRANCH   4  11
ATOM     11  C   UNL     1       9.839  -2.584  23.916  0.00  0.00    +0.190 C 
BRANCH  11  12
ATOM     12  O   UNL     1       8.872  -3.611  23.680  0.00  0.00    -0.392 OA
ATOM     13  H   UNL     1       9.048  -4.330  24.328  0.00  0.00    +0.210 HD
ENDBRANCH  11  12
ENDBRANCH   4  11
BRANCH   2  14
ATOM     14  O   UNL     1       5.979   0.166  25.163  0.00  0.00    -0.453 OA
BRANCH  14  15
ATOM     15  C   UNL     1       5.384  -1.123  25.245  0.00  0.00    +0.214 A 
ATOM     16  C   UNL     1       5.512  -2.108  24.075  0.00  0.00    +0.238 A 
ATOM     17  O   UNL     1       6.180  -1.896  23.068  0.00  0.00    -0.283 OA
ATOM     18  C   UNL     1       4.798  -3.363  24.093  0.00  0.00    +0.109 A 
ATOM     19  C   UNL     1       4.191  -3.707  25.279  0.00  0.00    +0.147 A 
ATOM     20  C   UNL     1       3.590  -4.960  25.395  0.00  0.00    +0.093 A 
ATOM     21  C   UNL     1       3.543  -5.827  24.301  0.00  0.00    +0.131 A 
ATOM     22  C   UNL     1       4.134  -5.458  23.091  0.00  0.00    +0.092 A 
ATOM     23  O   UNL     1       4.132  -2.861  26.346  0.00  0.00    -0.451 OA
ATOM     24  C   UNL     1       4.755  -4.226  22.985  0.00  0.00    +0.135 A 
ATOM     25  C   UNL     1       4.550  -1.520  26.247  0.00  0.00    +0.181 A 
BRANCH  25  26
ATOM     26  C   UNL     1       3.883  -0.707  27.353  0.00  0.00    +0.025 A 
ATOM     27  C   UNL     1       2.531  -1.044  27.658  0.00  0.00    +0.015 A 
ATOM     28  C   UNL     1       1.731  -0.323  28.553  0.00  0.00    +0.050 A 
ATOM     29  C   UNL     1       2.274   0.748  29.219  0.00  0.00    +0.158 A 
ATOM     30  C   UNL     1       3.612   1.074  29.013  0.00  0.00    +0.159 A 
ATOM     31  C   UNL     1       4.416   0.377  28.079  0.00  0.00    +0.060 A 
BRANCH  30  32
ATOM     32  O   UNL     1       4.114   2.096  29.776  0.00  0.00    -0.503 OA
ATOM     33  H   UNL     1       4.303   1.719  30.655  0.00  0.00    +0.292 HD
ENDBRANCH  30  32
BRANCH  29  34
ATOM     34  O   UNL     1       1.483   1.433  30.095  0.00  0.00    -0.503 OA
ATOM     35  H   UNL     1       1.626   1.028  30.970  0.00  0.00    +0.292 HD
ENDBRANCH  29  34
ENDBRANCH  25  26
BRANCH  24  36
ATOM     36  O   UNL     1       5.301  -3.880  21.780  0.00  0.00    -0.506 OA
ATOM     37  H   UNL     1       4.619  -3.759  21.103  0.00  0.00    +0.292 HD
ENDBRANCH  24  36
BRANCH  21  38
ATOM     38  O   UNL     1       2.926  -7.038  24.262  0.00  0.00    -0.461 OA
BRANCH  38  39
ATOM     39  C   UNL     1       3.113  -7.904  25.384  0.00  0.00    +0.339 C 
ATOM     40  O   UNL     1       2.608  -9.218  25.086  0.00  0.00    -0.331 OA
ATOM     41  C   UNL     1       1.186  -9.423  25.116  0.00  0.00    +0.179 C 
ATOM     42  C   UNL     1       0.476  -8.794  26.334  0.00  0.00    +0.177 C 
ATOM     43  C   UNL     1       0.986  -7.387  26.676  0.00  0.00    +0.180 C 
ATOM     44  C   UNL     1       2.519  -7.376  26.709  0.00  0.00    +0.214 C 
BRANCH  44  45
ATOM     45  O   UNL     1       2.999  -8.191  27.796  0.00  0.00    -0.383 OA
ATOM     46  H   UNL     1       2.229  -8.704  28.125  0.00  0.00    +0.210 HD
ENDBRANCH  44  45
BRANCH  43  47
ATOM     47  O   UNL     1       0.445  -6.379  25.825  0.00  0.00    -0.386 OA
ATOM     48  H   UNL     1      -0.422  -6.085  26.181  0.00  0.00    +0.210 HD
ENDBRANCH  43  47
BRANCH  42  49
ATOM     49  O   UNL     1       0.737  -9.652  27.463  0.00  0.00    -0.386 OA
ATOM     50  H   UNL     1       1.707  -9.738  27.547  0.00  0.00    +0.210 HD
ENDBRANCH  42  49
BRANCH  41  51
ATOM     51  C   UNL     1       0.520  -9.090  23.773  0.00  0.00    +0.190 C 
BRANCH  51  52
ATOM     52  O   UNL     1       1.460  -8.704  22.778  0.00  0.00    -0.392 OA
ATOM     53  H   UNL     1       1.110  -9.076  21.941  0.00  0.00    +0.210 HD
ENDBRANCH  51  52
ENDBRANCH  41  51
ENDBRANCH  38  39
ENDBRANCH  21  38
ENDBRANCH  14  15
ENDBRANCH   2  14
BRANCH   1  54
ATOM     54  O   UNL     1       7.712   2.671  25.258  0.00  0.00    -0.337 OA
BRANCH  54  57
ATOM     55  C   UNL     1       8.497   5.472  22.984  0.00  0.00    +0.190 C 
ATOM     56  O   UNL     1       8.415   4.672  24.191  0.00  0.00    -0.339 OA
ATOM     57  C   UNL     1       7.671   3.428  24.026  0.00  0.00    +0.282 C 
ATOM     58  C   UNL     1       6.234   3.688  23.526  0.00  0.00    +0.201 C 
ATOM     59  C   UNL     1       6.249   4.625  22.316  0.00  0.00    +0.179 C 
ATOM     60  C   UNL     1       7.077   5.880  22.563  0.00  0.00    +0.178 C 
BRANCH  58  61
ATOM     61  O   UNL     1       5.593   2.457  23.136  0.00  0.00    -0.384 OA
ATOM     62  H   UNL     1       4.632   2.559  23.250  0.00  0.00    +0.210 HD
ENDBRANCH  58  61
BRANCH  59  63
ATOM     63  O   UNL     1       4.913   5.010  21.969  0.00  0.00    -0.386 OA
ATOM     64  H   UNL     1       4.917   5.988  21.979  0.00  0.00    +0.210 HD
ENDBRANCH  59  63
BRANCH  60  65
ATOM     65  O   UNL     1       7.034   6.645  21.353  0.00  0.00    -0.386 OA
ATOM     66  H   UNL     1       6.099   6.884  21.201  0.00  0.00    +0.210 HD
ENDBRANCH  60  65
BRANCH  55  67
ATOM     67  C   UNL     1       9.382   6.732  23.195  0.00  0.00    +0.266 C 
BRANCH  67  68
ATOM     68  O   UNL     1      10.650   6.433  23.850  0.00  0.00    -0.459 OA
BRANCH  68  69
ATOM     69  C   UNL     1      10.773   6.809  25.155  0.00  0.00    +0.332 C 
ATOM     70  O   UNL     1      11.819   6.924  25.764  0.00  0.00    -0.246 OA
BRANCH  69  72
ATOM     71  C   UNL     1       8.851   6.271  26.615  0.00  0.00    +0.015 C 
ATOM     72  C   UNL     1       9.419   7.096  25.713  0.00  0.00    +0.092 C 
BRANCH  71  75
ATOM     73  C   UNL     1       5.122   6.774  27.246  0.00  0.00    +0.162 A 
ATOM     74  C   UNL     1       6.337   6.585  26.573  0.00  0.00    +0.057 A 
ATOM     75  C   UNL     1       7.545   6.484  27.283  0.00  0.00    -0.021 A 
ATOM     76  C   UNL     1       7.501   6.546  28.687  0.00  0.00    +0.012 A 
ATOM     77  C   UNL     1       6.293   6.755  29.364  0.00  0.00    +0.050 A 
ATOM     78  C   UNL     1       5.119   6.880  28.639  0.00  0.00    +0.158 A 
BRANCH  73  80
ATOM     79  C   UNL     1       3.400   5.712  26.026  0.00  0.00    +0.277 C 
ATOM     80  O   UNL     1       3.894   6.899  26.642  0.00  0.00    -0.491 OA
ENDBRANCH  73  80
BRANCH  78  81
ATOM     81  O   UNL     1       3.949   7.086  29.319  0.00  0.00    -0.503 OA
ATOM     82  H   UNL     1       3.333   6.407  28.984  0.00  0.00    +0.292 HD
ENDBRANCH  78  81
ENDBRANCH  71  75
ENDBRANCH  69  72
ENDBRANCH  68  69
ENDBRANCH  67  68
ENDBRANCH  55  67
ENDBRANCH  54  57
ENDBRANCH   1  54
TORSDOF 29
ENDMDL
MODEL 9
REMARK VINA RESULT:      -3.3      1.858      6.424
REMARK  Name = 
REMARK  30 active torsions:
REMARK  status: ('A' for Active; 'I' for Inactive)
REMARK    1  A    between atoms: C_1  and  O_2
REMARK    2  A    between atoms: O_2  and  C_3
REMARK    3  A    between atoms: C_4  and  O_83
REMARK    4  A    between atoms: C_7  and  C_9
REMARK    5  A    between atoms: C_10  and  C_11
REMARK    6  A    between atoms: C_11  and  O_13
REMARK    7  A    between atoms: O_13  and  C_14
REMARK    8  A    between atoms: C_14  and  C_15
REMARK    9  A    between atoms: C_17  and  O_82
REMARK   10  A    between atoms: C_19  and  O_81
REMARK   11  A    between atoms: C_21  and  O_80
REMARK   12  A    between atoms: C_23  and  O_26
REMARK   13  A    between atoms: O_26  and  C_27
REMARK   14  A    between atoms: C_29  and  O_79
REMARK   15  A    between atoms: C_31  and  O_78
REMARK   16  A    between atoms: C_33  and  C_76
REMARK   17  A    between atoms: C_36  and  O_38
REMARK   18  A    between atoms: O_38  and  C_39
REMARK   19  A    between atoms: C_40  and  C_68
REMARK   20  A    between atoms: C_44  and  O_51
REMARK   21  A    between atoms: C_46  and  O_50
REMARK   22  A    between atoms: O_51  and  C_52
REMARK   23  A    between atoms: C_54  and  O_67
REMARK   24  A    between atoms: C_56  and  O_66
REMARK   25  A    between atoms: C_58  and  O_65
REMARK   26  A    between atoms: C_60  and  C_63
REMARK   27  A    between atoms: C_63  and  O_64
REMARK   28  A    between atoms: C_70  and  O_75
REMARK   29  A    between atoms: C_71  and  O_74
REMARK   30  A    between atoms: C_76  and  O_77
REMARK                            x       y       z     vdW  Elec       q    Type
REMARK                         _______ _______ _______ _____ _____    ______ ____
ROOT
ATOM      1  C   UNL     1       4.076   3.182  23.415  0.00  0.00    +0.221 C 
ATOM      2  C   UNL     1       4.525   3.900  24.752  0.00  0.00    +0.340 C 
ATOM      3  O   UNL     1       3.343   4.155  25.577  0.00  0.00    -0.331 OA
ATOM      4  C   UNL     1       2.570   5.218  24.933  0.00  0.00    +0.179 C 
ATOM      5  C   UNL     1       2.021   4.705  23.590  0.00  0.00    +0.177 C 
ATOM      6  C   UNL     1       3.179   4.230  22.691  0.00  0.00    +0.180 C 
ENDROOT
BRANCH   6   7
ATOM      7  O   UNL     1       2.603   3.721  21.474  0.00  0.00    -0.386 OA
ATOM      8  H   UNL     1       1.753   4.193  21.386  0.00  0.00    +0.210 HD
ENDBRANCH   6   7
BRANCH   5   9
ATOM      9  O   UNL     1       1.280   5.728  22.905  0.00  0.00    -0.386 OA
ATOM     10  H   UNL     1       0.942   6.310  23.619  0.00  0.00    +0.210 HD
ENDBRANCH   5   9
BRANCH   4  11
ATOM     11  C   UNL     1       1.467   5.788  25.841  0.00  0.00    +0.190 C 
BRANCH  11  12
ATOM     12  O   UNL     1       0.869   6.964  25.289  0.00  0.00    -0.392 OA
ATOM     13  H   UNL     1       0.047   7.139  25.801  0.00  0.00    +0.210 HD
ENDBRANCH  11  12
ENDBRANCH   4  11
BRANCH   2  14
ATOM     14  O   UNL     1       5.634   3.242  25.427  0.00  0.00    -0.453 OA
BRANCH  14  15
ATOM     15  C   UNL     1       5.214   2.179  26.274  0.00  0.00    +0.214 A 
ATOM     16  C   UNL     1       5.103   0.750  25.723  0.00  0.00    +0.238 A 
ATOM     17  O   UNL     1       5.437   0.424  24.589  0.00  0.00    -0.283 OA
ATOM     18  C   UNL     1       4.549  -0.307  26.535  0.00  0.00    +0.109 A 
ATOM     19  C   UNL     1       4.336  -0.013  27.863  0.00  0.00    +0.147 A 
ATOM     20  C   UNL     1       3.917  -1.028  28.724  0.00  0.00    +0.093 A 
ATOM     21  C   UNL     1       3.649  -2.308  28.232  0.00  0.00    +0.131 A 
ATOM     22  C   UNL     1       3.837  -2.589  26.877  0.00  0.00    +0.092 A 
ATOM     23  O   UNL     1       4.498   1.241  28.373  0.00  0.00    -0.451 OA
ATOM     24  C   UNL     1       4.281  -1.589  26.029  0.00  0.00    +0.135 A 
ATOM     25  C   UNL     1       4.738   2.350  27.540  0.00  0.00    +0.181 A 
BRANCH  25  26
ATOM     26  C   UNL     1       4.333   3.623  28.276  0.00  0.00    +0.025 A 
ATOM     27  C   UNL     1       3.035   3.627  28.867  0.00  0.00    +0.015 A 
ATOM     28  C   UNL     1       2.456   4.751  29.470  0.00  0.00    +0.050 A 
ATOM     29  C   UNL     1       3.181   5.915  29.546  0.00  0.00    +0.158 A 
ATOM     30  C   UNL     1       4.482   5.943  29.050  0.00  0.00    +0.159 A 
ATOM     31  C   UNL     1       5.060   4.824  28.401  0.00  0.00    +0.060 A 
BRANCH  30  32
ATOM     32  O   UNL     1       5.181   7.107  29.239  0.00  0.00    -0.503 OA
ATOM     33  H   UNL     1       4.878   7.728  28.551  0.00  0.00    +0.292 HD
ENDBRANCH  30  32
BRANCH  29  34
ATOM     34  O   UNL     1       2.605   6.997  30.146  0.00  0.00    -0.503 OA
ATOM     35  H   UNL     1       2.606   6.813  31.104  0.00  0.00    +0.292 HD
ENDBRANCH  29  34
ENDBRANCH  25  26
BRANCH  24  36
ATOM     36  O   UNL     1       4.429  -1.887  24.703  0.00  0.00    -0.506 OA
ATOM     37  H   UNL     1       5.108  -1.333  24.288  0.00  0.00    +0.292 HD
ENDBRANCH  24  36
BRANCH  21  38
ATOM     38  O   UNL     1       3.167  -3.358  28.948  0.00  0.00    -0.461 OA
BRANCH  38  39
ATOM     39  C   UNL     1       4.008  -4.509  29.067  0.00  0.00    +0.339 C 
ATOM     40  O   UNL     1       3.886  -5.335  27.895  0.00  0.00    -0.331 OA
ATOM     41  C   UNL     1       2.716  -6.157  27.761  0.00  0.00    +0.179 C 
ATOM     42  C   UNL     1       2.317  -6.914  29.045  0.00  0.00    +0.177 C 
ATOM     43  C   UNL     1       2.427  -6.059  30.315  0.00  0.00    +0.180 C 
ATOM     44  C   UNL     1       3.780  -5.340  30.350  0.00  0.00    +0.214 C 
BRANCH  44  45
ATOM     45  O   UNL     1       4.849  -6.297  30.484  0.00  0.00    -0.383 OA
ATOM     46  H   UNL     1       5.540  -5.871  31.037  0.00  0.00    +0.210 HD
ENDBRANCH  44  45
BRANCH  43  47
ATOM     47  O   UNL     1       1.325  -5.170  30.483  0.00  0.00    -0.386 OA
ATOM     48  H   UNL     1       1.621  -4.250  30.311  0.00  0.00    +0.210 HD
ENDBRANCH  43  47
BRANCH  42  49
ATOM     49  O   UNL     1       3.222  -8.029  29.175  0.00  0.00    -0.386 OA
ATOM     50  H   UNL     1       2.905  -8.734  28.578  0.00  0.00    +0.210 HD
ENDBRANCH  42  49
BRANCH  41  51
ATOM     51  C   UNL     1       1.551  -5.409  27.098  0.00  0.00    +0.190 C 
BRANCH  51  52
ATOM     52  O   UNL     1       1.429  -5.707  25.712  0.00  0.00    -0.392 OA
ATOM     53  H   UNL     1       0.837  -5.011  25.354  0.00  0.00    +0.210 HD
ENDBRANCH  51  52
ENDBRANCH  41  51
ENDBRANCH  38  39
ENDBRANCH  21  38
ENDBRANCH  14  15
ENDBRANCH   2  14
BRANCH   1  54
ATOM     54  O   UNL     1       5.093   2.711  22.475  0.00  0.00    -0.337 OA
BRANCH  54  57
ATOM     55  C   UNL     1       8.750   3.209  22.572  0.00  0.00    +0.190 C 
ATOM     56  O   UNL     1       7.449   2.592  22.743  0.00  0.00    -0.339 OA
ATOM     57  C   UNL     1       6.334   3.442  22.340  0.00  0.00    +0.282 C 
ATOM     58  C   UNL     1       6.332   4.779  23.111  0.00  0.00    +0.201 C 
ATOM     59  C   UNL     1       7.719   5.425  23.064  0.00  0.00    +0.179 C 
ATOM     60  C   UNL     1       8.826   4.458  23.465  0.00  0.00    +0.178 C 
BRANCH  58  61
ATOM     61  O   UNL     1       5.385   5.702  22.540  0.00  0.00    -0.384 OA
ATOM     62  H   UNL     1       5.851   6.270  21.902  0.00  0.00    +0.210 HD
ENDBRANCH  58  61
BRANCH  59  63
ATOM     63  O   UNL     1       7.764   6.568  23.929  0.00  0.00    -0.386 OA
ATOM     64  H   UNL     1       8.456   6.362  24.589  0.00  0.00    +0.210 HD
ENDBRANCH  59  63
BRANCH  60  65
ATOM     65  O   UNL     1      10.060   5.174  23.347  0.00  0.00    -0.386 OA
ATOM     66  H   UNL     1      10.670   4.607  22.836  0.00  0.00    +0.210 HD
ENDBRANCH  60  65
BRANCH  55  67
ATOM     67  C   UNL     1       9.899   2.223  22.923  0.00  0.00    +0.266 C 
BRANCH  67  68
ATOM     68  O   UNL     1       9.425   0.870  23.190  0.00  0.00    -0.459 OA
BRANCH  68  69
ATOM     69  C   UNL     1      10.058   0.181  24.182  0.00  0.00    +0.332 C 
ATOM     70  O   UNL     1      11.070   0.535  24.757  0.00  0.00    -0.246 OA
BRANCH  69  72
ATOM     71  C   UNL     1       8.467  -1.608  23.565  0.00  0.00    +0.015 C 
ATOM     72  C   UNL     1       9.292  -1.064  24.482  0.00  0.00    +0.092 C 
BRANCH  71  75
ATOM     73  C   UNL     1       7.065  -4.863  24.981  0.00  0.00    +0.162 A 
ATOM     74  C   UNL     1       7.814  -3.683  24.866  0.00  0.00    +0.057 A 
ATOM     75  C   UNL     1       7.706  -2.870  23.725  0.00  0.00    -0.021 A 
ATOM     76  C   UNL     1       6.806  -3.254  22.715  0.00  0.00    +0.012 A 
ATOM     77  C   UNL     1       6.071  -4.441  22.814  0.00  0.00    +0.050 A 
ATOM     78  C   UNL     1       6.216  -5.240  23.937  0.00  0.00    +0.158 A 
BRANCH  73  80
ATOM     79  C   UNL     1       7.219  -5.107  27.325  0.00  0.00    +0.277 C 
ATOM     80  O   UNL     1       7.111  -5.728  26.046  0.00  0.00    -0.491 OA
ENDBRANCH  73  80
BRANCH  78  81
ATOM     81  O   UNL     1       5.491  -6.398  24.015  0.00  0.00    -0.503 OA
ATOM     82  H   UNL     1       4.569  -6.138  23.827  0.00  0.00    +0.292 HD
ENDBRANCH  78  81
ENDBRANCH  71  75
ENDBRANCH  69  72
ENDBRANCH  68  69
ENDBRANCH  67  68
ENDBRANCH  55  67
ENDBRANCH  54  57
ENDBRANCH   1  54
TORSDOF 29
ENDMDL
