MODEL 1
REMARK VINA RESULT:      -7.3      0.000      0.000
REMARK  Name = 
REMARK  15 active torsions:
REMARK  status: ('A' for Active; 'I' for Inactive)
REMARK    1  A    between atoms: C_1  and  C_2
REMARK    2  A    between atoms: C_3  and  O_41
REMARK    3  A    between atoms: C_4  and  O_40
REMARK    4  A    between atoms: C_5  and  O_30
REMARK    5  A    between atoms: C_6  and  O_8
REMARK    6  A    between atoms: O_8  and  C_9
REMARK    7  A    between atoms: C_10  and  C_22
REMARK    8  A    between atoms: C_14  and  O_21
REMARK    9  A    between atoms: C_16  and  O_20
REMARK   10  A    between atoms: C_24  and  O_29
REMARK   11  A    between atoms: C_25  and  O_28
REMARK   12  A    between atoms: O_30  and  C_31
REMARK   13  A    between atoms: C_32  and  O_39
REMARK   14  A    between atoms: C_33  and  O_38
REMARK   15  A    between atoms: C_34  and  O_37
REMARK                            x       y       z     vdW  Elec       q    Type
REMARK                         _______ _______ _______ _____ _____    ______ ____
ROOT
ATOM      1  O   UNL     1       7.249  -4.060  25.363  0.00  0.00    -0.453 OA
ENDROOT
BRANCH   1   2
ATOM      2  C   UNL     1       7.446  -2.757  24.897  0.00  0.00    +0.214 A 
ATOM      3  C   UNL     1       8.677  -2.486  24.057  0.00  0.00    +0.238 A 
ATOM      4  O   UNL     1       9.557  -3.332  23.958  0.00  0.00    -0.283 OA
ATOM      5  C   UNL     1       8.804  -1.182  23.389  0.00  0.00    +0.109 A 
ATOM      6  C   UNL     1       7.918  -0.195  23.770  0.00  0.00    +0.147 A 
ATOM      7  C   UNL     1       7.971   1.092  23.214  0.00  0.00    +0.092 A 
ATOM      8  C   UNL     1       8.911   1.371  22.236  0.00  0.00    +0.124 A 
ATOM      9  C   UNL     1       9.815   0.394  21.834  0.00  0.00    +0.091 A 
ATOM     10  O   UNL     1       6.967  -0.393  24.725  0.00  0.00    -0.451 OA
ATOM     11  C   UNL     1       9.766  -0.879  22.416  0.00  0.00    +0.135 A 
ATOM     12  C   UNL     1       6.701  -1.667  25.266  0.00  0.00    +0.181 A 
BRANCH  12  13
ATOM     13  C   UNL     1       5.542  -1.497  26.225  0.00  0.00    +0.025 A 
ATOM     14  C   UNL     1       5.746  -0.647  27.357  0.00  0.00    +0.015 A 
ATOM     15  C   UNL     1       4.736  -0.316  28.271  0.00  0.00    +0.050 A 
ATOM     16  C   UNL     1       3.474  -0.818  28.071  0.00  0.00    +0.158 A 
ATOM     17  C   UNL     1       3.225  -1.655  26.981  0.00  0.00    +0.159 A 
ATOM     18  C   UNL     1       4.245  -2.007  26.065  0.00  0.00    +0.060 A 
BRANCH  16  19
ATOM     19  O   UNL     1       2.476  -0.470  28.937  0.00  0.00    -0.503 OA
ATOM     20  H   UNL     1       1.707  -0.261  28.371  0.00  0.00    +0.292 HD
ENDBRANCH  16  19
BRANCH  17  21
ATOM     21  O   UNL     1       1.942  -2.093  26.837  0.00  0.00    -0.503 OA
ATOM     22  H   UNL     1       1.513  -2.101  27.703  0.00  0.00    +0.292 HD
ENDBRANCH  17  21
ENDBRANCH  12  13
BRANCH   8  23
ATOM     23  O   UNL     1       8.992   2.587  21.625  0.00  0.00    -0.507 OA
ATOM     24  H   UNL     1       8.913   3.289  22.292  0.00  0.00    +0.292 HD
ENDBRANCH   8  23
BRANCH  11  25
ATOM     25  O   UNL     1      10.659  -1.818  21.990  0.00  0.00    -0.506 OA
ATOM     26  H   UNL     1      10.191  -2.624  21.717  0.00  0.00    +0.292 HD
ENDBRANCH  11  25
ENDBRANCH   1   2
BRANCH   1  30
ATOM     27  C   UNL     1       5.870  -5.951  21.505  0.00  0.00    +0.041 C 
ATOM     28  C   UNL     1       5.144  -5.064  22.532  0.00  0.00    +0.150 C 
ATOM     29  O   UNL     1       6.014  -4.351  23.413  0.00  0.00    -0.334 OA
ATOM     30  C   UNL     1       6.696  -5.084  24.452  0.00  0.00    +0.340 C 
ATOM     31  C   UNL     1       5.779  -6.172  25.171  0.00  0.00    +0.221 C 
ATOM     32  C   UNL     1       4.800  -6.874  24.190  0.00  0.00    +0.180 C 
ATOM     33  C   UNL     1       4.087  -5.833  23.320  0.00  0.00    +0.174 C 
BRANCH  32  34
ATOM     34  O   UNL     1       3.798  -7.636  24.901  0.00  0.00    -0.386 OA
ATOM     35  H   UNL     1       3.903  -7.364  25.835  0.00  0.00    +0.210 HD
ENDBRANCH  32  34
BRANCH  33  36
ATOM     36  O   UNL     1       3.132  -6.412  22.425  0.00  0.00    -0.387 OA
ATOM     37  H   UNL     1       3.024  -7.351  22.660  0.00  0.00    +0.210 HD
ENDBRANCH  33  36
BRANCH  31  38
ATOM     38  O   UNL     1       4.896  -5.699  26.210  0.00  0.00    -0.337 OA
BRANCH  38  39
ATOM     39  C   UNL     1       4.986  -6.391  27.459  0.00  0.00    +0.282 C 
ATOM     40  O   UNL     1       3.783  -7.044  27.868  0.00  0.00    -0.346 OA
ATOM     41  C   UNL     1       2.658  -6.181  28.048  0.00  0.00    +0.197 C 
ATOM     42  C   UNL     1       2.912  -5.073  29.065  0.00  0.00    +0.171 C 
ATOM     43  C   UNL     1       4.266  -4.389  28.835  0.00  0.00    +0.178 C 
ATOM     44  C   UNL     1       5.404  -5.384  28.548  0.00  0.00    +0.201 C 
BRANCH  42  45
ATOM     45  O   UNL     1       2.816  -5.574  30.406  0.00  0.00    -0.387 OA
ATOM     46  H   UNL     1       3.364  -5.022  30.989  0.00  0.00    +0.210 HD
ENDBRANCH  42  45
BRANCH  43  47
ATOM     47  O   UNL     1       4.631  -3.608  29.992  0.00  0.00    -0.386 OA
ATOM     48  H   UNL     1       3.808  -3.387  30.471  0.00  0.00    +0.210 HD
ENDBRANCH  43  47
BRANCH  44  49
ATOM     49  O   UNL     1       6.594  -4.676  28.161  0.00  0.00    -0.384 OA
ATOM     50  H   UNL     1       6.955  -4.272  28.972  0.00  0.00    +0.210 HD
ENDBRANCH  44  49
ENDBRANCH  38  39
ENDBRANCH  31  38
ENDBRANCH   1  30
TORSDOF 14
ENDMDL
MODEL 2
REMARK VINA RESULT:      -7.1      1.781      4.826
REMARK  Name = 
REMARK  15 active torsions:
REMARK  status: ('A' for Active; 'I' for Inactive)
REMARK    1  A    between atoms: C_1  and  C_2
REMARK    2  A    between atoms: C_3  and  O_41
REMARK    3  A    between atoms: C_4  and  O_40
REMARK    4  A    between atoms: C_5  and  O_30
REMARK    5  A    between atoms: C_6  and  O_8
REMARK    6  A    between atoms: O_8  and  C_9
REMARK    7  A    between atoms: C_10  and  C_22
REMARK    8  A    between atoms: C_14  and  O_21
REMARK    9  A    between atoms: C_16  and  O_20
REMARK   10  A    between atoms: C_24  and  O_29
REMARK   11  A    between atoms: C_25  and  O_28
REMARK   12  A    between atoms: O_30  and  C_31
REMARK   13  A    between atoms: C_32  and  O_39
REMARK   14  A    between atoms: C_33  and  O_38
REMARK   15  A    between atoms: C_34  and  O_37
REMARK                            x       y       z     vdW  Elec       q    Type
REMARK                         _______ _______ _______ _____ _____    ______ ____
ROOT
ATOM      1  O   UNL     1       5.974  -1.440  26.325  0.00  0.00    -0.453 OA
ENDROOT
BRANCH   1   2
ATOM      2  C   UNL     1       6.706  -0.876  25.277  0.00  0.00    +0.214 A 
ATOM      3  C   UNL     1       7.146   0.566  25.418  0.00  0.00    +0.238 A 
ATOM      4  O   UNL     1       6.708   1.261  26.328  0.00  0.00    -0.283 OA
ATOM      5  C   UNL     1       8.084   1.121  24.431  0.00  0.00    +0.109 A 
ATOM      6  C   UNL     1       8.310   0.370  23.294  0.00  0.00    +0.147 A 
ATOM      7  C   UNL     1       9.165   0.821  22.277  0.00  0.00    +0.092 A 
ATOM      8  C   UNL     1       9.825   2.028  22.430  0.00  0.00    +0.124 A 
ATOM      9  C   UNL     1       9.615   2.803  23.566  0.00  0.00    +0.091 A 
ATOM     10  O   UNL     1       7.698  -0.826  23.072  0.00  0.00    -0.451 OA
ATOM     11  C   UNL     1       8.739   2.353  24.561  0.00  0.00    +0.135 A 
ATOM     12  C   UNL     1       6.927  -1.470  24.061  0.00  0.00    +0.181 A 
BRANCH  12  13
ATOM     13  C   UNL     1       6.485  -2.793  23.473  0.00  0.00    +0.025 A 
ATOM     14  C   UNL     1       7.510  -3.715  23.089  0.00  0.00    +0.015 A 
ATOM     15  C   UNL     1       7.252  -5.013  22.626  0.00  0.00    +0.050 A 
ATOM     16  C   UNL     1       5.949  -5.438  22.547  0.00  0.00    +0.158 A 
ATOM     17  C   UNL     1       4.914  -4.574  22.908  0.00  0.00    +0.159 A 
ATOM     18  C   UNL     1       5.167  -3.257  23.359  0.00  0.00    +0.060 A 
BRANCH  16  19
ATOM     19  O   UNL     1       5.692  -6.715  22.131  0.00  0.00    -0.503 OA
ATOM     20  H   UNL     1       5.406  -7.193  22.934  0.00  0.00    +0.292 HD
ENDBRANCH  16  19
BRANCH  17  21
ATOM     21  O   UNL     1       3.649  -5.079  22.825  0.00  0.00    -0.503 OA
ATOM     22  H   UNL     1       3.150  -4.805  23.605  0.00  0.00    +0.292 HD
ENDBRANCH  17  21
ENDBRANCH  12  13
BRANCH   8  23
ATOM     23  O   UNL     1      10.702   2.506  21.501  0.00  0.00    -0.507 OA
ATOM     24  H   UNL     1      10.253   3.163  20.944  0.00  0.00    +0.292 HD
ENDBRANCH   8  23
BRANCH  11  25
ATOM     25  O   UNL     1       8.564   3.131  25.668  0.00  0.00    -0.506 OA
ATOM     26  H   UNL     1       7.690   3.554  25.642  0.00  0.00    +0.292 HD
ENDBRANCH  11  25
ENDBRANCH   1   2
BRANCH   1  30
ATOM     27  C   UNL     1       2.139   0.781  27.172  0.00  0.00    +0.041 C 
ATOM     28  C   UNL     1       3.037  -0.097  28.062  0.00  0.00    +0.150 C 
ATOM     29  O   UNL     1       4.353  -0.304  27.547  0.00  0.00    -0.334 OA
ATOM     30  C   UNL     1       4.521  -1.188  26.418  0.00  0.00    +0.340 C 
ATOM     31  C   UNL     1       3.632  -2.509  26.505  0.00  0.00    +0.221 C 
ATOM     32  C   UNL     1       2.235  -2.252  27.135  0.00  0.00    +0.180 C 
ATOM     33  C   UNL     1       2.378  -1.427  28.419  0.00  0.00    +0.174 C 
BRANCH  32  34
ATOM     34  O   UNL     1       1.569  -3.492  27.462  0.00  0.00    -0.386 OA
ATOM     35  H   UNL     1       0.629  -3.242  27.570  0.00  0.00    +0.210 HD
ENDBRANCH  32  34
BRANCH  33  36
ATOM     36  O   UNL     1       1.128  -1.196  29.076  0.00  0.00    -0.387 OA
ATOM     37  H   UNL     1       1.214  -1.480  30.004  0.00  0.00    +0.210 HD
ENDBRANCH  33  36
BRANCH  31  38
ATOM     38  O   UNL     1       4.145  -3.590  27.312  0.00  0.00    -0.337 OA
BRANCH  38  39
ATOM     39  C   UNL     1       4.353  -4.828  26.625  0.00  0.00    +0.282 C 
ATOM     40  O   UNL     1       3.512  -5.898  27.056  0.00  0.00    -0.346 OA
ATOM     41  C   UNL     1       3.647  -6.257  28.433  0.00  0.00    +0.197 C 
ATOM     42  C   UNL     1       5.072  -6.652  28.810  0.00  0.00    +0.171 C 
ATOM     43  C   UNL     1       6.102  -5.658  28.259  0.00  0.00    +0.178 C 
ATOM     44  C   UNL     1       5.826  -5.245  26.803  0.00  0.00    +0.201 C 
BRANCH  42  45
ATOM     45  O   UNL     1       5.368  -7.986  28.373  0.00  0.00    -0.387 OA
ATOM     46  H   UNL     1       4.534  -8.444  28.171  0.00  0.00    +0.210 HD
ENDBRANCH  42  45
BRANCH  43  47
ATOM     47  O   UNL     1       7.426  -6.227  28.323  0.00  0.00    -0.386 OA
ATOM     48  H   UNL     1       7.729  -6.167  29.251  0.00  0.00    +0.210 HD
ENDBRANCH  43  47
BRANCH  44  49
ATOM     49  O   UNL     1       6.711  -4.181  26.414  0.00  0.00    -0.384 OA
ATOM     50  H   UNL     1       7.076  -4.424  25.544  0.00  0.00    +0.210 HD
ENDBRANCH  44  49
ENDBRANCH  38  39
ENDBRANCH  31  38
ENDBRANCH   1  30
TORSDOF 14
ENDMDL
MODEL 3
REMARK VINA RESULT:      -7.1      2.957      8.930
REMARK  Name = 
REMARK  15 active torsions:
REMARK  status: ('A' for Active; 'I' for Inactive)
REMARK    1  A    between atoms: C_1  and  C_2
REMARK    2  A    between atoms: C_3  and  O_41
REMARK    3  A    between atoms: C_4  and  O_40
REMARK    4  A    between atoms: C_5  and  O_30
REMARK    5  A    between atoms: C_6  and  O_8
REMARK    6  A    between atoms: O_8  and  C_9
REMARK    7  A    between atoms: C_10  and  C_22
REMARK    8  A    between atoms: C_14  and  O_21
REMARK    9  A    between atoms: C_16  and  O_20
REMARK   10  A    between atoms: C_24  and  O_29
REMARK   11  A    between atoms: C_25  and  O_28
REMARK   12  A    between atoms: O_30  and  C_31
REMARK   13  A    between atoms: C_32  and  O_39
REMARK   14  A    between atoms: C_33  and  O_38
REMARK   15  A    between atoms: C_34  and  O_37
REMARK                            x       y       z     vdW  Elec       q    Type
REMARK                         _______ _______ _______ _____ _____    ______ ____
ROOT
ATOM      1  O   UNL     1       5.412   0.293  24.911  0.00  0.00    -0.453 OA
ENDROOT
BRANCH   1   2
ATOM      2  C   UNL     1       5.805  -0.944  24.392  0.00  0.00    +0.214 A 
ATOM      3  C   UNL     1       5.018  -2.169  24.808  0.00  0.00    +0.238 A 
ATOM      4  O   UNL     1       4.196  -2.097  25.715  0.00  0.00    -0.283 OA
ATOM      5  C   UNL     1       5.279  -3.444  24.125  0.00  0.00    +0.109 A 
ATOM      6  C   UNL     1       6.400  -3.505  23.321  0.00  0.00    +0.147 A 
ATOM      7  C   UNL     1       6.754  -4.682  22.647  0.00  0.00    +0.092 A 
ATOM      8  C   UNL     1       5.945  -5.801  22.760  0.00  0.00    +0.124 A 
ATOM      9  C   UNL     1       4.810  -5.765  23.563  0.00  0.00    +0.091 A 
ATOM     10  O   UNL     1       7.243  -2.448  23.160  0.00  0.00    -0.451 OA
ATOM     11  C   UNL     1       4.482  -4.591  24.251  0.00  0.00    +0.135 A 
ATOM     12  C   UNL     1       6.942  -1.164  23.658  0.00  0.00    +0.181 A 
BRANCH  12  13
ATOM     13  C   UNL     1       8.068  -0.253  23.217  0.00  0.00    +0.025 A 
ATOM     14  C   UNL     1       7.948   0.364  21.932  0.00  0.00    +0.015 A 
ATOM     15  C   UNL     1       8.859   1.306  21.436  0.00  0.00    +0.050 A 
ATOM     16  C   UNL     1       9.921   1.676  22.223  0.00  0.00    +0.158 A 
ATOM     17  C   UNL     1      10.084   1.100  23.484  0.00  0.00    +0.159 A 
ATOM     18  C   UNL     1       9.177   0.135  23.984  0.00  0.00    +0.060 A 
BRANCH  16  19
ATOM     19  O   UNL     1      10.793   2.621  21.759  0.00  0.00    -0.503 OA
ATOM     20  H   UNL     1      11.683   2.266  21.955  0.00  0.00    +0.292 HD
ENDBRANCH  16  19
BRANCH  17  21
ATOM     21  O   UNL     1      11.149   1.536  24.215  0.00  0.00    -0.503 OA
ATOM     22  H   UNL     1      11.248   2.489  24.087  0.00  0.00    +0.292 HD
ENDBRANCH  17  21
ENDBRANCH  12  13
BRANCH   8  23
ATOM     23  O   UNL     1       6.207  -6.964  22.099  0.00  0.00    -0.507 OA
ATOM     24  H   UNL     1       5.374  -7.436  21.936  0.00  0.00    +0.292 HD
ENDBRANCH   8  23
BRANCH  11  25
ATOM     25  O   UNL     1       3.357  -4.586  25.021  0.00  0.00    -0.506 OA
ATOM     26  H   UNL     1       3.214  -3.702  25.398  0.00  0.00    +0.292 HD
ENDBRANCH  11  25
ENDBRANCH   1   2
BRANCH   1  30
ATOM     27  C   UNL     1       5.982   0.806  29.357  0.00  0.00    +0.041 C 
ATOM     28  C   UNL     1       5.109   1.560  28.339  0.00  0.00    +0.150 C 
ATOM     29  O   UNL     1       4.905   0.863  27.109  0.00  0.00    -0.334 OA
ATOM     30  C   UNL     1       6.003   0.774  26.176  0.00  0.00    +0.340 C 
ATOM     31  C   UNL     1       6.832   2.129  26.037  0.00  0.00    +0.221 C 
ATOM     32  C   UNL     1       6.971   2.889  27.385  0.00  0.00    +0.180 C 
ATOM     33  C   UNL     1       5.609   2.979  28.082  0.00  0.00    +0.174 C 
BRANCH  32  34
ATOM     34  O   UNL     1       7.468   4.230  27.184  0.00  0.00    -0.386 OA
ATOM     35  H   UNL     1       7.925   4.194  26.319  0.00  0.00    +0.210 HD
ENDBRANCH  32  34
BRANCH  33  36
ATOM     36  O   UNL     1       5.658   3.712  29.310  0.00  0.00    -0.387 OA
ATOM     37  H   UNL     1       5.632   4.663  29.100  0.00  0.00    +0.210 HD
ENDBRANCH  33  36
BRANCH  31  38
ATOM     38  O   UNL     1       6.291   3.139  25.161  0.00  0.00    -0.337 OA
BRANCH  38  39
ATOM     39  C   UNL     1       6.874   3.203  23.857  0.00  0.00    +0.282 C 
ATOM     40  O   UNL     1       7.833   4.248  23.682  0.00  0.00    -0.346 OA
ATOM     41  C   UNL     1       7.330   5.570  23.885  0.00  0.00    +0.197 C 
ATOM     42  C   UNL     1       6.155   5.908  22.972  0.00  0.00    +0.171 C 
ATOM     43  C   UNL     1       5.116   4.780  22.940  0.00  0.00    +0.178 C 
ATOM     44  C   UNL     1       5.746   3.381  22.823  0.00  0.00    +0.201 C 
BRANCH  42  45
ATOM     45  O   UNL     1       6.607   6.220  21.647  0.00  0.00    -0.387 OA
ATOM     46  H   UNL     1       7.572   6.341  21.663  0.00  0.00    +0.210 HD
ENDBRANCH  42  45
BRANCH  43  47
ATOM     47  O   UNL     1       4.215   4.964  21.829  0.00  0.00    -0.386 OA
ATOM     48  H   UNL     1       3.539   4.260  21.877  0.00  0.00    +0.210 HD
ENDBRANCH  43  47
BRANCH  44  49
ATOM     49  O   UNL     1       4.737   2.370  22.986  0.00  0.00    -0.384 OA
ATOM     50  H   UNL     1       3.973   2.648  22.449  0.00  0.00    +0.210 HD
ENDBRANCH  44  49
ENDBRANCH  38  39
ENDBRANCH  31  38
ENDBRANCH   1  30
TORSDOF 14
ENDMDL
MODEL 4
REMARK VINA RESULT:      -7.0      2.460      7.855
REMARK  Name = 
REMARK  15 active torsions:
REMARK  status: ('A' for Active; 'I' for Inactive)
REMARK    1  A    between atoms: C_1  and  C_2
REMARK    2  A    between atoms: C_3  and  O_41
REMARK    3  A    between atoms: C_4  and  O_40
REMARK    4  A    between atoms: C_5  and  O_30
REMARK    5  A    between atoms: C_6  and  O_8
REMARK    6  A    between atoms: O_8  and  C_9
REMARK    7  A    between atoms: C_10  and  C_22
REMARK    8  A    between atoms: C_14  and  O_21
REMARK    9  A    between atoms: C_16  and  O_20
REMARK   10  A    between atoms: C_24  and  O_29
REMARK   11  A    between atoms: C_25  and  O_28
REMARK   12  A    between atoms: O_30  and  C_31
REMARK   13  A    between atoms: C_32  and  O_39
REMARK   14  A    between atoms: C_33  and  O_38
REMARK   15  A    between atoms: C_34  and  O_37
REMARK                            x       y       z     vdW  Elec       q    Type
REMARK                         _______ _______ _______ _____ _____    ______ ____
ROOT
ATOM      1  O   UNL     1       6.311  -0.845  23.073  0.00  0.00    -0.453 OA
ENDROOT
BRANCH   1   2
ATOM      2  C   UNL     1       5.853  -1.918  23.843  0.00  0.00    +0.214 A 
ATOM      3  C   UNL     1       5.413  -3.173  23.117  0.00  0.00    +0.238 A 
ATOM      4  O   UNL     1       5.282  -3.168  21.898  0.00  0.00    -0.283 OA
ATOM      5  C   UNL     1       5.121  -4.380  23.903  0.00  0.00    +0.109 A 
ATOM      6  C   UNL     1       5.023  -4.227  25.272  0.00  0.00    +0.147 A 
ATOM      7  C   UNL     1       4.722  -5.310  26.110  0.00  0.00    +0.092 A 
ATOM      8  C   UNL     1       4.551  -6.569  25.559  0.00  0.00    +0.124 A 
ATOM      9  C   UNL     1       4.645  -6.750  24.183  0.00  0.00    +0.091 A 
ATOM     10  O   UNL     1       5.178  -3.021  25.886  0.00  0.00    -0.451 OA
ATOM     11  C   UNL     1       4.922  -5.655  23.356  0.00  0.00    +0.135 A 
ATOM     12  C   UNL     1       5.622  -1.877  25.193  0.00  0.00    +0.181 A 
BRANCH  12  13
ATOM     13  C   UNL     1       5.741  -0.769  26.218  0.00  0.00    +0.025 A 
ATOM     14  C   UNL     1       4.541  -0.079  26.581  0.00  0.00    +0.015 A 
ATOM     15  C   UNL     1       4.481   0.896  27.586  0.00  0.00    +0.050 A 
ATOM     16  C   UNL     1       5.626   1.204  28.277  0.00  0.00    +0.158 A 
ATOM     17  C   UNL     1       6.823   0.560  27.958  0.00  0.00    +0.159 A 
ATOM     18  C   UNL     1       6.894  -0.413  26.933  0.00  0.00    +0.060 A 
BRANCH  16  19
ATOM     19  O   UNL     1       5.567   2.128  29.282  0.00  0.00    -0.503 OA
ATOM     20  H   UNL     1       5.209   2.937  28.866  0.00  0.00    +0.292 HD
ENDBRANCH  16  19
BRANCH  17  21
ATOM     21  O   UNL     1       7.911   0.902  28.706  0.00  0.00    -0.503 OA
ATOM     22  H   UNL     1       8.705   0.822  28.160  0.00  0.00    +0.292 HD
ENDBRANCH  17  21
ENDBRANCH  12  13
BRANCH   8  23
ATOM     23  O   UNL     1       4.297  -7.672  26.319  0.00  0.00    -0.507 OA
ATOM     24  H   UNL     1       4.530  -8.470  25.815  0.00  0.00    +0.292 HD
ENDBRANCH   8  23
BRANCH  11  25
ATOM     25  O   UNL     1       5.019  -5.869  22.012  0.00  0.00    -0.506 OA
ATOM     26  H   UNL     1       5.561  -5.175  21.603  0.00  0.00    +0.292 HD
ENDBRANCH  11  25
ENDBRANCH   1   2
BRANCH   1  30
ATOM     27  C   UNL     1      10.708  -1.854  23.101  0.00  0.00    +0.041 C 
ATOM     28  C   UNL     1       9.842  -1.007  24.050  0.00  0.00    +0.150 C 
ATOM     29  O   UNL     1       8.438  -1.240  23.929  0.00  0.00    -0.334 OA
ATOM     30  C   UNL     1       7.751  -0.730  22.766  0.00  0.00    +0.340 C 
ATOM     31  C   UNL     1       8.215   0.736  22.345  0.00  0.00    +0.221 C 
ATOM     32  C   UNL     1       9.736   0.969  22.558  0.00  0.00    +0.180 C 
ATOM     33  C   UNL     1      10.155   0.483  23.950  0.00  0.00    +0.174 C 
BRANCH  32  34
ATOM     34  O   UNL     1      10.076   2.368  22.443  0.00  0.00    -0.386 OA
ATOM     35  H   UNL     1      10.684   2.410  21.677  0.00  0.00    +0.210 HD
ENDBRANCH  32  34
BRANCH  33  36
ATOM     36  O   UNL     1      11.540   0.714  24.229  0.00  0.00    -0.387 OA
ATOM     37  H   UNL     1      11.957   1.074  23.426  0.00  0.00    +0.210 HD
ENDBRANCH  33  36
BRANCH  31  38
ATOM     38  O   UNL     1       7.626   1.840  23.064  0.00  0.00    -0.337 OA
BRANCH  38  39
ATOM     39  C   UNL     1       6.722   2.654  22.312  0.00  0.00    +0.282 C 
ATOM     40  O   UNL     1       7.266   3.898  21.868  0.00  0.00    -0.346 OA
ATOM     41  C   UNL     1       7.707   4.770  22.911  0.00  0.00    +0.197 C 
ATOM     42  C   UNL     1       6.605   5.114  23.909  0.00  0.00    +0.171 C 
ATOM     43  C   UNL     1       5.824   3.869  24.346  0.00  0.00    +0.178 C 
ATOM     44  C   UNL     1       5.476   2.932  23.176  0.00  0.00    +0.201 C 
BRANCH  42  45
ATOM     45  O   UNL     1       5.719   6.108  23.373  0.00  0.00    -0.387 OA
ATOM     46  H   UNL     1       5.042   5.667  22.832  0.00  0.00    +0.210 HD
ENDBRANCH  42  45
BRANCH  43  47
ATOM     47  O   UNL     1       4.596   4.254  24.995  0.00  0.00    -0.386 OA
ATOM     48  H   UNL     1       4.005   3.476  24.995  0.00  0.00    +0.210 HD
ENDBRANCH  43  47
BRANCH  44  49
ATOM     49  O   UNL     1       4.915   1.706  23.674  0.00  0.00    -0.384 OA
ATOM     50  H   UNL     1       5.073   1.028  22.991  0.00  0.00    +0.210 HD
ENDBRANCH  44  49
ENDBRANCH  38  39
ENDBRANCH  31  38
ENDBRANCH   1  30
TORSDOF 14
ENDMDL
MODEL 5
REMARK VINA RESULT:      -6.7      2.423      6.225
REMARK  Name = 
REMARK  15 active torsions:
REMARK  status: ('A' for Active; 'I' for Inactive)
REMARK    1  A    between atoms: C_1  and  C_2
REMARK    2  A    between atoms: C_3  and  O_41
REMARK    3  A    between atoms: C_4  and  O_40
REMARK    4  A    between atoms: C_5  and  O_30
REMARK    5  A    between atoms: C_6  and  O_8
REMARK    6  A    between atoms: O_8  and  C_9
REMARK    7  A    between atoms: C_10  and  C_22
REMARK    8  A    between atoms: C_14  and  O_21
REMARK    9  A    between atoms: C_16  and  O_20
REMARK   10  A    between atoms: C_24  and  O_29
REMARK   11  A    between atoms: C_25  and  O_28
REMARK   12  A    between atoms: O_30  and  C_31
REMARK   13  A    between atoms: C_32  and  O_39
REMARK   14  A    between atoms: C_33  and  O_38
REMARK   15  A    between atoms: C_34  and  O_37
REMARK                            x       y       z     vdW  Elec       q    Type
REMARK                         _______ _______ _______ _____ _____    ______ ____
ROOT
ATOM      1  O   UNL     1       4.227  -1.707  25.623  0.00  0.00    -0.453 OA
ENDROOT
BRANCH   1   2
ATOM      2  C   UNL     1       5.103  -0.929  26.383  0.00  0.00    +0.214 A 
ATOM      3  C   UNL     1       4.632   0.441  26.824  0.00  0.00    +0.238 A 
ATOM      4  O   UNL     1       3.600   0.918  26.365  0.00  0.00    -0.283 OA
ATOM      5  C   UNL     1       5.447   1.194  27.789  0.00  0.00    +0.109 A 
ATOM      6  C   UNL     1       6.717   0.716  28.042  0.00  0.00    +0.147 A 
ATOM      7  C   UNL     1       7.585   1.375  28.924  0.00  0.00    +0.092 A 
ATOM      8  C   UNL     1       7.150   2.512  29.584  0.00  0.00    +0.124 A 
ATOM      9  C   UNL     1       5.875   3.014  29.347  0.00  0.00    +0.091 A 
ATOM     10  O   UNL     1       7.216  -0.395  27.432  0.00  0.00    -0.451 OA
ATOM     11  C   UNL     1       5.028   2.360  28.445  0.00  0.00    +0.135 A 
ATOM     12  C   UNL     1       6.415  -1.237  26.634  0.00  0.00    +0.181 A 
BRANCH  12  13
ATOM     13  C   UNL     1       7.296  -2.390  26.203  0.00  0.00    +0.025 A 
ATOM     14  C   UNL     1       8.376  -2.094  25.312  0.00  0.00    +0.015 A 
ATOM     15  C   UNL     1       9.331  -3.038  24.910  0.00  0.00    +0.050 A 
ATOM     16  C   UNL     1       9.243  -4.317  25.401  0.00  0.00    +0.158 A 
ATOM     17  C   UNL     1       8.205  -4.656  26.271  0.00  0.00    +0.159 A 
ATOM     18  C   UNL     1       7.228  -3.712  26.667  0.00  0.00    +0.060 A 
BRANCH  16  19
ATOM     19  O   UNL     1      10.191  -5.233  25.041  0.00  0.00    -0.503 OA
ATOM     20  H   UNL     1       9.785  -5.752  24.319  0.00  0.00    +0.292 HD
ENDBRANCH  16  19
BRANCH  17  21
ATOM     21  O   UNL     1       8.200  -5.939  26.735  0.00  0.00    -0.503 OA
ATOM     22  H   UNL     1       7.842  -6.519  26.050  0.00  0.00    +0.292 HD
ENDBRANCH  17  21
ENDBRANCH  12  13
BRANCH   8  23
ATOM     23  O   UNL     1       7.926   3.178  30.485  0.00  0.00    -0.507 OA
ATOM     24  H   UNL     1       8.021   4.104  30.206  0.00  0.00    +0.292 HD
ENDBRANCH   8  23
BRANCH  11  25
ATOM     25  O   UNL     1       3.779   2.871  28.244  0.00  0.00    -0.506 OA
ATOM     26  H   UNL     1       3.138   2.151  28.126  0.00  0.00    +0.292 HD
ENDBRANCH  11  25
ENDBRANCH   1   2
BRANCH   1  30
ATOM     27  C   UNL     1       2.302  -4.049  28.964  0.00  0.00    +0.041 C 
ATOM     28  C   UNL     1       3.688  -4.150  28.304  0.00  0.00    +0.150 C 
ATOM     29  O   UNL     1       4.067  -2.996  27.553  0.00  0.00    -0.334 OA
ATOM     30  C   UNL     1       3.424  -2.757  26.283  0.00  0.00    +0.340 C 
ATOM     31  C   UNL     1       3.229  -4.077  25.410  0.00  0.00    +0.221 C 
ATOM     32  C   UNL     1       2.886  -5.323  26.273  0.00  0.00    +0.180 C 
ATOM     33  C   UNL     1       3.842  -5.417  27.467  0.00  0.00    +0.174 C 
BRANCH  32  34
ATOM     34  O   UNL     1       2.995  -6.542  25.505  0.00  0.00    -0.386 OA
ATOM     35  H   UNL     1       3.336  -7.202  26.142  0.00  0.00    +0.210 HD
ENDBRANCH  32  34
BRANCH  33  36
ATOM     36  O   UNL     1       3.611  -6.573  28.278  0.00  0.00    -0.387 OA
ATOM     37  H   UNL     1       4.257  -6.570  29.006  0.00  0.00    +0.210 HD
ENDBRANCH  33  36
BRANCH  31  38
ATOM     38  O   UNL     1       4.367  -4.529  24.645  0.00  0.00    -0.337 OA
BRANCH  38  39
ATOM     39  C   UNL     1       4.203  -4.511  23.224  0.00  0.00    +0.282 C 
ATOM     40  O   UNL     1       4.211  -5.799  22.606  0.00  0.00    -0.346 OA
ATOM     41  C   UNL     1       5.413  -6.549  22.790  0.00  0.00    +0.197 C 
ATOM     42  C   UNL     1       6.656  -5.821  22.285  0.00  0.00    +0.171 C 
ATOM     43  C   UNL     1       6.686  -4.360  22.749  0.00  0.00    +0.178 C 
ATOM     44  C   UNL     1       5.326  -3.653  22.612  0.00  0.00    +0.201 C 
BRANCH  42  45
ATOM     45  O   UNL     1       6.755  -5.904  20.857  0.00  0.00    -0.387 OA
ATOM     46  H   UNL     1       6.417  -5.078  20.469  0.00  0.00    +0.210 HD
ENDBRANCH  42  45
BRANCH  43  47
ATOM     47  O   UNL     1       7.660  -3.616  21.987  0.00  0.00    -0.386 OA
ATOM     48  H   UNL     1       8.535  -4.018  22.155  0.00  0.00    +0.210 HD
ENDBRANCH  43  47
BRANCH  44  49
ATOM     49  O   UNL     1       5.377  -2.357  23.232  0.00  0.00    -0.384 OA
ATOM     50  H   UNL     1       4.465  -2.139  23.498  0.00  0.00    +0.210 HD
ENDBRANCH  44  49
ENDBRANCH  38  39
ENDBRANCH  31  38
ENDBRANCH   1  30
TORSDOF 14
ENDMDL
MODEL 6
REMARK VINA RESULT:      -6.4      2.288      8.709
REMARK  Name = 
REMARK  15 active torsions:
REMARK  status: ('A' for Active; 'I' for Inactive)
REMARK    1  A    between atoms: C_1  and  C_2
REMARK    2  A    between atoms: C_3  and  O_41
REMARK    3  A    between atoms: C_4  and  O_40
REMARK    4  A    between atoms: C_5  and  O_30
REMARK    5  A    between atoms: C_6  and  O_8
REMARK    6  A    between atoms: O_8  and  C_9
REMARK    7  A    between atoms: C_10  and  C_22
REMARK    8  A    between atoms: C_14  and  O_21
REMARK    9  A    between atoms: C_16  and  O_20
REMARK   10  A    between atoms: C_24  and  O_29
REMARK   11  A    between atoms: C_25  and  O_28
REMARK   12  A    between atoms: O_30  and  C_31
REMARK   13  A    between atoms: C_32  and  O_39
REMARK   14  A    between atoms: C_33  and  O_38
REMARK   15  A    between atoms: C_34  and  O_37
REMARK                            x       y       z     vdW  Elec       q    Type
REMARK                         _______ _______ _______ _____ _____    ______ ____
ROOT
ATOM      1  O   UNL     1       4.925  -0.800  25.519  0.00  0.00    -0.453 OA
ENDROOT
BRANCH   1   2
ATOM      2  C   UNL     1       4.849  -2.167  25.241  0.00  0.00    +0.214 A 
ATOM      3  C   UNL     1       3.722  -2.956  25.874  0.00  0.00    +0.238 A 
ATOM      4  O   UNL     1       3.027  -2.450  26.747  0.00  0.00    -0.283 OA
ATOM      5  C   UNL     1       3.498  -4.343  25.441  0.00  0.00    +0.109 A 
ATOM      6  C   UNL     1       4.484  -4.924  24.668  0.00  0.00    +0.147 A 
ATOM      7  C   UNL     1       4.381  -6.251  24.226  0.00  0.00    +0.092 A 
ATOM      8  C   UNL     1       3.252  -6.987  24.541  0.00  0.00    +0.124 A 
ATOM      9  C   UNL     1       2.245  -6.426  25.319  0.00  0.00    +0.091 A 
ATOM     10  O   UNL     1       5.622  -4.264  24.317  0.00  0.00    -0.451 OA
ATOM     11  C   UNL     1       2.372  -5.108  25.775  0.00  0.00    +0.135 A 
ATOM     12  C   UNL     1       5.800  -2.888  24.566  0.00  0.00    +0.181 A 
BRANCH  12  13
ATOM     13  C   UNL     1       7.138  -2.509  23.969  0.00  0.00    +0.025 A 
ATOM     14  C   UNL     1       7.321  -2.741  22.568  0.00  0.00    +0.015 A 
ATOM     15  C   UNL     1       8.465  -2.349  21.860  0.00  0.00    +0.050 A 
ATOM     16  C   UNL     1       9.466  -1.692  22.533  0.00  0.00    +0.158 A 
ATOM     17  C   UNL     1       9.335  -1.445  23.901  0.00  0.00    +0.159 A 
ATOM     18  C   UNL     1       8.190  -1.854  24.625  0.00  0.00    +0.060 A 
BRANCH  16  19
ATOM     19  O   UNL     1      10.568  -1.275  21.841  0.00  0.00    -0.503 OA
ATOM     20  H   UNL     1      11.050  -2.094  21.610  0.00  0.00    +0.292 HD
ENDBRANCH  16  19
BRANCH  17  21
ATOM     21  O   UNL     1      10.360  -0.767  24.492  0.00  0.00    -0.503 OA
ATOM     22  H   UNL     1       9.998  -0.023  24.991  0.00  0.00    +0.292 HD
ENDBRANCH  17  21
ENDBRANCH  12  13
BRANCH   8  23
ATOM     23  O   UNL     1       3.068  -8.267  24.110  0.00  0.00    -0.507 OA
ATOM     24  H   UNL     1       3.004  -8.859  24.878  0.00  0.00    +0.292 HD
ENDBRANCH   8  23
BRANCH  11  25
ATOM     25  O   UNL     1       1.361  -4.584  26.525  0.00  0.00    -0.506 OA
ATOM     26  H   UNL     1       0.517  -4.663  26.050  0.00  0.00    +0.292 HD
ENDBRANCH  11  25
ENDBRANCH   1   2
BRANCH   1  30
ATOM     27  C   UNL     1       4.633   0.104  29.930  0.00  0.00    +0.041 C 
ATOM     28  C   UNL     1       4.291   0.940  28.684  0.00  0.00    +0.150 C 
ATOM     29  O   UNL     1       4.154   0.178  27.484  0.00  0.00    -0.334 OA
ATOM     30  C   UNL     1       5.344  -0.352  26.863  0.00  0.00    +0.340 C 
ATOM     31  C   UNL     1       6.569   0.670  26.859  0.00  0.00    +0.221 C 
ATOM     32  C   UNL     1       6.640   1.526  28.153  0.00  0.00    +0.180 C 
ATOM     33  C   UNL     1       5.258   2.103  28.481  0.00  0.00    +0.174 C 
BRANCH  32  34
ATOM     34  O   UNL     1       7.568   2.624  28.008  0.00  0.00    -0.386 OA
ATOM     35  H   UNL     1       6.998   3.414  27.914  0.00  0.00    +0.210 HD
ENDBRANCH  32  34
BRANCH  33  36
ATOM     36  O   UNL     1       5.264   2.944  29.639  0.00  0.00    -0.387 OA
ATOM     37  H   UNL     1       6.190   3.118  29.886  0.00  0.00    +0.210 HD
ENDBRANCH  33  36
BRANCH  31  38
ATOM     38  O   UNL     1       6.582   1.670  25.820  0.00  0.00    -0.337 OA
BRANCH  38  39
ATOM     39  C   UNL     1       7.676   1.591  24.901  0.00  0.00    +0.282 C 
ATOM     40  O   UNL     1       8.693   2.574  25.097  0.00  0.00    -0.346 OA
ATOM     41  C   UNL     1       8.256   3.929  24.975  0.00  0.00    +0.197 C 
ATOM     42  C   UNL     1       7.621   4.232  23.621  0.00  0.00    +0.171 C 
ATOM     43  C   UNL     1       6.614   3.151  23.210  0.00  0.00    +0.178 C 
ATOM     44  C   UNL     1       7.123   1.722  23.469  0.00  0.00    +0.201 C 
BRANCH  42  45
ATOM     45  O   UNL     1       8.624   4.404  22.610  0.00  0.00    -0.387 OA
ATOM     46  H   UNL     1       8.466   3.763  21.896  0.00  0.00    +0.210 HD
ENDBRANCH  42  45
BRANCH  43  47
ATOM     47  O   UNL     1       6.300   3.271  21.807  0.00  0.00    -0.386 OA
ATOM     48  H   UNL     1       5.455   3.757  21.735  0.00  0.00    +0.210 HD
ENDBRANCH  43  47
BRANCH  44  49
ATOM     49  O   UNL     1       6.068   0.773  23.238  0.00  0.00    -0.384 OA
ATOM     50  H   UNL     1       6.184   0.440  22.329  0.00  0.00    +0.210 HD
ENDBRANCH  44  49
ENDBRANCH  38  39
ENDBRANCH  31  38
ENDBRANCH   1  30
TORSDOF 14
ENDMDL
MODEL 7
REMARK VINA RESULT:      -6.3      1.910      5.300
REMARK  Name = 
REMARK  15 active torsions:
REMARK  status: ('A' for Active; 'I' for Inactive)
REMARK    1  A    between atoms: C_1  and  C_2
REMARK    2  A    between atoms: C_3  and  O_41
REMARK    3  A    between atoms: C_4  and  O_40
REMARK    4  A    between atoms: C_5  and  O_30
REMARK    5  A    between atoms: C_6  and  O_8
REMARK    6  A    between atoms: O_8  and  C_9
REMARK    7  A    between atoms: C_10  and  C_22
REMARK    8  A    between atoms: C_14  and  O_21
REMARK    9  A    between atoms: C_16  and  O_20
REMARK   10  A    between atoms: C_24  and  O_29
REMARK   11  A    between atoms: C_25  and  O_28
REMARK   12  A    between atoms: O_30  and  C_31
REMARK   13  A    between atoms: C_32  and  O_39
REMARK   14  A    between atoms: C_33  and  O_38
REMARK   15  A    between atoms: C_34  and  O_37
REMARK                            x       y       z     vdW  Elec       q    Type
REMARK                         _______ _______ _______ _____ _____    ______ ____
ROOT
ATOM      1  O   UNL     1       6.407  -2.085  26.022  0.00  0.00    -0.453 OA
ENDROOT
BRANCH   1   2
ATOM      2  C   UNL     1       7.140  -1.361  25.076  0.00  0.00    +0.214 A 
ATOM      3  C   UNL     1       7.339   0.120  25.318  0.00  0.00    +0.238 A 
ATOM      4  O   UNL     1       6.715   0.692  26.205  0.00  0.00    -0.283 OA
ATOM      5  C   UNL     1       8.269   0.860  24.453  0.00  0.00    +0.109 A 
ATOM      6  C   UNL     1       8.713   0.215  23.316  0.00  0.00    +0.147 A 
ATOM      7  C   UNL     1       9.581   0.841  22.410  0.00  0.00    +0.092 A 
ATOM      8  C   UNL     1      10.031   2.124  22.675  0.00  0.00    +0.124 A 
ATOM      9  C   UNL     1       9.599   2.795  23.814  0.00  0.00    +0.091 A 
ATOM     10  O   UNL     1       8.315  -1.045  22.986  0.00  0.00    -0.451 OA
ATOM     11  C   UNL     1       8.713   2.167  24.697  0.00  0.00    +0.135 A 
ATOM     12  C   UNL     1       7.563  -1.849  23.867  0.00  0.00    +0.181 A 
BRANCH  12  13
ATOM     13  C   UNL     1       7.386  -3.189  23.185  0.00  0.00    +0.025 A 
ATOM     14  C   UNL     1       7.947  -4.335  23.834  0.00  0.00    +0.015 A 
ATOM     15  C   UNL     1       7.776  -5.648  23.375  0.00  0.00    +0.050 A 
ATOM     16  C   UNL     1       7.018  -5.861  22.250  0.00  0.00    +0.158 A 
ATOM     17  C   UNL     1       6.452  -4.775  21.580  0.00  0.00    +0.159 A 
ATOM     18  C   UNL     1       6.636  -3.445  22.029  0.00  0.00    +0.060 A 
BRANCH  16  19
ATOM     19  O   UNL     1       6.818  -7.142  21.818  0.00  0.00    -0.503 OA
ATOM     20  H   UNL     1       7.172  -7.710  22.530  0.00  0.00    +0.292 HD
ENDBRANCH  16  19
BRANCH  17  21
ATOM     21  O   UNL     1       5.693  -5.070  20.486  0.00  0.00    -0.503 OA
ATOM     22  H   UNL     1       6.165  -5.715  19.941  0.00  0.00    +0.292 HD
ENDBRANCH  17  21
ENDBRANCH  12  13
BRANCH   8  23
ATOM     23  O   UNL     1      10.907   2.776  21.860  0.00  0.00    -0.507 OA
ATOM     24  H   UNL     1      11.354   3.477  22.363  0.00  0.00    +0.292 HD
ENDBRANCH   8  23
BRANCH  11  25
ATOM     25  O   UNL     1       8.317   2.849  25.810  0.00  0.00    -0.506 OA
ATOM     26  H   UNL     1       9.084   3.034  26.378  0.00  0.00    +0.292 HD
ENDBRANCH  11  25
ENDBRANCH   1   2
BRANCH   1  30
ATOM     27  C   UNL     1       3.164   0.132  28.240  0.00  0.00    +0.041 C 
ATOM     28  C   UNL     1       3.853  -1.218  28.506  0.00  0.00    +0.150 C 
ATOM     29  O   UNL     1       5.087  -1.395  27.809  0.00  0.00    -0.334 OA
ATOM     30  C   UNL     1       5.047  -1.639  26.386  0.00  0.00    +0.340 C 
ATOM     31  C   UNL     1       3.889  -2.642  25.944  0.00  0.00    +0.221 C 
ATOM     32  C   UNL     1       2.589  -2.462  26.775  0.00  0.00    +0.180 C 
ATOM     33  C   UNL     1       2.921  -2.403  28.270  0.00  0.00    +0.174 C 
BRANCH  32  34
ATOM     34  O   UNL     1       1.668  -3.553  26.556  0.00  0.00    -0.386 OA
ATOM     35  H   UNL     1       2.155  -4.347  26.857  0.00  0.00    +0.210 HD
ENDBRANCH  32  34
BRANCH  33  36
ATOM     36  O   UNL     1       1.758  -2.286  29.096  0.00  0.00    -0.387 OA
ATOM     37  H   UNL     1       1.960  -1.670  29.823  0.00  0.00    +0.210 HD
ENDBRANCH  33  36
BRANCH  31  38
ATOM     38  O   UNL     1       4.158  -4.053  26.086  0.00  0.00    -0.337 OA
BRANCH  38  39
ATOM     39  C   UNL     1       4.632  -4.713  24.908  0.00  0.00    +0.282 C 
ATOM     40  O   UNL     1       3.832  -4.504  23.744  0.00  0.00    -0.346 OA
ATOM     41  C   UNL     1       2.479  -4.953  23.852  0.00  0.00    +0.197 C 
ATOM     42  C   UNL     1       2.367  -6.437  24.191  0.00  0.00    +0.171 C 
ATOM     43  C   UNL     1       3.311  -6.832  25.333  0.00  0.00    +0.178 C 
ATOM     44  C   UNL     1       4.718  -6.224  25.193  0.00  0.00    +0.201 C 
BRANCH  42  45
ATOM     45  O   UNL     1       2.605  -7.247  23.031  0.00  0.00    -0.387 OA
ATOM     46  H   UNL     1       2.082  -6.897  22.289  0.00  0.00    +0.210 HD
ENDBRANCH  42  45
BRANCH  43  47
ATOM     47  O   UNL     1       3.443  -8.267  25.395  0.00  0.00    -0.386 OA
ATOM     48  H   UNL     1       2.847  -8.588  26.100  0.00  0.00    +0.210 HD
ENDBRANCH  43  47
BRANCH  44  49
ATOM     49  O   UNL     1       5.486  -6.479  26.381  0.00  0.00    -0.384 OA
ATOM     50  H   UNL     1       6.425  -6.464  26.116  0.00  0.00    +0.210 HD
ENDBRANCH  44  49
ENDBRANCH  38  39
ENDBRANCH  31  38
ENDBRANCH   1  30
TORSDOF 14
ENDMDL
MODEL 8
REMARK VINA RESULT:      -6.3      3.330      8.679
REMARK  Name = 
REMARK  15 active torsions:
REMARK  status: ('A' for Active; 'I' for Inactive)
REMARK    1  A    between atoms: C_1  and  C_2
REMARK    2  A    between atoms: C_3  and  O_41
REMARK    3  A    between atoms: C_4  and  O_40
REMARK    4  A    between atoms: C_5  and  O_30
REMARK    5  A    between atoms: C_6  and  O_8
REMARK    6  A    between atoms: O_8  and  C_9
REMARK    7  A    between atoms: C_10  and  C_22
REMARK    8  A    between atoms: C_14  and  O_21
REMARK    9  A    between atoms: C_16  and  O_20
REMARK   10  A    between atoms: C_24  and  O_29
REMARK   11  A    between atoms: C_25  and  O_28
REMARK   12  A    between atoms: O_30  and  C_31
REMARK   13  A    between atoms: C_32  and  O_39
REMARK   14  A    between atoms: C_33  and  O_38
REMARK   15  A    between atoms: C_34  and  O_37
REMARK                            x       y       z     vdW  Elec       q    Type
REMARK                         _______ _______ _______ _____ _____    ______ ____
ROOT
ATOM      1  O   UNL     1       5.184   0.331  25.439  0.00  0.00    -0.453 OA
ENDROOT
BRANCH   1   2
ATOM      2  C   UNL     1       6.215  -0.610  25.377  0.00  0.00    +0.214 A 
ATOM      3  C   UNL     1       6.004  -1.937  26.074  0.00  0.00    +0.238 A 
ATOM      4  O   UNL     1       5.048  -2.097  26.824  0.00  0.00    -0.283 OA
ATOM      5  C   UNL     1       6.980  -3.015  25.856  0.00  0.00    +0.109 A 
ATOM      6  C   UNL     1       8.162  -2.671  25.230  0.00  0.00    +0.147 A 
ATOM      7  C   UNL     1       9.170  -3.617  24.999  0.00  0.00    +0.092 A 
ATOM      8  C   UNL     1       8.966  -4.934  25.375  0.00  0.00    +0.124 A 
ATOM      9  C   UNL     1       7.785  -5.307  26.007  0.00  0.00    +0.091 A 
ATOM     10  O   UNL     1       8.435  -1.398  24.832  0.00  0.00    -0.451 OA
ATOM     11  C   UNL     1       6.797  -4.346  26.254  0.00  0.00    +0.135 A 
ATOM     12  C   UNL     1       7.466  -0.375  24.868  0.00  0.00    +0.181 A 
BRANCH  12  13
ATOM     13  C   UNL     1       8.117   0.859  24.281  0.00  0.00    +0.025 A 
ATOM     14  C   UNL     1       8.217   2.012  25.123  0.00  0.00    +0.015 A 
ATOM     15  C   UNL     1       8.882   3.189  24.751  0.00  0.00    +0.050 A 
ATOM     16  C   UNL     1       9.487   3.245  23.520  0.00  0.00    +0.158 A 
ATOM     17  C   UNL     1       9.414   2.147  22.661  0.00  0.00    +0.159 A 
ATOM     18  C   UNL     1       8.729   0.962  23.023  0.00  0.00    +0.060 A 
BRANCH  16  19
ATOM     19  O   UNL     1      10.168   4.375  23.165  0.00  0.00    -0.503 OA
ATOM     20  H   UNL     1      10.443   4.228  22.239  0.00  0.00    +0.292 HD
ENDBRANCH  16  19
BRANCH  17  21
ATOM     21  O   UNL     1      10.060   2.271  21.466  0.00  0.00    -0.503 OA
ATOM     22  H   UNL     1       9.416   2.179  20.750  0.00  0.00    +0.292 HD
ENDBRANCH  17  21
ENDBRANCH  12  13
BRANCH   8  23
ATOM     23  O   UNL     1       9.886  -5.913  25.143  0.00  0.00    -0.507 OA
ATOM     24  H   UNL     1      10.673  -5.751  25.690  0.00  0.00    +0.292 HD
ENDBRANCH   8  23
BRANCH  11  25
ATOM     25  O   UNL     1       5.645  -4.747  26.866  0.00  0.00    -0.506 OA
ATOM     26  H   UNL     1       5.302  -4.034  27.430  0.00  0.00    +0.292 HD
ENDBRANCH  11  25
ENDBRANCH   1   2
BRANCH   1  30
ATOM     27  C   UNL     1       3.721   1.090  29.639  0.00  0.00    +0.041 C 
ATOM     28  C   UNL     1       3.040   1.252  28.268  0.00  0.00    +0.150 C 
ATOM     29  O   UNL     1       3.685   0.550  27.205  0.00  0.00    -0.334 OA
ATOM     30  C   UNL     1       4.937   1.061  26.700  0.00  0.00    +0.340 C 
ATOM     31  C   UNL     1       4.964   2.648  26.553  0.00  0.00    +0.221 C 
ATOM     32  C   UNL     1       4.193   3.370  27.692  0.00  0.00    +0.180 C 
ATOM     33  C   UNL     1       2.821   2.716  27.897  0.00  0.00    +0.174 C 
BRANCH  32  34
ATOM     34  O   UNL     1       3.990   4.767  27.388  0.00  0.00    -0.386 OA
ATOM     35  H   UNL     1       3.092   4.804  26.999  0.00  0.00    +0.210 HD
ENDBRANCH  32  34
BRANCH  33  36
ATOM     36  O   UNL     1       2.038   3.366  28.903  0.00  0.00    -0.387 OA
ATOM     37  H   UNL     1       1.898   4.291  28.632  0.00  0.00    +0.210 HD
ENDBRANCH  33  36
BRANCH  31  38
ATOM     38  O   UNL     1       4.363   3.205  25.366  0.00  0.00    -0.337 OA
BRANCH  38  39
ATOM     39  C   UNL     1       5.250   3.919  24.500  0.00  0.00    +0.282 C 
ATOM     40  O   UNL     1       5.135   5.341  24.566  0.00  0.00    -0.346 OA
ATOM     41  C   UNL     1       3.849   5.859  24.220  0.00  0.00    +0.197 C 
ATOM     42  C   UNL     1       3.399   5.456  22.819  0.00  0.00    +0.171 C 
ATOM     43  C   UNL     1       3.626   3.962  22.557  0.00  0.00    +0.178 C 
ATOM     44  C   UNL     1       4.995   3.462  23.051  0.00  0.00    +0.201 C 
BRANCH  42  45
ATOM     45  O   UNL     1       4.053   6.252  21.821  0.00  0.00    -0.387 OA
ATOM     46  H   UNL     1       3.466   6.985  21.567  0.00  0.00    +0.210 HD
ENDBRANCH  42  45
BRANCH  43  47
ATOM     47  O   UNL     1       3.527   3.684  21.145  0.00  0.00    -0.386 OA
ATOM     48  H   UNL     1       4.125   4.301  20.680  0.00  0.00    +0.210 HD
ENDBRANCH  43  47
BRANCH  44  49
ATOM     49  O   UNL     1       5.066   2.030  22.945  0.00  0.00    -0.384 OA
ATOM     50  H   UNL     1       5.802   1.831  22.337  0.00  0.00    +0.210 HD
ENDBRANCH  44  49
ENDBRANCH  38  39
ENDBRANCH  31  38
ENDBRANCH   1  30
TORSDOF 14
ENDMDL
MODEL 9
REMARK VINA RESULT:      -6.3      2.674      8.750
REMARK  Name = 
REMARK  15 active torsions:
REMARK  status: ('A' for Active; 'I' for Inactive)
REMARK    1  A    between atoms: C_1  and  C_2
REMARK    2  A    between atoms: C_3  and  O_41
REMARK    3  A    between atoms: C_4  and  O_40
REMARK    4  A    between atoms: C_5  and  O_30
REMARK    5  A    between atoms: C_6  and  O_8
REMARK    6  A    between atoms: O_8  and  C_9
REMARK    7  A    between atoms: C_10  and  C_22
REMARK    8  A    between atoms: C_14  and  O_21
REMARK    9  A    between atoms: C_16  and  O_20
REMARK   10  A    between atoms: C_24  and  O_29
REMARK   11  A    between atoms: C_25  and  O_28
REMARK   12  A    between atoms: O_30  and  C_31
REMARK   13  A    between atoms: C_32  and  O_39
REMARK   14  A    between atoms: C_33  and  O_38
REMARK   15  A    between atoms: C_34  and  O_37
REMARK                            x       y       z     vdW  Elec       q    Type
REMARK                         _______ _______ _______ _____ _____    ______ ____
ROOT
ATOM      1  O   UNL     1       5.883   0.016  24.512  0.00  0.00    -0.453 OA
ENDROOT
BRANCH   1   2
ATOM      2  C   UNL     1       5.549  -0.936  25.479  0.00  0.00    +0.214 A 
ATOM      3  C   UNL     1       5.218  -0.444  26.872  0.00  0.00    +0.238 A 
ATOM      4  O   UNL     1       5.429   0.723  27.182  0.00  0.00    -0.283 OA
ATOM      5  C   UNL     1       4.669  -1.396  27.849  0.00  0.00    +0.109 A 
ATOM      6  C   UNL     1       4.724  -2.735  27.515  0.00  0.00    +0.147 A 
ATOM      7  C   UNL     1       4.252  -3.727  28.387  0.00  0.00    +0.092 A 
ATOM      8  C   UNL     1       3.689  -3.356  29.596  0.00  0.00    +0.124 A 
ATOM      9  C   UNL     1       3.622  -2.015  29.956  0.00  0.00    +0.091 A 
ATOM     10  O   UNL     1       5.263  -3.176  26.345  0.00  0.00    -0.451 OA
ATOM     11  C   UNL     1       4.119  -1.037  29.086  0.00  0.00    +0.135 A 
ATOM     12  C   UNL     1       5.645  -2.294  25.314  0.00  0.00    +0.181 A 
BRANCH  12  13
ATOM     13  C   UNL     1       6.120  -3.153  24.162  0.00  0.00    +0.025 A 
ATOM     14  C   UNL     1       7.011  -4.230  24.470  0.00  0.00    +0.015 A 
ATOM     15  C   UNL     1       7.452  -5.167  23.526  0.00  0.00    +0.050 A 
ATOM     16  C   UNL     1       7.000  -5.065  22.234  0.00  0.00    +0.158 A 
ATOM     17  C   UNL     1       6.131  -4.030  21.882  0.00  0.00    +0.159 A 
ATOM     18  C   UNL     1       5.696  -3.071  22.828  0.00  0.00    +0.060 A 
BRANCH  16  19
ATOM     19  O   UNL     1       7.397  -5.997  21.316  0.00  0.00    -0.503 OA
ATOM     20  H   UNL     1       7.948  -5.506  20.676  0.00  0.00    +0.292 HD
ENDBRANCH  16  19
BRANCH  17  21
ATOM     21  O   UNL     1       5.707  -4.011  20.586  0.00  0.00    -0.503 OA
ATOM     22  H   UNL     1       6.338  -3.504  20.057  0.00  0.00    +0.292 HD
ENDBRANCH  17  21
ENDBRANCH  12  13
BRANCH   8  23
ATOM     23  O   UNL     1       3.174  -4.265  30.472  0.00  0.00    -0.507 OA
ATOM     24  H   UNL     1       3.869  -4.891  30.733  0.00  0.00    +0.292 HD
ENDBRANCH   8  23
BRANCH  11  25
ATOM     25  O   UNL     1       4.027   0.271  29.464  0.00  0.00    -0.506 OA
ATOM     26  H   UNL     1       4.026   0.845  28.681  0.00  0.00    +0.292 HD
ENDBRANCH  11  25
ENDBRANCH   1   2
BRANCH   1  30
ATOM     27  C   UNL     1      10.249  -1.007  24.007  0.00  0.00    +0.041 C 
ATOM     28  C   UNL     1       9.538   0.110  24.791  0.00  0.00    +0.150 C 
ATOM     29  O   UNL     1       8.149  -0.125  25.022  0.00  0.00    -0.334 OA
ATOM     30  C   UNL     1       7.234   0.003  23.913  0.00  0.00    +0.340 C 
ATOM     31  C   UNL     1       7.544   1.253  22.973  0.00  0.00    +0.221 C 
ATOM     32  C   UNL     1       9.066   1.515  22.805  0.00  0.00    +0.180 C 
ATOM     33  C   UNL     1       9.760   1.487  24.171  0.00  0.00    +0.174 C 
BRANCH  32  34
ATOM     34  O   UNL     1       9.315   2.800  22.194  0.00  0.00    -0.386 OA
ATOM     35  H   UNL     1       9.239   3.440  22.931  0.00  0.00    +0.210 HD
ENDBRANCH  32  34
BRANCH  33  36
ATOM     36  O   UNL     1      11.161   1.771  24.091  0.00  0.00    -0.387 OA
ATOM     37  H   UNL     1      11.305   2.397  23.359  0.00  0.00    +0.210 HD
ENDBRANCH  33  36
BRANCH  31  38
ATOM     38  O   UNL     1       7.051   2.537  23.409  0.00  0.00    -0.337 OA
BRANCH  38  39
ATOM     39  C   UNL     1       6.182   3.209  22.492  0.00  0.00    +0.282 C 
ATOM     40  O   UNL     1       6.700   4.432  21.966  0.00  0.00    -0.346 OA
ATOM     41  C   UNL     1       6.990   5.435  22.942  0.00  0.00    +0.197 C 
ATOM     42  C   UNL     1       5.778   5.811  23.790  0.00  0.00    +0.171 C 
ATOM     43  C   UNL     1       5.027   4.570  24.289  0.00  0.00    +0.178 C 
ATOM     44  C   UNL     1       4.846   3.495  23.202  0.00  0.00    +0.201 C 
BRANCH  42  45
ATOM     45  O   UNL     1       4.898   6.684  23.070  0.00  0.00    -0.387 OA
ATOM     46  H   UNL     1       4.597   6.232  22.262  0.00  0.00    +0.210 HD
ENDBRANCH  42  45
BRANCH  43  47
ATOM     47  O   UNL     1       3.721   4.943  24.777  0.00  0.00    -0.386 OA
ATOM     48  H   UNL     1       3.120   4.189  24.616  0.00  0.00    +0.210 HD
ENDBRANCH  43  47
BRANCH  44  49
ATOM     49  O   UNL     1       4.305   2.295  23.780  0.00  0.00    -0.384 OA
ATOM     50  H   UNL     1       3.613   1.979  23.170  0.00  0.00    +0.210 HD
ENDBRANCH  44  49
ENDBRANCH  38  39
ENDBRANCH  31  38
ENDBRANCH   1  30
TORSDOF 14
ENDMDL
