MODEL 1
REMARK VINA RESULT:      -7.3      0.000      0.000
REMARK  Name = 
REMARK  23 active torsions:
REMARK  status: ('A' for Active; 'I' for Inactive)
REMARK    1  A    between atoms: C_3  and  O_61
REMARK    2  A    between atoms: C_4  and  O_60
REMARK    3  A    between atoms: C_6  and  C_7
REMARK    4  A    between atoms: C_8  and  C_9
REMARK    5  A    between atoms: C_9  and  O_11
REMARK    6  A    between atoms: O_11  and  C_12
REMARK    7  A    between atoms: C_13  and  O_24
REMARK    8  A    between atoms: C_16  and  C_22
REMARK    9  A    between atoms: C_17  and  O_21
REMARK   10  A    between atoms: C_19  and  O_20
REMARK   11  A    between atoms: C_22  and  O_23
REMARK   12  A    between atoms: O_24  and  C_25
REMARK   13  A    between atoms: C_26  and  O_59
REMARK   14  A    between atoms: C_28  and  O_58
REMARK   15  A    between atoms: C_30  and  C_56
REMARK   16  A    between atoms: C_32  and  O_34
REMARK   17  A    between atoms: O_34  and  C_35
REMARK   18  A    between atoms: C_36  and  C_48
REMARK   19  A    between atoms: C_40  and  O_47
REMARK   20  A    between atoms: C_42  and  O_46
REMARK   21  A    between atoms: C_50  and  O_55
REMARK   22  A    between atoms: C_51  and  O_54
REMARK   23  A    between atoms: C_56  and  O_57
REMARK                            x       y       z     vdW  Elec       q    Type
REMARK                         _______ _______ _______ _____ _____    ______ ____
ROOT
ATOM      1  C   UNL     1       2.831  -2.782  26.588  0.00  0.00    +0.221 C 
ATOM      2  C   UNL     1       4.211  -2.255  27.099  0.00  0.00    +0.340 C 
ATOM      3  O   UNL     1       4.654  -3.060  28.219  0.00  0.00    -0.331 OA
ATOM      4  C   UNL     1       3.737  -3.007  29.351  0.00  0.00    +0.179 C 
ATOM      5  C   UNL     1       2.348  -3.512  28.927  0.00  0.00    +0.177 C 
ATOM      6  C   UNL     1       1.837  -2.684  27.748  0.00  0.00    +0.180 C 
ENDROOT
BRANCH   6   7
ATOM      7  O   UNL     1       0.511  -3.117  27.428  0.00  0.00    -0.386 OA
ATOM      8  H   UNL     1       0.495  -4.101  27.435  0.00  0.00    +0.210 HD
ENDBRANCH   6   7
BRANCH   5   9
ATOM      9  O   UNL     1       1.395  -3.448  29.990  0.00  0.00    -0.386 OA
ATOM     10  H   UNL     1       1.934  -3.559  30.807  0.00  0.00    +0.210 HD
ENDBRANCH   5   9
BRANCH   2  11
ATOM     11  O   UNL     1       5.158  -2.237  25.992  0.00  0.00    -0.453 OA
BRANCH  11  12
ATOM     12  C   UNL     1       5.998  -1.109  25.901  0.00  0.00    +0.214 A 
ATOM     13  C   UNL     1       5.429   0.294  25.830  0.00  0.00    +0.238 A 
ATOM     14  O   UNL     1       4.231   0.519  25.953  0.00  0.00    -0.283 OA
ATOM     15  C   UNL     1       6.332   1.412  25.542  0.00  0.00    +0.109 A 
ATOM     16  C   UNL     1       7.687   1.138  25.498  0.00  0.00    +0.147 A 
ATOM     17  C   UNL     1       8.608   2.163  25.267  0.00  0.00    +0.092 A 
ATOM     18  C   UNL     1       8.149   3.462  25.081  0.00  0.00    +0.124 A 
ATOM     19  C   UNL     1       6.792   3.752  25.101  0.00  0.00    +0.091 A 
ATOM     20  O   UNL     1       8.196  -0.112  25.683  0.00  0.00    -0.451 OA
ATOM     21  C   UNL     1       5.880   2.723  25.321  0.00  0.00    +0.135 A 
ATOM     22  C   UNL     1       7.349  -1.212  25.816  0.00  0.00    +0.181 A 
BRANCH  22  23
ATOM     23  C   UNL     1       8.171  -2.463  25.853  0.00  0.00    +0.025 A 
ATOM     24  C   UNL     1       9.231  -2.710  24.968  0.00  0.00    +0.015 A 
ATOM     25  C   UNL     1       9.825  -3.980  24.891  0.00  0.00    +0.050 A 
ATOM     26  C   UNL     1       9.355  -5.011  25.692  0.00  0.00    +0.158 A 
ATOM     27  C   UNL     1       8.347  -4.779  26.617  0.00  0.00    +0.159 A 
ATOM     28  C   UNL     1       7.768  -3.516  26.713  0.00  0.00    +0.060 A 
BRANCH  27  29
ATOM     29  O   UNL     1       7.929  -5.832  27.383  0.00  0.00    -0.503 OA
ATOM     30  H   UNL     1       8.591  -6.542  27.315  0.00  0.00    +0.292 HD
ENDBRANCH  27  29
BRANCH  26  31
ATOM     31  O   UNL     1       9.868  -6.267  25.548  0.00  0.00    -0.503 OA
ATOM     32  H   UNL     1       9.410  -6.634  24.764  0.00  0.00    +0.292 HD
ENDBRANCH  26  31
ENDBRANCH  22  23
BRANCH  21  33
ATOM     33  O   UNL     1       4.546   3.016  25.299  0.00  0.00    -0.506 OA
ATOM     34  H   UNL     1       4.285   3.353  24.428  0.00  0.00    +0.292 HD
ENDBRANCH  21  33
BRANCH  18  35
ATOM     35  O   UNL     1       9.007   4.500  24.867  0.00  0.00    -0.507 OA
ATOM     36  H   UNL     1       9.668   4.519  25.578  0.00  0.00    +0.292 HD
ENDBRANCH  18  35
ENDBRANCH  11  12
ENDBRANCH   2  11
BRANCH   1  37
ATOM     37  O   UNL     1       3.038  -4.114  26.041  0.00  0.00    -0.336 OA
BRANCH  37  43
ATOM     38  C   UNL     1       4.178  -4.948  23.997  0.00  0.00    +0.263 C 
ATOM     39  C   UNL     1       4.126  -6.466  24.187  0.00  0.00    +0.191 C 
ATOM     40  C   UNL     1       2.765  -7.027  23.763  0.00  0.00    +0.178 C 
ATOM     41  C   UNL     1       1.606  -6.338  24.502  0.00  0.00    +0.178 C 
ATOM     42  O   UNL     1       1.680  -4.921  24.332  0.00  0.00    -0.340 OA
ATOM     43  C   UNL     1       2.928  -4.266  24.623  0.00  0.00    +0.295 C 
BRANCH  40  44
ATOM     44  O   UNL     1       2.747  -8.451  23.852  0.00  0.00    -0.386 OA
ATOM     45  H   UNL     1       1.807  -8.725  23.928  0.00  0.00    +0.210 HD
ENDBRANCH  40  44
BRANCH  39  46
ATOM     46  O   UNL     1       4.456  -6.798  25.541  0.00  0.00    -0.385 OA
ATOM     47  H   UNL     1       5.237  -7.381  25.546  0.00  0.00    +0.210 HD
ENDBRANCH  39  46
BRANCH  41  48
ATOM     48  C   UNL     1       1.342  -6.790  25.954  0.00  0.00    +0.190 C 
BRANCH  48  49
ATOM     49  O   UNL     1       0.564  -5.806  26.644  0.00  0.00    -0.392 OA
ATOM     50  H   UNL     1       0.508  -5.024  26.061  0.00  0.00    +0.210 HD
ENDBRANCH  48  49
ENDBRANCH  41  48
BRANCH  38  51
ATOM     51  O   UNL     1       4.342  -4.647  22.587  0.00  0.00    -0.450 OA
BRANCH  51  52
ATOM     52  C   UNL     1       5.634  -4.694  22.126  0.00  0.00    +0.332 C 
ATOM     53  O   UNL     1       6.253  -5.712  21.858  0.00  0.00    -0.246 OA
BRANCH  52  55
ATOM     54  C   UNL     1       7.323  -2.897  22.319  0.00  0.00    +0.015 C 
ATOM     55  C   UNL     1       6.105  -3.308  21.920  0.00  0.00    +0.092 C 
BRANCH  54  57
ATOM     56  C   UNL     1       9.257  -1.328  21.819  0.00  0.00    +0.012 A 
ATOM     57  C   UNL     1       7.894  -1.547  22.095  0.00  0.00    -0.021 A 
ATOM     58  C   UNL     1       7.056  -0.421  22.188  0.00  0.00    +0.057 A 
ATOM     59  C   UNL     1       7.582   0.862  22.015  0.00  0.00    +0.159 A 
ATOM     60  C   UNL     1       8.932   1.056  21.749  0.00  0.00    +0.158 A 
ATOM     61  C   UNL     1       9.777  -0.036  21.645  0.00  0.00    +0.050 A 
BRANCH  60  62
ATOM     62  O   UNL     1       9.379   2.338  21.602  0.00  0.00    -0.503 OA
ATOM     63  H   UNL     1       8.615   2.937  21.682  0.00  0.00    +0.292 HD
ENDBRANCH  60  62
BRANCH  59  64
ATOM     64  O   UNL     1       6.752   1.946  22.120  0.00  0.00    -0.503 OA
ATOM     65  H   UNL     1       5.891   1.620  21.785  0.00  0.00    +0.292 HD
ENDBRANCH  59  64
ENDBRANCH  54  57
ENDBRANCH  52  55
ENDBRANCH  51  52
ENDBRANCH  38  51
ENDBRANCH  37  43
ENDBRANCH   1  37
BRANCH   4  66
ATOM     66  C   UNL     1       3.649  -1.625  30.056  0.00  0.00    +0.190 C 
BRANCH  66  67
ATOM     67  O   UNL     1       4.540  -0.676  29.475  0.00  0.00    -0.392 OA
ATOM     68  H   UNL     1       5.115  -1.161  28.860  0.00  0.00    +0.210 HD
ENDBRANCH  66  67
ENDBRANCH   4  66
TORSDOF 23
ENDMDL
MODEL 2
REMARK VINA RESULT:      -7.2      2.613      6.692
REMARK  Name = 
REMARK  23 active torsions:
REMARK  status: ('A' for Active; 'I' for Inactive)
REMARK    1  A    between atoms: C_3  and  O_61
REMARK    2  A    between atoms: C_4  and  O_60
REMARK    3  A    between atoms: C_6  and  C_7
REMARK    4  A    between atoms: C_8  and  C_9
REMARK    5  A    between atoms: C_9  and  O_11
REMARK    6  A    between atoms: O_11  and  C_12
REMARK    7  A    between atoms: C_13  and  O_24
REMARK    8  A    between atoms: C_16  and  C_22
REMARK    9  A    between atoms: C_17  and  O_21
REMARK   10  A    between atoms: C_19  and  O_20
REMARK   11  A    between atoms: C_22  and  O_23
REMARK   12  A    between atoms: O_24  and  C_25
REMARK   13  A    between atoms: C_26  and  O_59
REMARK   14  A    between atoms: C_28  and  O_58
REMARK   15  A    between atoms: C_30  and  C_56
REMARK   16  A    between atoms: C_32  and  O_34
REMARK   17  A    between atoms: O_34  and  C_35
REMARK   18  A    between atoms: C_36  and  C_48
REMARK   19  A    between atoms: C_40  and  O_47
REMARK   20  A    between atoms: C_42  and  O_46
REMARK   21  A    between atoms: C_50  and  O_55
REMARK   22  A    between atoms: C_51  and  O_54
REMARK   23  A    between atoms: C_56  and  O_57
REMARK                            x       y       z     vdW  Elec       q    Type
REMARK                         _______ _______ _______ _____ _____    ______ ____
ROOT
ATOM      1  C   UNL     1       5.874  -2.766  23.262  0.00  0.00    +0.221 C 
ATOM      2  C   UNL     1       5.413  -3.367  24.629  0.00  0.00    +0.340 C 
ATOM      3  O   UNL     1       5.946  -4.706  24.777  0.00  0.00    -0.331 OA
ATOM      4  C   UNL     1       5.483  -5.617  23.738  0.00  0.00    +0.179 C 
ATOM      5  C   UNL     1       5.900  -5.093  22.353  0.00  0.00    +0.177 C 
ATOM      6  C   UNL     1       5.351  -3.681  22.151  0.00  0.00    +0.180 C 
ENDROOT
BRANCH   6   7
ATOM      7  O   UNL     1       5.680  -3.250  20.826  0.00  0.00    -0.386 OA
ATOM      8  H   UNL     1       5.242  -3.855  20.186  0.00  0.00    +0.210 HD
ENDBRANCH   6   7
BRANCH   5   9
ATOM      9  O   UNL     1       5.439  -5.930  21.290  0.00  0.00    -0.386 OA
ATOM     10  H   UNL     1       5.066  -5.301  20.630  0.00  0.00    +0.210 HD
ENDBRANCH   5   9
BRANCH   2  11
ATOM     11  O   UNL     1       5.806  -2.468  25.706  0.00  0.00    -0.453 OA
BRANCH  11  12
ATOM     12  C   UNL     1       4.762  -1.898  26.461  0.00  0.00    +0.214 A 
ATOM     13  C   UNL     1       4.314  -0.468  26.234  0.00  0.00    +0.238 A 
ATOM     14  O   UNL     1       4.760   0.218  25.323  0.00  0.00    -0.283 OA
ATOM     15  C   UNL     1       3.364   0.135  27.172  0.00  0.00    +0.109 A 
ATOM     16  C   UNL     1       2.810  -0.691  28.134  0.00  0.00    +0.147 A 
ATOM     17  C   UNL     1       1.868  -0.191  29.037  0.00  0.00    +0.092 A 
ATOM     18  C   UNL     1       1.490   1.144  28.959  0.00  0.00    +0.124 A 
ATOM     19  C   UNL     1       2.050   1.992  28.013  0.00  0.00    +0.091 A 
ATOM     20  O   UNL     1       3.133  -2.009  28.253  0.00  0.00    -0.451 OA
ATOM     21  C   UNL     1       2.996   1.490  27.124  0.00  0.00    +0.135 A 
ATOM     22  C   UNL     1       4.139  -2.568  27.465  0.00  0.00    +0.181 A 
BRANCH  22  23
ATOM     23  C   UNL     1       4.384  -3.977  27.908  0.00  0.00    +0.025 A 
ATOM     24  C   UNL     1       5.360  -4.324  28.854  0.00  0.00    +0.015 A 
ATOM     25  C   UNL     1       5.707  -5.667  29.072  0.00  0.00    +0.050 A 
ATOM     26  C   UNL     1       5.085  -6.668  28.339  0.00  0.00    +0.158 A 
ATOM     27  C   UNL     1       4.076  -6.357  27.440  0.00  0.00    +0.159 A 
ATOM     28  C   UNL     1       3.713  -5.029  27.234  0.00  0.00    +0.060 A 
BRANCH  27  29
ATOM     29  O   UNL     1       3.496  -7.386  26.750  0.00  0.00    -0.503 OA
ATOM     30  H   UNL     1       4.203  -7.958  26.402  0.00  0.00    +0.292 HD
ENDBRANCH  27  29
BRANCH  26  31
ATOM     31  O   UNL     1       5.491  -7.963  28.484  0.00  0.00    -0.503 OA
ATOM     32  H   UNL     1       4.677  -8.454  28.718  0.00  0.00    +0.292 HD
ENDBRANCH  26  31
ENDBRANCH  22  23
BRANCH  21  33
ATOM     33  O   UNL     1       3.567   2.345  26.225  0.00  0.00    -0.506 OA
ATOM     34  H   UNL     1       4.328   1.928  25.793  0.00  0.00    +0.292 HD
ENDBRANCH  21  33
BRANCH  18  35
ATOM     35  O   UNL     1       0.564   1.676  29.805  0.00  0.00    -0.507 OA
ATOM     36  H   UNL     1      -0.100   1.000  30.018  0.00  0.00    +0.292 HD
ENDBRANCH  18  35
ENDBRANCH  11  12
ENDBRANCH   2  11
BRANCH   1  37
ATOM     37  O   UNL     1       7.318  -2.597  23.315  0.00  0.00    -0.336 OA
BRANCH  37  43
ATOM     38  C   UNL     1       7.445  -0.116  23.351  0.00  0.00    +0.263 C 
ATOM     39  C   UNL     1       8.293   0.153  24.597  0.00  0.00    +0.191 C 
ATOM     40  C   UNL     1       9.786  -0.007  24.290  0.00  0.00    +0.178 C 
ATOM     41  C   UNL     1      10.104  -1.387  23.693  0.00  0.00    +0.178 C 
ATOM     42  O   UNL     1       9.290  -1.631  22.544  0.00  0.00    -0.340 OA
ATOM     43  C   UNL     1       7.868  -1.447  22.666  0.00  0.00    +0.295 C 
BRANCH  40  44
ATOM     44  O   UNL     1      10.581   0.333  25.425  0.00  0.00    -0.386 OA
ATOM     45  H   UNL     1      10.782  -0.503  25.900  0.00  0.00    +0.210 HD
ENDBRANCH  40  44
BRANCH  39  46
ATOM     46  O   UNL     1       7.862  -0.693  25.669  0.00  0.00    -0.385 OA
ATOM     47  H   UNL     1       7.989  -1.625  25.412  0.00  0.00    +0.210 HD
ENDBRANCH  39  46
BRANCH  41  48
ATOM     48  C   UNL     1      10.178  -2.571  24.680  0.00  0.00    +0.190 C 
BRANCH  48  49
ATOM     49  O   UNL     1       9.719  -3.770  24.049  0.00  0.00    -0.392 OA
ATOM     50  H   UNL     1       8.992  -4.124  24.598  0.00  0.00    +0.210 HD
ENDBRANCH  48  49
ENDBRANCH  41  48
BRANCH  38  51
ATOM     51  O   UNL     1       7.523   1.029  22.462  0.00  0.00    -0.450 OA
BRANCH  51  52
ATOM     52  C   UNL     1       6.790   2.122  22.852  0.00  0.00    +0.332 C 
ATOM     53  O   UNL     1       5.573   2.210  22.806  0.00  0.00    -0.246 OA
BRANCH  52  55
ATOM     54  C   UNL     1       9.016   3.178  23.078  0.00  0.00    +0.015 C 
ATOM     55  C   UNL     1       7.716   3.124  23.421  0.00  0.00    +0.092 C 
BRANCH  54  57
ATOM     56  C   UNL     1       9.617   5.337  24.272  0.00  0.00    +0.012 A 
ATOM     57  C   UNL     1       9.992   4.187  23.553  0.00  0.00    -0.021 A 
ATOM     58  C   UNL     1      11.357   4.020  23.254  0.00  0.00    +0.057 A 
ATOM     59  C   UNL     1      12.288   4.978  23.663  0.00  0.00    +0.159 A 
ATOM     60  C   UNL     1      11.895   6.109  24.367  0.00  0.00    +0.158 A 
ATOM     61  C   UNL     1      10.558   6.294  24.680  0.00  0.00    +0.050 A 
BRANCH  60  62
ATOM     62  O   UNL     1      12.858   7.008  24.726  0.00  0.00    -0.503 OA
ATOM     63  H   UNL     1      13.725   6.639  24.482  0.00  0.00    +0.292 HD
ENDBRANCH  60  62
BRANCH  59  64
ATOM     64  O   UNL     1      13.610   4.801  23.353  0.00  0.00    -0.503 OA
ATOM     65  H   UNL     1      13.709   5.227  22.477  0.00  0.00    +0.292 HD
ENDBRANCH  59  64
ENDBRANCH  54  57
ENDBRANCH  52  55
ENDBRANCH  51  52
ENDBRANCH  38  51
ENDBRANCH  37  43
ENDBRANCH   1  37
BRANCH   4  66
ATOM     66  C   UNL     1       3.965  -5.946  23.788  0.00  0.00    +0.190 C 
BRANCH  66  67
ATOM     67  O   UNL     1       3.722  -7.347  23.684  0.00  0.00    -0.392 OA
ATOM     68  H   UNL     1       4.281  -7.682  22.963  0.00  0.00    +0.210 HD
ENDBRANCH  66  67
ENDBRANCH   4  66
TORSDOF 23
ENDMDL
MODEL 3
REMARK VINA RESULT:      -6.9      2.043      7.206
REMARK  Name = 
REMARK  23 active torsions:
REMARK  status: ('A' for Active; 'I' for Inactive)
REMARK    1  A    between atoms: C_3  and  O_61
REMARK    2  A    between atoms: C_4  and  O_60
REMARK    3  A    between atoms: C_6  and  C_7
REMARK    4  A    between atoms: C_8  and  C_9
REMARK    5  A    between atoms: C_9  and  O_11
REMARK    6  A    between atoms: O_11  and  C_12
REMARK    7  A    between atoms: C_13  and  O_24
REMARK    8  A    between atoms: C_16  and  C_22
REMARK    9  A    between atoms: C_17  and  O_21
REMARK   10  A    between atoms: C_19  and  O_20
REMARK   11  A    between atoms: C_22  and  O_23
REMARK   12  A    between atoms: O_24  and  C_25
REMARK   13  A    between atoms: C_26  and  O_59
REMARK   14  A    between atoms: C_28  and  O_58
REMARK   15  A    between atoms: C_30  and  C_56
REMARK   16  A    between atoms: C_32  and  O_34
REMARK   17  A    between atoms: O_34  and  C_35
REMARK   18  A    between atoms: C_36  and  C_48
REMARK   19  A    between atoms: C_40  and  O_47
REMARK   20  A    between atoms: C_42  and  O_46
REMARK   21  A    between atoms: C_50  and  O_55
REMARK   22  A    between atoms: C_51  and  O_54
REMARK   23  A    between atoms: C_56  and  O_57
REMARK                            x       y       z     vdW  Elec       q    Type
REMARK                         _______ _______ _______ _____ _____    ______ ____
ROOT
ATOM      1  C   UNL     1       5.961   0.559  26.884  0.00  0.00    +0.221 C 
ATOM      2  C   UNL     1       4.714  -0.380  26.964  0.00  0.00    +0.340 C 
ATOM      3  O   UNL     1       3.512   0.383  26.696  0.00  0.00    -0.331 OA
ATOM      4  C   UNL     1       3.297   1.455  27.661  0.00  0.00    +0.179 C 
ATOM      5  C   UNL     1       4.488   2.427  27.643  0.00  0.00    +0.177 C 
ATOM      6  C   UNL     1       5.780   1.663  27.929  0.00  0.00    +0.180 C 
ENDROOT
BRANCH   6   7
ATOM      7  O   UNL     1       6.860   2.601  27.991  0.00  0.00    -0.386 OA
ATOM      8  H   UNL     1       7.231   2.588  28.902  0.00  0.00    +0.210 HD
ENDBRANCH   6   7
BRANCH   5   9
ATOM      9  O   UNL     1       4.348   3.481  28.598  0.00  0.00    -0.386 OA
ATOM     10  H   UNL     1       4.461   3.037  29.470  0.00  0.00    +0.210 HD
ENDBRANCH   5   9
BRANCH   2  11
ATOM     11  O   UNL     1       4.898  -1.502  26.054  0.00  0.00    -0.453 OA
BRANCH  11  12
ATOM     12  C   UNL     1       4.647  -2.786  26.578  0.00  0.00    +0.214 A 
ATOM     13  C   UNL     1       3.295  -3.149  27.158  0.00  0.00    +0.238 A 
ATOM     14  O   UNL     1       2.336  -2.389  27.104  0.00  0.00    -0.283 OA
ATOM     15  C   UNL     1       3.145  -4.425  27.863  0.00  0.00    +0.109 A 
ATOM     16  C   UNL     1       4.217  -5.300  27.828  0.00  0.00    +0.147 A 
ATOM     17  C   UNL     1       4.130  -6.549  28.446  0.00  0.00    +0.092 A 
ATOM     18  C   UNL     1       2.955  -6.909  29.096  0.00  0.00    +0.124 A 
ATOM     19  C   UNL     1       1.877  -6.036  29.159  0.00  0.00    +0.091 A 
ATOM     20  O   UNL     1       5.390  -5.008  27.199  0.00  0.00    -0.451 OA
ATOM     21  C   UNL     1       1.976  -4.788  28.550  0.00  0.00    +0.135 A 
ATOM     22  C   UNL     1       5.605  -3.746  26.646  0.00  0.00    +0.181 A 
BRANCH  22  23
ATOM     23  C   UNL     1       7.018  -3.657  26.159  0.00  0.00    +0.025 A 
ATOM     24  C   UNL     1       7.712  -2.444  26.035  0.00  0.00    +0.015 A 
ATOM     25  C   UNL     1       8.946  -2.384  25.369  0.00  0.00    +0.050 A 
ATOM     26  C   UNL     1       9.488  -3.536  24.816  0.00  0.00    +0.158 A 
ATOM     27  C   UNL     1       8.852  -4.758  24.974  0.00  0.00    +0.159 A 
ATOM     28  C   UNL     1       7.638  -4.828  25.652  0.00  0.00    +0.060 A 
BRANCH  27  29
ATOM     29  O   UNL     1       9.436  -5.860  24.411  0.00  0.00    -0.503 OA
ATOM     30  H   UNL     1      10.400  -5.788  24.527  0.00  0.00    +0.292 HD
ENDBRANCH  27  29
BRANCH  26  31
ATOM     31  O   UNL     1      10.639  -3.459  24.086  0.00  0.00    -0.503 OA
ATOM     32  H   UNL     1      11.344  -3.309  24.749  0.00  0.00    +0.292 HD
ENDBRANCH  26  31
ENDBRANCH  22  23
BRANCH  21  33
ATOM     33  O   UNL     1       0.921  -3.926  28.653  0.00  0.00    -0.506 OA
ATOM     34  H   UNL     1       0.105  -4.346  28.340  0.00  0.00    +0.292 HD
ENDBRANCH  21  33
BRANCH  18  35
ATOM     35  O   UNL     1       2.814  -8.122  29.701  0.00  0.00    -0.507 OA
ATOM     36  H   UNL     1       2.984  -8.824  29.052  0.00  0.00    +0.292 HD
ENDBRANCH  18  35
ENDBRANCH  11  12
ENDBRANCH   2  11
BRANCH   1  37
ATOM     37  O   UNL     1       6.094   1.006  25.506  0.00  0.00    -0.336 OA
BRANCH  37  43
ATOM     38  C   UNL     1       7.444   0.713  23.441  0.00  0.00    +0.263 C 
ATOM     39  C   UNL     1       7.019   1.917  22.596  0.00  0.00    +0.191 C 
ATOM     40  C   UNL     1       7.778   3.180  23.018  0.00  0.00    +0.178 C 
ATOM     41  C   UNL     1       7.613   3.473  24.518  0.00  0.00    +0.178 C 
ATOM     42  O   UNL     1       7.994   2.333  25.292  0.00  0.00    -0.340 OA
ATOM     43  C   UNL     1       7.414   1.059  24.958  0.00  0.00    +0.295 C 
BRANCH  40  44
ATOM     44  O   UNL     1       7.451   4.281  22.171  0.00  0.00    -0.386 OA
ATOM     45  H   UNL     1       7.913   5.070  22.530  0.00  0.00    +0.210 HD
ENDBRANCH  40  44
BRANCH  39  46
ATOM     46  O   UNL     1       5.598   2.083  22.667  0.00  0.00    -0.385 OA
ATOM     47  H   UNL     1       5.378   2.608  23.458  0.00  0.00    +0.210 HD
ENDBRANCH  39  46
BRANCH  41  48
ATOM     48  C   UNL     1       6.283   4.122  24.958  0.00  0.00    +0.190 C 
BRANCH  48  49
ATOM     49  O   UNL     1       6.488   4.927  26.123  0.00  0.00    -0.392 OA
ATOM     50  H   UNL     1       7.451   4.961  26.283  0.00  0.00    +0.210 HD
ENDBRANCH  48  49
ENDBRANCH  41  48
BRANCH  38  51
ATOM     51  O   UNL     1       8.743   0.247  22.992  0.00  0.00    -0.450 OA
BRANCH  51  52
ATOM     52  C   UNL     1       8.711  -0.730  22.028  0.00  0.00    +0.332 C 
ATOM     53  O   UNL     1       9.482  -0.818  21.084  0.00  0.00    -0.246 OA
BRANCH  52  55
ATOM     54  C   UNL     1       7.632  -2.951  21.887  0.00  0.00    +0.015 C 
ATOM     55  C   UNL     1       7.654  -1.701  22.384  0.00  0.00    +0.092 C 
BRANCH  54  57
ATOM     56  C   UNL     1       6.852  -5.367  21.968  0.00  0.00    +0.012 A 
ATOM     57  C   UNL     1       6.647  -4.001  22.240  0.00  0.00    -0.021 A 
ATOM     58  C   UNL     1       5.433  -3.632  22.849  0.00  0.00    +0.057 A 
ATOM     59  C   UNL     1       4.478  -4.603  23.157  0.00  0.00    +0.159 A 
ATOM     60  C   UNL     1       4.699  -5.945  22.874  0.00  0.00    +0.158 A 
ATOM     61  C   UNL     1       5.888  -6.337  22.282  0.00  0.00    +0.050 A 
BRANCH  60  62
ATOM     62  O   UNL     1       3.717  -6.838  23.195  0.00  0.00    -0.503 OA
ATOM     63  H   UNL     1       4.012  -7.725  22.922  0.00  0.00    +0.292 HD
ENDBRANCH  60  62
BRANCH  59  64
ATOM     64  O   UNL     1       3.299  -4.221  23.740  0.00  0.00    -0.503 OA
ATOM     65  H   UNL     1       2.982  -3.485  23.177  0.00  0.00    +0.292 HD
ENDBRANCH  59  64
ENDBRANCH  54  57
ENDBRANCH  52  55
ENDBRANCH  51  52
ENDBRANCH  38  51
ENDBRANCH  37  43
ENDBRANCH   1  37
BRANCH   4  66
ATOM     66  C   UNL     1       2.973   0.978  29.104  0.00  0.00    +0.190 C 
BRANCH  66  67
ATOM     67  O   UNL     1       2.080  -0.132  29.108  0.00  0.00    -0.392 OA
ATOM     68  H   UNL     1       1.570  -0.089  29.934  0.00  0.00    +0.210 HD
ENDBRANCH  66  67
ENDBRANCH   4  66
TORSDOF 23
ENDMDL
MODEL 4
REMARK VINA RESULT:      -6.8      2.335      7.879
REMARK  Name = 
REMARK  23 active torsions:
REMARK  status: ('A' for Active; 'I' for Inactive)
REMARK    1  A    between atoms: C_3  and  O_61
REMARK    2  A    between atoms: C_4  and  O_60
REMARK    3  A    between atoms: C_6  and  C_7
REMARK    4  A    between atoms: C_8  and  C_9
REMARK    5  A    between atoms: C_9  and  O_11
REMARK    6  A    between atoms: O_11  and  C_12
REMARK    7  A    between atoms: C_13  and  O_24
REMARK    8  A    between atoms: C_16  and  C_22
REMARK    9  A    between atoms: C_17  and  O_21
REMARK   10  A    between atoms: C_19  and  O_20
REMARK   11  A    between atoms: C_22  and  O_23
REMARK   12  A    between atoms: O_24  and  C_25
REMARK   13  A    between atoms: C_26  and  O_59
REMARK   14  A    between atoms: C_28  and  O_58
REMARK   15  A    between atoms: C_30  and  C_56
REMARK   16  A    between atoms: C_32  and  O_34
REMARK   17  A    between atoms: O_34  and  C_35
REMARK   18  A    between atoms: C_36  and  C_48
REMARK   19  A    between atoms: C_40  and  O_47
REMARK   20  A    between atoms: C_42  and  O_46
REMARK   21  A    between atoms: C_50  and  O_55
REMARK   22  A    between atoms: C_51  and  O_54
REMARK   23  A    between atoms: C_56  and  O_57
REMARK                            x       y       z     vdW  Elec       q    Type
REMARK                         _______ _______ _______ _____ _____    ______ ____
ROOT
ATOM      1  C   UNL     1       4.560   1.867  24.869  0.00  0.00    +0.221 C 
ATOM      2  C   UNL     1       6.041   1.414  24.664  0.00  0.00    +0.340 C 
ATOM      3  O   UNL     1       6.937   2.470  25.090  0.00  0.00    -0.331 OA
ATOM      4  C   UNL     1       6.762   3.701  24.328  0.00  0.00    +0.179 C 
ATOM      5  C   UNL     1       5.320   4.214  24.479  0.00  0.00    +0.177 C 
ATOM      6  C   UNL     1       4.339   3.131  24.033  0.00  0.00    +0.180 C 
ENDROOT
BRANCH   6   7
ATOM      7  O   UNL     1       3.011   3.661  24.103  0.00  0.00    -0.386 OA
ATOM      8  H   UNL     1       2.900   4.106  24.973  0.00  0.00    +0.210 HD
ENDBRANCH   6   7
BRANCH   5   9
ATOM      9  O   UNL     1       5.080   5.402  23.722  0.00  0.00    -0.386 OA
ATOM     10  H   UNL     1       5.407   6.130  24.300  0.00  0.00    +0.210 HD
ENDBRANCH   5   9
BRANCH   2  11
ATOM     11  O   UNL     1       6.260   0.156  25.364  0.00  0.00    -0.453 OA
BRANCH  11  12
ATOM     12  C   UNL     1       6.407  -0.994  24.562  0.00  0.00    +0.214 A 
ATOM     13  C   UNL     1       5.318  -2.045  24.484  0.00  0.00    +0.238 A 
ATOM     14  O   UNL     1       4.228  -1.897  25.024  0.00  0.00    -0.283 OA
ATOM     15  C   UNL     1       5.599  -3.306  23.793  0.00  0.00    +0.109 A 
ATOM     16  C   UNL     1       6.802  -3.407  23.118  0.00  0.00    +0.147 A 
ATOM     17  C   UNL     1       7.118  -4.567  22.406  0.00  0.00    +0.092 A 
ATOM     18  C   UNL     1       6.211  -5.620  22.381  0.00  0.00    +0.124 A 
ATOM     19  C   UNL     1       5.008  -5.545  23.070  0.00  0.00    +0.091 A 
ATOM     20  O   UNL     1       7.725  -2.404  23.097  0.00  0.00    -0.451 OA
ATOM     21  C   UNL     1       4.706  -4.390  23.787  0.00  0.00    +0.135 A 
ATOM     22  C   UNL     1       7.541  -1.254  23.863  0.00  0.00    +0.181 A 
BRANCH  22  23
ATOM     23  C   UNL     1       8.768  -0.400  23.767  0.00  0.00    +0.025 A 
ATOM     24  C   UNL     1       9.665  -0.225  24.831  0.00  0.00    +0.015 A 
ATOM     25  C   UNL     1      10.671   0.753  24.772  0.00  0.00    +0.050 A 
ATOM     26  C   UNL     1      10.778   1.565  23.653  0.00  0.00    +0.158 A 
ATOM     27  C   UNL     1       9.942   1.375  22.563  0.00  0.00    +0.159 A 
ATOM     28  C   UNL     1       8.955   0.394  22.607  0.00  0.00    +0.060 A 
BRANCH  27  29
ATOM     29  O   UNL     1      10.098   2.204  21.486  0.00  0.00    -0.503 OA
ATOM     30  H   UNL     1       9.765   1.745  20.695  0.00  0.00    +0.292 HD
ENDBRANCH  27  29
BRANCH  26  31
ATOM     31  O   UNL     1      11.694   2.578  23.638  0.00  0.00    -0.503 OA
ATOM     32  H   UNL     1      11.484   3.115  24.428  0.00  0.00    +0.292 HD
ENDBRANCH  26  31
ENDBRANCH  22  23
BRANCH  21  33
ATOM     33  O   UNL     1       3.536  -4.346  24.491  0.00  0.00    -0.506 OA
ATOM     34  H   UNL     1       3.704  -4.113  25.417  0.00  0.00    +0.292 HD
ENDBRANCH  21  33
BRANCH  18  35
ATOM     35  O   UNL     1       6.465  -6.766  21.689  0.00  0.00    -0.507 OA
ATOM     36  H   UNL     1       5.988  -7.503  22.106  0.00  0.00    +0.292 HD
ENDBRANCH  18  35
ENDBRANCH  11  12
ENDBRANCH   2  11
BRANCH   1  37
ATOM     37  O   UNL     1       4.331   2.006  26.299  0.00  0.00    -0.336 OA
BRANCH  37  43
ATOM     38  C   UNL     1       3.451   0.637  28.177  0.00  0.00    +0.263 C 
ATOM     39  C   UNL     1       3.499   1.619  29.351  0.00  0.00    +0.191 C 
ATOM     40  C   UNL     1       2.279   2.547  29.341  0.00  0.00    +0.178 C 
ATOM     41  C   UNL     1       2.138   3.292  28.004  0.00  0.00    +0.178 C 
ATOM     42  O   UNL     1       2.115   2.364  26.917  0.00  0.00    -0.340 OA
ATOM     43  C   UNL     1       3.164   1.381  26.841  0.00  0.00    +0.295 C 
BRANCH  40  44
ATOM     44  O   UNL     1       2.275   3.400  30.485  0.00  0.00    -0.386 OA
ATOM     45  H   UNL     1       3.151   3.844  30.518  0.00  0.00    +0.210 HD
ENDBRANCH  40  44
BRANCH  39  46
ATOM     46  O   UNL     1       4.736   2.341  29.330  0.00  0.00    -0.385 OA
ATOM     47  H   UNL     1       5.317   1.998  30.034  0.00  0.00    +0.210 HD
ENDBRANCH  39  46
BRANCH  41  48
ATOM     48  C   UNL     1       3.066   4.505  27.782  0.00  0.00    +0.190 C 
BRANCH  48  49
ATOM     49  O   UNL     1       2.743   5.156  26.550  0.00  0.00    -0.392 OA
ATOM     50  H   UNL     1       3.383   4.842  25.882  0.00  0.00    +0.210 HD
ENDBRANCH  48  49
ENDBRANCH  41  48
BRANCH  38  51
ATOM     51  O   UNL     1       2.485  -0.407  28.464  0.00  0.00    -0.450 OA
BRANCH  51  52
ATOM     52  C   UNL     1       2.942  -1.422  29.266  0.00  0.00    +0.332 C 
ATOM     53  O   UNL     1       2.413  -1.801  30.299  0.00  0.00    -0.246 OA
BRANCH  52  55
ATOM     54  C   UNL     1       4.197  -3.352  28.361  0.00  0.00    +0.015 C 
ATOM     55  C   UNL     1       4.122  -2.033  28.616  0.00  0.00    +0.092 C 
BRANCH  54  57
ATOM     56  C   UNL     1       5.272  -5.390  27.292  0.00  0.00    +0.012 A 
ATOM     57  C   UNL     1       5.312  -4.032  27.659  0.00  0.00    -0.021 A 
ATOM     58  C   UNL     1       6.484  -3.310  27.365  0.00  0.00    +0.057 A 
ATOM     59  C   UNL     1       7.559  -3.942  26.735  0.00  0.00    +0.159 A 
ATOM     60  C   UNL     1       7.500  -5.285  26.387  0.00  0.00    +0.158 A 
ATOM     61  C   UNL     1       6.356  -6.017  26.658  0.00  0.00    +0.050 A 
BRANCH  60  62
ATOM     62  O   UNL     1       8.592  -5.840  25.782  0.00  0.00    -0.503 OA
ATOM     63  H   UNL     1       8.450  -5.818  24.820  0.00  0.00    +0.292 HD
ENDBRANCH  60  62
BRANCH  59  64
ATOM     64  O   UNL     1       8.694  -3.223  26.467  0.00  0.00    -0.503 OA
ATOM     65  H   UNL     1       8.765  -2.601  27.219  0.00  0.00    +0.292 HD
ENDBRANCH  59  64
ENDBRANCH  54  57
ENDBRANCH  52  55
ENDBRANCH  51  52
ENDBRANCH  38  51
ENDBRANCH  37  43
ENDBRANCH   1  37
BRANCH   4  66
ATOM     66  C   UNL     1       7.179   3.608  22.834  0.00  0.00    +0.190 C 
BRANCH  66  67
ATOM     67  O   UNL     1       8.317   4.416  22.550  0.00  0.00    -0.392 OA
ATOM     68  H   UNL     1       8.003   5.330  22.451  0.00  0.00    +0.210 HD
ENDBRANCH  66  67
ENDBRANCH   4  66
TORSDOF 23
ENDMDL
MODEL 5
REMARK VINA RESULT:      -6.6      2.643      8.542
REMARK  Name = 
REMARK  23 active torsions:
REMARK  status: ('A' for Active; 'I' for Inactive)
REMARK    1  A    between atoms: C_3  and  O_61
REMARK    2  A    between atoms: C_4  and  O_60
REMARK    3  A    between atoms: C_6  and  C_7
REMARK    4  A    between atoms: C_8  and  C_9
REMARK    5  A    between atoms: C_9  and  O_11
REMARK    6  A    between atoms: O_11  and  C_12
REMARK    7  A    between atoms: C_13  and  O_24
REMARK    8  A    between atoms: C_16  and  C_22
REMARK    9  A    between atoms: C_17  and  O_21
REMARK   10  A    between atoms: C_19  and  O_20
REMARK   11  A    between atoms: C_22  and  O_23
REMARK   12  A    between atoms: O_24  and  C_25
REMARK   13  A    between atoms: C_26  and  O_59
REMARK   14  A    between atoms: C_28  and  O_58
REMARK   15  A    between atoms: C_30  and  C_56
REMARK   16  A    between atoms: C_32  and  O_34
REMARK   17  A    between atoms: O_34  and  C_35
REMARK   18  A    between atoms: C_36  and  C_48
REMARK   19  A    between atoms: C_40  and  O_47
REMARK   20  A    between atoms: C_42  and  O_46
REMARK   21  A    between atoms: C_50  and  O_55
REMARK   22  A    between atoms: C_51  and  O_54
REMARK   23  A    between atoms: C_56  and  O_57
REMARK                            x       y       z     vdW  Elec       q    Type
REMARK                         _______ _______ _______ _____ _____    ______ ____
ROOT
ATOM      1  C   UNL     1       4.004   2.227  25.964  0.00  0.00    +0.221 C 
ATOM      2  C   UNL     1       5.016   1.914  24.814  0.00  0.00    +0.340 C 
ATOM      3  O   UNL     1       5.463   3.152  24.209  0.00  0.00    -0.331 OA
ATOM      4  C   UNL     1       4.374   3.917  23.616  0.00  0.00    +0.179 C 
ATOM      5  C   UNL     1       3.329   4.266  24.689  0.00  0.00    +0.177 C 
ATOM      6  C   UNL     1       2.823   2.985  25.351  0.00  0.00    +0.180 C 
ENDROOT
BRANCH   6   7
ATOM      7  O   UNL     1       1.794   3.330  26.285  0.00  0.00    -0.386 OA
ATOM      8  H   UNL     1       1.152   3.923  25.834  0.00  0.00    +0.210 HD
ENDBRANCH   6   7
BRANCH   5   9
ATOM      9  O   UNL     1       2.217   4.987  24.156  0.00  0.00    -0.386 OA
ATOM     10  H   UNL     1       2.251   5.860  24.613  0.00  0.00    +0.210 HD
ENDBRANCH   5   9
BRANCH   2  11
ATOM     11  O   UNL     1       6.106   1.103  25.341  0.00  0.00    -0.453 OA
BRANCH  11  12
ATOM     12  C   UNL     1       6.428  -0.063  24.618  0.00  0.00    +0.214 A 
ATOM     13  C   UNL     1       5.575  -1.311  24.715  0.00  0.00    +0.238 A 
ATOM     14  O   UNL     1       4.519  -1.334  25.336  0.00  0.00    -0.283 OA
ATOM     15  C   UNL     1       6.059  -2.551  24.101  0.00  0.00    +0.109 A 
ATOM     16  C   UNL     1       7.207  -2.472  23.331  0.00  0.00    +0.147 A 
ATOM     17  C   UNL     1       7.703  -3.607  22.685  0.00  0.00    +0.092 A 
ATOM     18  C   UNL     1       7.032  -4.817  22.819  0.00  0.00    +0.124 A 
ATOM     19  C   UNL     1       5.891  -4.919  23.604  0.00  0.00    +0.091 A 
ATOM     20  O   UNL     1       7.901  -1.313  23.154  0.00  0.00    -0.451 OA
ATOM     21  C   UNL     1       5.409  -3.786  24.254  0.00  0.00    +0.135 A 
ATOM     22  C   UNL     1       7.540  -0.156  23.844  0.00  0.00    +0.181 A 
BRANCH  22  23
ATOM     23  C   UNL     1       8.555   0.912  23.577  0.00  0.00    +0.025 A 
ATOM     24  C   UNL     1       9.891   0.822  23.998  0.00  0.00    +0.015 A 
ATOM     25  C   UNL     1      10.746   1.934  23.925  0.00  0.00    +0.050 A 
ATOM     26  C   UNL     1      10.266   3.141  23.439  0.00  0.00    +0.158 A 
ATOM     27  C   UNL     1       8.967   3.242  22.962  0.00  0.00    +0.159 A 
ATOM     28  C   UNL     1       8.121   2.138  23.013  0.00  0.00    +0.060 A 
BRANCH  27  29
ATOM     29  O   UNL     1       8.553   4.457  22.491  0.00  0.00    -0.503 OA
ATOM     30  H   UNL     1       7.580   4.482  22.520  0.00  0.00    +0.292 HD
ENDBRANCH  27  29
BRANCH  26  31
ATOM     31  O   UNL     1      11.070   4.245  23.458  0.00  0.00    -0.503 OA
ATOM     32  H   UNL     1      11.352   4.363  22.529  0.00  0.00    +0.292 HD
ENDBRANCH  26  31
ENDBRANCH  22  23
BRANCH  21  33
ATOM     33  O   UNL     1       4.308  -3.910  25.053  0.00  0.00    -0.506 OA
ATOM     34  H   UNL     1       3.502  -3.697  24.558  0.00  0.00    +0.292 HD
ENDBRANCH  21  33
BRANCH  18  35
ATOM     35  O   UNL     1       7.466  -5.948  22.197  0.00  0.00    -0.507 OA
ATOM     36  H   UNL     1       8.111  -5.708  21.511  0.00  0.00    +0.292 HD
ENDBRANCH  18  35
ENDBRANCH  11  12
ENDBRANCH   2  11
BRANCH   1  37
ATOM     37  O   UNL     1       4.728   2.925  27.015  0.00  0.00    -0.336 OA
BRANCH  37  43
ATOM     38  C   UNL     1       5.305   1.139  28.644  0.00  0.00    +0.263 C 
ATOM     39  C   UNL     1       6.786   1.408  28.918  0.00  0.00    +0.191 C 
ATOM     40  C   UNL     1       6.960   2.527  29.950  0.00  0.00    +0.178 C 
ATOM     41  C   UNL     1       6.234   3.814  29.527  0.00  0.00    +0.178 C 
ATOM     42  O   UNL     1       4.858   3.543  29.256  0.00  0.00    -0.340 OA
ATOM     43  C   UNL     1       4.541   2.464  28.357  0.00  0.00    +0.295 C 
BRANCH  40  44
ATOM     44  O   UNL     1       8.337   2.715  30.274  0.00  0.00    -0.386 OA
ATOM     45  H   UNL     1       8.569   3.638  30.027  0.00  0.00    +0.210 HD
ENDBRANCH  40  44
BRANCH  39  46
ATOM     46  O   UNL     1       7.464   1.689  27.687  0.00  0.00    -0.385 OA
ATOM     47  H   UNL     1       8.400   1.429  27.772  0.00  0.00    +0.210 HD
ENDBRANCH  39  46
BRANCH  41  48
ATOM     48  C   UNL     1       6.930   4.687  28.460  0.00  0.00    +0.190 C 
BRANCH  48  49
ATOM     49  O   UNL     1       7.849   5.589  29.083  0.00  0.00    -0.392 OA
ATOM     50  H   UNL     1       7.815   5.416  30.044  0.00  0.00    +0.210 HD
ENDBRANCH  48  49
ENDBRANCH  41  48
BRANCH  38  51
ATOM     51  O   UNL     1       4.741   0.389  29.752  0.00  0.00    -0.450 OA
BRANCH  51  52
ATOM     52  C   UNL     1       3.590  -0.301  29.465  0.00  0.00    +0.332 C 
ATOM     53  O   UNL     1       2.531   0.201  29.123  0.00  0.00    -0.246 OA
BRANCH  52  55
ATOM     54  C   UNL     1       4.135  -2.492  28.454  0.00  0.00    +0.015 C 
ATOM     55  C   UNL     1       3.882  -1.748  29.547  0.00  0.00    +0.092 C 
BRANCH  54  57
ATOM     56  C   UNL     1       3.594  -4.948  28.818  0.00  0.00    +0.012 A 
ATOM     57  C   UNL     1       4.497  -3.930  28.455  0.00  0.00    -0.021 A 
ATOM     58  C   UNL     1       5.807  -4.311  28.111  0.00  0.00    +0.057 A 
ATOM     59  C   UNL     1       6.177  -5.658  28.140  0.00  0.00    +0.159 A 
ATOM     60  C   UNL     1       5.271  -6.645  28.506  0.00  0.00    +0.158 A 
ATOM     61  C   UNL     1       3.973  -6.298  28.843  0.00  0.00    +0.050 A 
BRANCH  60  62
ATOM     62  O   UNL     1       5.705  -7.941  28.522  0.00  0.00    -0.503 OA
ATOM     63  H   UNL     1       4.998  -8.493  28.899  0.00  0.00    +0.292 HD
ENDBRANCH  60  62
BRANCH  59  64
ATOM     64  O   UNL     1       7.460  -6.007  27.811  0.00  0.00    -0.503 OA
ATOM     65  H   UNL     1       7.472  -6.982  27.897  0.00  0.00    +0.292 HD
ENDBRANCH  59  64
ENDBRANCH  54  57
ENDBRANCH  52  55
ENDBRANCH  51  52
ENDBRANCH  38  51
ENDBRANCH  37  43
ENDBRANCH   1  37
BRANCH   4  66
ATOM     66  C   UNL     1       3.713   3.257  22.374  0.00  0.00    +0.190 C 
BRANCH  66  67
ATOM     67  O   UNL     1       3.216   4.228  21.458  0.00  0.00    -0.392 OA
ATOM     68  H   UNL     1       3.966   4.522  20.914  0.00  0.00    +0.210 HD
ENDBRANCH  66  67
ENDBRANCH   4  66
TORSDOF 23
ENDMDL
MODEL 6
REMARK VINA RESULT:      -6.6      2.483      8.938
REMARK  Name = 
REMARK  23 active torsions:
REMARK  status: ('A' for Active; 'I' for Inactive)
REMARK    1  A    between atoms: C_3  and  O_61
REMARK    2  A    between atoms: C_4  and  O_60
REMARK    3  A    between atoms: C_6  and  C_7
REMARK    4  A    between atoms: C_8  and  C_9
REMARK    5  A    between atoms: C_9  and  O_11
REMARK    6  A    between atoms: O_11  and  C_12
REMARK    7  A    between atoms: C_13  and  O_24
REMARK    8  A    between atoms: C_16  and  C_22
REMARK    9  A    between atoms: C_17  and  O_21
REMARK   10  A    between atoms: C_19  and  O_20
REMARK   11  A    between atoms: C_22  and  O_23
REMARK   12  A    between atoms: O_24  and  C_25
REMARK   13  A    between atoms: C_26  and  O_59
REMARK   14  A    between atoms: C_28  and  O_58
REMARK   15  A    between atoms: C_30  and  C_56
REMARK   16  A    between atoms: C_32  and  O_34
REMARK   17  A    between atoms: O_34  and  C_35
REMARK   18  A    between atoms: C_36  and  C_48
REMARK   19  A    between atoms: C_40  and  O_47
REMARK   20  A    between atoms: C_42  and  O_46
REMARK   21  A    between atoms: C_50  and  O_55
REMARK   22  A    between atoms: C_51  and  O_54
REMARK   23  A    between atoms: C_56  and  O_57
REMARK                            x       y       z     vdW  Elec       q    Type
REMARK                         _______ _______ _______ _____ _____    ______ ____
ROOT
ATOM      1  C   UNL     1       5.449   3.913  24.722  0.00  0.00    +0.221 C 
ATOM      2  C   UNL     1       5.250   2.598  23.901  0.00  0.00    +0.340 C 
ATOM      3  O   UNL     1       5.068   2.922  22.501  0.00  0.00    -0.331 OA
ATOM      4  C   UNL     1       3.895   3.751  22.259  0.00  0.00    +0.179 C 
ATOM      5  C   UNL     1       4.014   5.072  23.038  0.00  0.00    +0.177 C 
ATOM      6  C   UNL     1       4.200   4.778  24.526  0.00  0.00    +0.180 C 
ENDROOT
BRANCH   6   7
ATOM      7  O   UNL     1       4.224   6.020  25.237  0.00  0.00    -0.386 OA
ATOM      8  H   UNL     1       4.384   5.830  26.188  0.00  0.00    +0.210 HD
ENDBRANCH   6   7
BRANCH   5   9
ATOM      9  O   UNL     1       2.871   5.913  22.868  0.00  0.00    -0.386 OA
ATOM     10  H   UNL     1       2.193   5.527  23.470  0.00  0.00    +0.210 HD
ENDBRANCH   5   9
BRANCH   2  11
ATOM     11  O   UNL     1       6.374   1.705  24.145  0.00  0.00    -0.453 OA
BRANCH  11  12
ATOM     12  C   UNL     1       6.060   0.408  24.597  0.00  0.00    +0.214 A 
ATOM     13  C   UNL     1       6.147  -0.791  23.674  0.00  0.00    +0.238 A 
ATOM     14  O   UNL     1       6.589  -0.707  22.535  0.00  0.00    -0.283 OA
ATOM     15  C   UNL     1       5.626  -2.081  24.136  0.00  0.00    +0.109 A 
ATOM     16  C   UNL     1       5.218  -2.166  25.455  0.00  0.00    +0.147 A 
ATOM     17  C   UNL     1       4.747  -3.375  25.973  0.00  0.00    +0.092 A 
ATOM     18  C   UNL     1       4.693  -4.494  25.150  0.00  0.00    +0.124 A 
ATOM     19  C   UNL     1       5.079  -4.423  23.819  0.00  0.00    +0.091 A 
ATOM     20  O   UNL     1       5.258  -1.106  26.311  0.00  0.00    -0.451 OA
ATOM     21  C   UNL     1       5.537  -3.211  23.307  0.00  0.00    +0.135 A 
ATOM     22  C   UNL     1       5.614   0.163  25.856  0.00  0.00    +0.181 A 
BRANCH  22  23
ATOM     23  C   UNL     1       5.426   1.152  26.964  0.00  0.00    +0.025 A 
ATOM     24  C   UNL     1       4.167   1.627  27.363  0.00  0.00    +0.015 A 
ATOM     25  C   UNL     1       4.053   2.713  28.246  0.00  0.00    +0.050 A 
ATOM     26  C   UNL     1       5.197   3.334  28.726  0.00  0.00    +0.158 A 
ATOM     27  C   UNL     1       6.453   2.849  28.393  0.00  0.00    +0.159 A 
ATOM     28  C   UNL     1       6.573   1.760  27.535  0.00  0.00    +0.060 A 
BRANCH  27  29
ATOM     29  O   UNL     1       7.544   3.500  28.901  0.00  0.00    -0.503 OA
ATOM     30  H   UNL     1       7.509   3.445  29.872  0.00  0.00    +0.292 HD
ENDBRANCH  27  29
BRANCH  26  31
ATOM     31  O   UNL     1       5.084   4.448  29.506  0.00  0.00    -0.503 OA
ATOM     32  H   UNL     1       5.343   5.189  28.921  0.00  0.00    +0.292 HD
ENDBRANCH  26  31
ENDBRANCH  22  23
BRANCH  21  33
ATOM     33  O   UNL     1       5.876  -3.147  21.986  0.00  0.00    -0.506 OA
ATOM     34  H   UNL     1       6.754  -3.532  21.840  0.00  0.00    +0.292 HD
ENDBRANCH  21  33
BRANCH  18  35
ATOM     35  O   UNL     1       4.256  -5.700  25.611  0.00  0.00    -0.507 OA
ATOM     36  H   UNL     1       4.964  -6.120  26.127  0.00  0.00    +0.292 HD
ENDBRANCH  18  35
ENDBRANCH  11  12
ENDBRANCH   2  11
BRANCH   1  37
ATOM     37  O   UNL     1       6.706   4.513  24.304  0.00  0.00    -0.336 OA
BRANCH  37  43
ATOM     38  C   UNL     1       9.071   3.934  23.802  0.00  0.00    +0.263 C 
ATOM     39  C   UNL     1       9.731   5.311  23.694  0.00  0.00    +0.191 C 
ATOM     40  C   UNL     1      10.070   5.868  25.082  0.00  0.00    +0.178 C 
ATOM     41  C   UNL     1       8.835   5.917  25.996  0.00  0.00    +0.178 C 
ATOM     42  O   UNL     1       8.219   4.630  26.070  0.00  0.00    -0.340 OA
ATOM     43  C   UNL     1       7.910   3.953  24.838  0.00  0.00    +0.295 C 
BRANCH  40  44
ATOM     44  O   UNL     1      10.768   7.108  24.979  0.00  0.00    -0.386 OA
ATOM     45  H   UNL     1      11.719   6.895  24.850  0.00  0.00    +0.210 HD
ENDBRANCH  40  44
BRANCH  39  46
ATOM     46  O   UNL     1       8.892   6.195  22.941  0.00  0.00    -0.385 OA
ATOM     47  H   UNL     1       8.477   6.835  23.547  0.00  0.00    +0.210 HD
ENDBRANCH  39  46
BRANCH  41  48
ATOM     48  C   UNL     1       7.847   7.082  25.768  0.00  0.00    +0.190 C 
BRANCH  48  49
ATOM     49  O   UNL     1       6.602   6.807  26.416  0.00  0.00    -0.392 OA
ATOM     50  H   UNL     1       5.984   6.489  25.729  0.00  0.00    +0.210 HD
ENDBRANCH  48  49
ENDBRANCH  41  48
BRANCH  38  51
ATOM     51  O   UNL     1      10.083   2.939  24.103  0.00  0.00    -0.450 OA
BRANCH  51  52
ATOM     52  C   UNL     1      10.089   1.844  23.276  0.00  0.00    +0.332 C 
ATOM     53  O   UNL     1      10.606   1.794  22.171  0.00  0.00    -0.246 OA
BRANCH  52  55
ATOM     54  C   UNL     1       9.939  -0.536  23.936  0.00  0.00    +0.015 C 
ATOM     55  C   UNL     1       9.451   0.718  23.992  0.00  0.00    +0.092 C 
BRANCH  54  57
ATOM     56  C   UNL     1       8.908  -1.621  25.989  0.00  0.00    +0.012 A 
ATOM     57  C   UNL     1       9.398  -1.704  24.672  0.00  0.00    -0.021 A 
ATOM     58  C   UNL     1       9.394  -2.967  24.052  0.00  0.00    +0.057 A 
ATOM     59  C   UNL     1       8.922  -4.087  24.742  0.00  0.00    +0.159 A 
ATOM     60  C   UNL     1       8.448  -3.982  26.043  0.00  0.00    +0.158 A 
ATOM     61  C   UNL     1       8.434  -2.750  26.674  0.00  0.00    +0.050 A 
BRANCH  60  62
ATOM     62  O   UNL     1       8.010  -5.120  26.660  0.00  0.00    -0.503 OA
ATOM     63  H   UNL     1       8.677  -5.384  27.318  0.00  0.00    +0.292 HD
ENDBRANCH  60  62
BRANCH  59  64
ATOM     64  O   UNL     1       8.936  -5.309  24.123  0.00  0.00    -0.503 OA
ATOM     65  H   UNL     1       8.048  -5.381  23.717  0.00  0.00    +0.292 HD
ENDBRANCH  59  64
ENDBRANCH  54  57
ENDBRANCH  52  55
ENDBRANCH  51  52
ENDBRANCH  38  51
ENDBRANCH  37  43
ENDBRANCH   1  37
BRANCH   4  66
ATOM     66  C   UNL     1       2.534   3.052  22.532  0.00  0.00    +0.190 C 
BRANCH  66  67
ATOM     67  O   UNL     1       1.433   3.929  22.315  0.00  0.00    -0.392 OA
ATOM     68  H   UNL     1       1.169   4.280  23.182  0.00  0.00    +0.210 HD
ENDBRANCH  66  67
ENDBRANCH   4  66
TORSDOF 23
ENDMDL
MODEL 7
REMARK VINA RESULT:      -6.5      2.408      4.591
REMARK  Name = 
REMARK  23 active torsions:
REMARK  status: ('A' for Active; 'I' for Inactive)
REMARK    1  A    between atoms: C_3  and  O_61
REMARK    2  A    between atoms: C_4  and  O_60
REMARK    3  A    between atoms: C_6  and  C_7
REMARK    4  A    between atoms: C_8  and  C_9
REMARK    5  A    between atoms: C_9  and  O_11
REMARK    6  A    between atoms: O_11  and  C_12
REMARK    7  A    between atoms: C_13  and  O_24
REMARK    8  A    between atoms: C_16  and  C_22
REMARK    9  A    between atoms: C_17  and  O_21
REMARK   10  A    between atoms: C_19  and  O_20
REMARK   11  A    between atoms: C_22  and  O_23
REMARK   12  A    between atoms: O_24  and  C_25
REMARK   13  A    between atoms: C_26  and  O_59
REMARK   14  A    between atoms: C_28  and  O_58
REMARK   15  A    between atoms: C_30  and  C_56
REMARK   16  A    between atoms: C_32  and  O_34
REMARK   17  A    between atoms: O_34  and  C_35
REMARK   18  A    between atoms: C_36  and  C_48
REMARK   19  A    between atoms: C_40  and  O_47
REMARK   20  A    between atoms: C_42  and  O_46
REMARK   21  A    between atoms: C_50  and  O_55
REMARK   22  A    between atoms: C_51  and  O_54
REMARK   23  A    between atoms: C_56  and  O_57
REMARK                            x       y       z     vdW  Elec       q    Type
REMARK                         _______ _______ _______ _____ _____    ______ ____
ROOT
ATOM      1  C   UNL     1       4.590  -2.362  25.712  0.00  0.00    +0.221 C 
ATOM      2  C   UNL     1       4.462  -1.007  26.481  0.00  0.00    +0.340 C 
ATOM      3  O   UNL     1       4.921  -1.176  27.845  0.00  0.00    -0.331 OA
ATOM      4  C   UNL     1       4.141  -2.159  28.587  0.00  0.00    +0.179 C 
ATOM      5  C   UNL     1       4.216  -3.527  27.890  0.00  0.00    +0.177 C 
ATOM      6  C   UNL     1       3.733  -3.397  26.446  0.00  0.00    +0.180 C 
ENDROOT
BRANCH   6   7
ATOM      7  O   UNL     1       3.733  -4.696  25.846  0.00  0.00    -0.386 OA
ATOM      8  H   UNL     1       4.657  -4.921  25.592  0.00  0.00    +0.210 HD
ENDBRANCH   6   7
BRANCH   5   9
ATOM      9  O   UNL     1       3.437  -4.524  28.555  0.00  0.00    -0.386 OA
ATOM     10  H   UNL     1       3.945  -4.722  29.376  0.00  0.00    +0.210 HD
ENDBRANCH   5   9
BRANCH   2  11
ATOM     11  O   UNL     1       5.184   0.028  25.754  0.00  0.00    -0.453 OA
BRANCH  11  12
ATOM     12  C   UNL     1       5.384   1.248  26.431  0.00  0.00    +0.214 A 
ATOM     13  C   UNL     1       4.254   1.933  27.173  0.00  0.00    +0.238 A 
ATOM     14  O   UNL     1       3.153   1.414  27.309  0.00  0.00    -0.283 OA
ATOM     15  C   UNL     1       4.466   3.287  27.692  0.00  0.00    +0.109 A 
ATOM     16  C   UNL     1       5.744   3.809  27.604  0.00  0.00    +0.147 A 
ATOM     17  C   UNL     1       6.025   5.080  28.114  0.00  0.00    +0.092 A 
ATOM     18  C   UNL     1       5.008   5.815  28.712  0.00  0.00    +0.124 A 
ATOM     19  C   UNL     1       3.715   5.316  28.790  0.00  0.00    +0.091 A 
ATOM     20  O   UNL     1       6.782   3.132  27.039  0.00  0.00    -0.451 OA
ATOM     21  C   UNL     1       3.441   4.054  28.270  0.00  0.00    +0.135 A 
ATOM     22  C   UNL     1       6.573   1.904  26.413  0.00  0.00    +0.181 A 
BRANCH  22  23
ATOM     23  C   UNL     1       7.845   1.466  25.755  0.00  0.00    +0.025 A 
ATOM     24  C   UNL     1       8.449   0.224  26.005  0.00  0.00    +0.015 A 
ATOM     25  C   UNL     1       9.746  -0.052  25.543  0.00  0.00    +0.050 A 
ATOM     26  C   UNL     1      10.447   0.915  24.838  0.00  0.00    +0.158 A 
ATOM     27  C   UNL     1       9.853   2.129  24.528  0.00  0.00    +0.159 A 
ATOM     28  C   UNL     1       8.560   2.401  24.964  0.00  0.00    +0.060 A 
BRANCH  27  29
ATOM     29  O   UNL     1      10.593   3.041  23.826  0.00  0.00    -0.503 OA
ATOM     30  H   UNL     1      11.532   2.904  24.041  0.00  0.00    +0.292 HD
ENDBRANCH  27  29
BRANCH  26  31
ATOM     31  O   UNL     1      11.742   0.680  24.475  0.00  0.00    -0.503 OA
ATOM     32  H   UNL     1      11.812   1.031  23.564  0.00  0.00    +0.292 HD
ENDBRANCH  26  31
ENDBRANCH  22  23
BRANCH  21  33
ATOM     33  O   UNL     1       2.156   3.592  28.320  0.00  0.00    -0.506 OA
ATOM     34  H   UNL     1       2.047   2.965  29.052  0.00  0.00    +0.292 HD
ENDBRANCH  21  33
BRANCH  18  35
ATOM     35  O   UNL     1       5.234   7.052  29.238  0.00  0.00    -0.507 OA
ATOM     36  H   UNL     1       5.550   7.644  28.536  0.00  0.00    +0.292 HD
ENDBRANCH  18  35
ENDBRANCH  11  12
ENDBRANCH   2  11
BRANCH   1  37
ATOM     37  O   UNL     1       6.006  -2.677  25.601  0.00  0.00    -0.336 OA
BRANCH  37  43
ATOM     38  C   UNL     1       7.926  -2.742  24.024  0.00  0.00    +0.263 C 
ATOM     39  C   UNL     1       8.939  -3.612  24.774  0.00  0.00    +0.191 C 
ATOM     40  C   UNL     1       8.625  -5.101  24.591  0.00  0.00    +0.178 C 
ATOM     41  C   UNL     1       7.187  -5.440  25.014  0.00  0.00    +0.178 C 
ATOM     42  O   UNL     1       6.255  -4.606  24.321  0.00  0.00    -0.340 OA
ATOM     43  C   UNL     1       6.468  -3.183  24.344  0.00  0.00    +0.295 C 
BRANCH  40  44
ATOM     44  O   UNL     1       9.621  -5.913  25.212  0.00  0.00    -0.386 OA
ATOM     45  H   UNL     1       9.908  -5.447  26.028  0.00  0.00    +0.210 HD
ENDBRANCH  40  44
BRANCH  39  46
ATOM     46  O   UNL     1       8.982  -3.227  26.153  0.00  0.00    -0.385 OA
ATOM     47  H   UNL     1       9.059  -4.027  26.705  0.00  0.00    +0.210 HD
ENDBRANCH  39  46
BRANCH  41  48
ATOM     48  C   UNL     1       6.919  -5.567  26.529  0.00  0.00    +0.190 C 
BRANCH  48  49
ATOM     49  O   UNL     1       8.150  -5.752  27.235  0.00  0.00    -0.392 OA
ATOM     50  H   UNL     1       8.661  -6.427  26.748  0.00  0.00    +0.210 HD
ENDBRANCH  48  49
ENDBRANCH  41  48
BRANCH  38  51
ATOM     51  O   UNL     1       8.228  -2.771  22.605  0.00  0.00    -0.450 OA
BRANCH  51  52
ATOM     52  C   UNL     1       8.823  -1.637  22.112  0.00  0.00    +0.332 C 
ATOM     53  O   UNL     1       9.820  -1.610  21.407  0.00  0.00    -0.246 OA
BRANCH  52  55
ATOM     54  C   UNL     1       8.006   0.677  21.798  0.00  0.00    +0.015 C 
ATOM     55  C   UNL     1       7.997  -0.472  22.498  0.00  0.00    +0.092 C 
BRANCH  54  57
ATOM     56  C   UNL     1       7.581   3.182  21.810  0.00  0.00    +0.012 A 
ATOM     57  C   UNL     1       7.164   1.865  22.081  0.00  0.00    -0.021 A 
ATOM     58  C   UNL     1       5.900   1.689  22.674  0.00  0.00    +0.057 A 
ATOM     59  C   UNL     1       5.107   2.797  22.981  0.00  0.00    +0.159 A 
ATOM     60  C   UNL     1       5.541   4.088  22.710  0.00  0.00    +0.158 A 
ATOM     61  C   UNL     1       6.777   4.290  22.119  0.00  0.00    +0.050 A 
BRANCH  60  62
ATOM     62  O   UNL     1       4.717   5.126  23.045  0.00  0.00    -0.503 OA
ATOM     63  H   UNL     1       3.994   5.161  22.394  0.00  0.00    +0.292 HD
ENDBRANCH  60  62
BRANCH  59  64
ATOM     64  O   UNL     1       3.885   2.604  23.568  0.00  0.00    -0.503 OA
ATOM     65  H   UNL     1       3.478   1.886  23.041  0.00  0.00    +0.292 HD
ENDBRANCH  59  64
ENDBRANCH  54  57
ENDBRANCH  52  55
ENDBRANCH  51  52
ENDBRANCH  38  51
ENDBRANCH  37  43
ENDBRANCH   1  37
BRANCH   4  66
ATOM     66  C   UNL     1       2.669  -1.745  28.869  0.00  0.00    +0.190 C 
BRANCH  66  67
ATOM     67  O   UNL     1       2.585  -0.442  29.440  0.00  0.00    -0.392 OA
ATOM     68  H   UNL     1       1.647  -0.190  29.444  0.00  0.00    +0.210 HD
ENDBRANCH  66  67
ENDBRANCH   4  66
TORSDOF 23
ENDMDL
MODEL 8
REMARK VINA RESULT:      -6.4      3.399      9.173
REMARK  Name = 
REMARK  23 active torsions:
REMARK  status: ('A' for Active; 'I' for Inactive)
REMARK    1  A    between atoms: C_3  and  O_61
REMARK    2  A    between atoms: C_4  and  O_60
REMARK    3  A    between atoms: C_6  and  C_7
REMARK    4  A    between atoms: C_8  and  C_9
REMARK    5  A    between atoms: C_9  and  O_11
REMARK    6  A    between atoms: O_11  and  C_12
REMARK    7  A    between atoms: C_13  and  O_24
REMARK    8  A    between atoms: C_16  and  C_22
REMARK    9  A    between atoms: C_17  and  O_21
REMARK   10  A    between atoms: C_19  and  O_20
REMARK   11  A    between atoms: C_22  and  O_23
REMARK   12  A    between atoms: O_24  and  C_25
REMARK   13  A    between atoms: C_26  and  O_59
REMARK   14  A    between atoms: C_28  and  O_58
REMARK   15  A    between atoms: C_30  and  C_56
REMARK   16  A    between atoms: C_32  and  O_34
REMARK   17  A    between atoms: O_34  and  C_35
REMARK   18  A    between atoms: C_36  and  C_48
REMARK   19  A    between atoms: C_40  and  O_47
REMARK   20  A    between atoms: C_42  and  O_46
REMARK   21  A    between atoms: C_50  and  O_55
REMARK   22  A    between atoms: C_51  and  O_54
REMARK   23  A    between atoms: C_56  and  O_57
REMARK                            x       y       z     vdW  Elec       q    Type
REMARK                         _______ _______ _______ _____ _____    ______ ____
ROOT
ATOM      1  C   UNL     1       6.731   1.716  23.050  0.00  0.00    +0.221 C 
ATOM      2  C   UNL     1       6.741   0.212  23.478  0.00  0.00    +0.340 C 
ATOM      3  O   UNL     1       8.038  -0.129  24.026  0.00  0.00    -0.331 OA
ATOM      4  C   UNL     1       9.121   0.044  23.066  0.00  0.00    +0.179 C 
ATOM      5  C   UNL     1       9.178   1.507  22.593  0.00  0.00    +0.177 C 
ATOM      6  C   UNL     1       7.828   1.908  21.999  0.00  0.00    +0.180 C 
ENDROOT
BRANCH   6   7
ATOM      7  O   UNL     1       7.933   3.242  21.491  0.00  0.00    -0.386 OA
ATOM      8  H   UNL     1       8.854   3.384  21.177  0.00  0.00    +0.210 HD
ENDBRANCH   6   7
BRANCH   5   9
ATOM      9  O   UNL     1      10.201   1.728  21.620  0.00  0.00    -0.386 OA
ATOM     10  H   UNL     1      10.969   1.207  21.951  0.00  0.00    +0.210 HD
ENDBRANCH   5   9
BRANCH   2  11
ATOM     11  O   UNL     1       5.643  -0.031  24.403  0.00  0.00    -0.453 OA
BRANCH  11  12
ATOM     12  C   UNL     1       5.609  -1.297  25.020  0.00  0.00    +0.214 A 
ATOM     13  C   UNL     1       5.652  -2.574  24.205  0.00  0.00    +0.238 A 
ATOM     14  O   UNL     1       5.822  -2.568  22.992  0.00  0.00    -0.283 OA
ATOM     15  C   UNL     1       5.420  -3.854  24.879  0.00  0.00    +0.109 A 
ATOM     16  C   UNL     1       5.322  -3.837  26.259  0.00  0.00    +0.147 A 
ATOM     17  C   UNL     1       5.140  -5.026  26.970  0.00  0.00    +0.092 A 
ATOM     18  C   UNL     1       5.058  -6.228  26.277  0.00  0.00    +0.124 A 
ATOM     19  C   UNL     1       5.133  -6.263  24.891  0.00  0.00    +0.091 A 
ATOM     20  O   UNL     1       5.406  -2.692  26.992  0.00  0.00    -0.451 OA
ATOM     21  C   UNL     1       5.304  -5.072  24.190  0.00  0.00    +0.135 A 
ATOM     22  C   UNL     1       5.483  -1.449  26.364  0.00  0.00    +0.181 A 
BRANCH  22  23
ATOM     23  C   UNL     1       5.410  -0.370  27.399  0.00  0.00    +0.025 A 
ATOM     24  C   UNL     1       4.216   0.278  27.749  0.00  0.00    +0.015 A 
ATOM     25  C   UNL     1       4.228   1.428  28.554  0.00  0.00    +0.050 A 
ATOM     26  C   UNL     1       5.436   1.940  29.005  0.00  0.00    +0.158 A 
ATOM     27  C   UNL     1       6.627   1.287  28.723  0.00  0.00    +0.159 A 
ATOM     28  C   UNL     1       6.619   0.134  27.943  0.00  0.00    +0.060 A 
BRANCH  27  29
ATOM     29  O   UNL     1       7.785   1.836  29.200  0.00  0.00    -0.503 OA
ATOM     30  H   UNL     1       7.554   2.550  29.820  0.00  0.00    +0.292 HD
ENDBRANCH  27  29
BRANCH  26  31
ATOM     31  O   UNL     1       5.454   3.111  29.707  0.00  0.00    -0.503 OA
ATOM     32  H   UNL     1       4.530   3.433  29.676  0.00  0.00    +0.292 HD
ENDBRANCH  26  31
ENDBRANCH  22  23
BRANCH  21  33
ATOM     33  O   UNL     1       5.337  -5.117  22.825  0.00  0.00    -0.506 OA
ATOM     34  H   UNL     1       5.067  -4.266  22.448  0.00  0.00    +0.292 HD
ENDBRANCH  21  33
BRANCH  18  35
ATOM     35  O   UNL     1       4.896  -7.417  26.924  0.00  0.00    -0.507 OA
ATOM     36  H   UNL     1       5.148  -7.310  27.856  0.00  0.00    +0.292 HD
ENDBRANCH  18  35
ENDBRANCH  11  12
ENDBRANCH   2  11
BRANCH   1  37
ATOM     37  O   UNL     1       6.859   2.522  24.254  0.00  0.00    -0.336 OA
BRANCH  37  43
ATOM     38  C   UNL     1       5.528   3.868  25.863  0.00  0.00    +0.263 C 
ATOM     39  C   UNL     1       6.613   4.595  26.662  0.00  0.00    +0.191 C 
ATOM     40  C   UNL     1       7.115   5.831  25.908  0.00  0.00    +0.178 C 
ATOM     41  C   UNL     1       7.610   5.479  24.496  0.00  0.00    +0.178 C 
ATOM     42  O   UNL     1       6.594   4.784  23.771  0.00  0.00    -0.340 OA
ATOM     43  C   UNL     1       5.978   3.641  24.391  0.00  0.00    +0.295 C 
BRANCH  40  44
ATOM     44  O   UNL     1       8.059   6.560  26.691  0.00  0.00    -0.386 OA
ATOM     45  H   UNL     1       8.198   6.055  27.522  0.00  0.00    +0.210 HD
ENDBRANCH  40  44
BRANCH  39  46
ATOM     46  O   UNL     1       7.671   3.685  26.984  0.00  0.00    -0.385 OA
ATOM     47  H   UNL     1       8.024   3.301  26.161  0.00  0.00    +0.210 HD
ENDBRANCH  39  46
BRANCH  41  48
ATOM     48  C   UNL     1       9.013   4.843  24.390  0.00  0.00    +0.190 C 
BRANCH  48  49
ATOM     49  O   UNL     1       9.547   5.037  23.077  0.00  0.00    -0.392 OA
ATOM     50  H   UNL     1       9.376   4.218  22.574  0.00  0.00    +0.210 HD
ENDBRANCH  48  49
ENDBRANCH  41  48
BRANCH  38  51
ATOM     51  O   UNL     1       4.282   4.605  25.968  0.00  0.00    -0.450 OA
BRANCH  51  52
ATOM     52  C   UNL     1       3.194   3.995  25.395  0.00  0.00    +0.332 C 
ATOM     53  O   UNL     1       2.528   3.109  25.908  0.00  0.00    -0.246 OA
BRANCH  52  55
ATOM     54  C   UNL     1       2.587   3.969  22.997  0.00  0.00    +0.015 C 
ATOM     55  C   UNL     1       2.912   4.661  24.105  0.00  0.00    +0.092 C 
BRANCH  54  57
ATOM     56  C   UNL     1       1.856   5.909  21.530  0.00  0.00    +0.012 A 
ATOM     57  C   UNL     1       2.230   4.561  21.686  0.00  0.00    -0.021 A 
ATOM     58  C   UNL     1       2.231   3.747  20.538  0.00  0.00    +0.057 A 
ATOM     59  C   UNL     1       1.864   4.278  19.299  0.00  0.00    +0.159 A 
ATOM     60  C   UNL     1       1.492   5.609  19.169  0.00  0.00    +0.158 A 
ATOM     61  C   UNL     1       1.490   6.435  20.281  0.00  0.00    +0.050 A 
BRANCH  60  62
ATOM     62  O   UNL     1       1.136   6.058  17.929  0.00  0.00    -0.503 OA
ATOM     63  H   UNL     1       1.295   7.018  17.896  0.00  0.00    +0.292 HD
ENDBRANCH  60  62
BRANCH  59  64
ATOM     64  O   UNL     1       1.862   3.465  18.197  0.00  0.00    -0.503 OA
ATOM     65  H   UNL     1       2.560   3.840  17.622  0.00  0.00    +0.292 HD
ENDBRANCH  59  64
ENDBRANCH  54  57
ENDBRANCH  52  55
ENDBRANCH  51  52
ENDBRANCH  38  51
ENDBRANCH  37  43
ENDBRANCH   1  37
BRANCH   4  66
ATOM     66  C   UNL     1       9.091  -0.941  21.865  0.00  0.00    +0.190 C 
BRANCH  66  67
ATOM     67  O   UNL     1      10.384  -1.469  21.579  0.00  0.00    -0.392 OA
ATOM     68  H   UNL     1      10.755  -0.942  20.853  0.00  0.00    +0.210 HD
ENDBRANCH  66  67
ENDBRANCH   4  66
TORSDOF 23
ENDMDL
MODEL 9
REMARK VINA RESULT:      -6.3      2.403      7.868
REMARK  Name = 
REMARK  23 active torsions:
REMARK  status: ('A' for Active; 'I' for Inactive)
REMARK    1  A    between atoms: C_3  and  O_61
REMARK    2  A    between atoms: C_4  and  O_60
REMARK    3  A    between atoms: C_6  and  C_7
REMARK    4  A    between atoms: C_8  and  C_9
REMARK    5  A    between atoms: C_9  and  O_11
REMARK    6  A    between atoms: O_11  and  C_12
REMARK    7  A    between atoms: C_13  and  O_24
REMARK    8  A    between atoms: C_16  and  C_22
REMARK    9  A    between atoms: C_17  and  O_21
REMARK   10  A    between atoms: C_19  and  O_20
REMARK   11  A    between atoms: C_22  and  O_23
REMARK   12  A    between atoms: O_24  and  C_25
REMARK   13  A    between atoms: C_26  and  O_59
REMARK   14  A    between atoms: C_28  and  O_58
REMARK   15  A    between atoms: C_30  and  C_56
REMARK   16  A    between atoms: C_32  and  O_34
REMARK   17  A    between atoms: O_34  and  C_35
REMARK   18  A    between atoms: C_36  and  C_48
REMARK   19  A    between atoms: C_40  and  O_47
REMARK   20  A    between atoms: C_42  and  O_46
REMARK   21  A    between atoms: C_50  and  O_55
REMARK   22  A    between atoms: C_51  and  O_54
REMARK   23  A    between atoms: C_56  and  O_57
REMARK                            x       y       z     vdW  Elec       q    Type
REMARK                         _______ _______ _______ _____ _____    ______ ____
ROOT
ATOM      1  C   UNL     1       3.859   2.168  25.956  0.00  0.00    +0.221 C 
ATOM      2  C   UNL     1       4.771   1.624  24.809  0.00  0.00    +0.340 C 
ATOM      3  O   UNL     1       5.537   2.714  24.238  0.00  0.00    -0.331 OA
ATOM      4  C   UNL     1       4.695   3.750  23.652  0.00  0.00    +0.179 C 
ATOM      5  C   UNL     1       3.761   4.338  24.723  0.00  0.00    +0.177 C 
ATOM      6  C   UNL     1       2.927   3.221  25.349  0.00  0.00    +0.180 C 
ENDROOT
BRANCH   6   7
ATOM      7  O   UNL     1       2.009   3.804  26.280  0.00  0.00    -0.386 OA
ATOM      8  H   UNL     1       1.735   3.111  26.921  0.00  0.00    +0.210 HD
ENDBRANCH   6   7
BRANCH   5   9
ATOM      9  O   UNL     1       2.884   5.336  24.196  0.00  0.00    -0.386 OA
ATOM     10  H   UNL     1       3.077   6.139  24.734  0.00  0.00    +0.210 HD
ENDBRANCH   5   9
BRANCH   2  11
ATOM     11  O   UNL     1       5.603   0.546  25.327  0.00  0.00    -0.453 OA
BRANCH  11  12
ATOM     12  C   UNL     1       5.750  -0.587  24.503  0.00  0.00    +0.214 A 
ATOM     13  C   UNL     1       4.870  -1.809  24.677  0.00  0.00    +0.238 A 
ATOM     14  O   UNL     1       3.931  -1.830  25.464  0.00  0.00    -0.283 OA
ATOM     15  C   UNL     1       5.190  -3.026  23.928  0.00  0.00    +0.109 A 
ATOM     16  C   UNL     1       6.198  -2.944  22.983  0.00  0.00    +0.147 A 
ATOM     17  C   UNL     1       6.530  -4.056  22.205  0.00  0.00    +0.092 A 
ATOM     18  C   UNL     1       5.837  -5.248  22.388  0.00  0.00    +0.124 A 
ATOM     19  C   UNL     1       4.838  -5.354  23.346  0.00  0.00    +0.091 A 
ATOM     20  O   UNL     1       6.903  -1.802  22.751  0.00  0.00    -0.451 OA
ATOM     21  C   UNL     1       4.520  -4.245  24.124  0.00  0.00    +0.135 A 
ATOM     22  C   UNL     1       6.713  -0.675  23.550  0.00  0.00    +0.181 A 
BRANCH  22  23
ATOM     23  C   UNL     1       7.717   0.370  23.172  0.00  0.00    +0.025 A 
ATOM     24  C   UNL     1       7.627   1.130  21.995  0.00  0.00    +0.015 A 
ATOM     25  C   UNL     1       8.699   1.932  21.572  0.00  0.00    +0.050 A 
ATOM     26  C   UNL     1       9.868   1.971  22.318  0.00  0.00    +0.158 A 
ATOM     27  C   UNL     1       9.962   1.276  23.514  0.00  0.00    +0.159 A 
ATOM     28  C   UNL     1       8.895   0.495  23.951  0.00  0.00    +0.060 A 
BRANCH  27  29
ATOM     29  O   UNL     1      11.138   1.357  24.209  0.00  0.00    -0.503 OA
ATOM     30  H   UNL     1      11.668   0.565  24.008  0.00  0.00    +0.292 HD
ENDBRANCH  27  29
BRANCH  26  31
ATOM     31  O   UNL     1      10.942   2.675  21.855  0.00  0.00    -0.503 OA
ATOM     32  H   UNL     1      11.657   2.012  21.774  0.00  0.00    +0.292 HD
ENDBRANCH  26  31
ENDBRANCH  22  23
BRANCH  21  33
ATOM     33  O   UNL     1       3.562  -4.376  25.089  0.00  0.00    -0.506 OA
ATOM     34  H   UNL     1       3.892  -4.909  25.828  0.00  0.00    +0.292 HD
ENDBRANCH  21  33
BRANCH  18  35
ATOM     35  O   UNL     1       6.112  -6.356  21.645  0.00  0.00    -0.507 OA
ATOM     36  H   UNL     1       5.371  -6.980  21.717  0.00  0.00    +0.292 HD
ENDBRANCH  18  35
ENDBRANCH  11  12
ENDBRANCH   2  11
BRANCH   1  37
ATOM     37  O   UNL     1       4.722   2.630  27.030  0.00  0.00    -0.336 OA
BRANCH  37  43
ATOM     38  C   UNL     1       5.369   0.726  28.490  0.00  0.00    +0.263 C 
ATOM     39  C   UNL     1       6.832   1.040  28.813  0.00  0.00    +0.191 C 
ATOM     40  C   UNL     1       6.937   2.062  29.950  0.00  0.00    +0.178 C 
ATOM     41  C   UNL     1       6.152   3.346  29.640  0.00  0.00    +0.178 C 
ATOM     42  O   UNL     1       4.795   3.035  29.322  0.00  0.00    -0.340 OA
ATOM     43  C   UNL     1       4.544   2.034  28.319  0.00  0.00    +0.295 C 
BRANCH  40  44
ATOM     44  O   UNL     1       8.299   2.285  30.313  0.00  0.00    -0.386 OA
ATOM     45  H   UNL     1       8.368   3.216  30.622  0.00  0.00    +0.210 HD
ENDBRANCH  40  44
BRANCH  39  46
ATOM     46  O   UNL     1       7.509   1.471  27.626  0.00  0.00    -0.385 OA
ATOM     47  H   UNL     1       8.218   2.093  27.872  0.00  0.00    +0.210 HD
ENDBRANCH  39  46
BRANCH  41  48
ATOM     48  C   UNL     1       6.816   4.351  28.674  0.00  0.00    +0.190 C 
BRANCH  48  49
ATOM     49  O   UNL     1       7.742   5.180  29.382  0.00  0.00    -0.392 OA
ATOM     50  H   UNL     1       8.082   5.839  28.746  0.00  0.00    +0.210 HD
ENDBRANCH  48  49
ENDBRANCH  41  48
BRANCH  38  51
ATOM     51  O   UNL     1       4.831  -0.154  29.512  0.00  0.00    -0.450 OA
BRANCH  51  52
ATOM     52  C   UNL     1       4.388  -1.371  29.060  0.00  0.00    +0.332 C 
ATOM     53  O   UNL     1       3.303  -1.869  29.317  0.00  0.00    -0.246 OA
BRANCH  52  55
ATOM     54  C   UNL     1       5.669  -3.240  28.067  0.00  0.00    +0.015 C 
ATOM     55  C   UNL     1       5.403  -1.923  28.137  0.00  0.00    +0.092 C 
BRANCH  54  57
ATOM     56  C   UNL     1       6.644  -5.264  26.882  0.00  0.00    +0.012 A 
ATOM     57  C   UNL     1       6.622  -3.879  27.128  0.00  0.00    -0.021 A 
ATOM     58  C   UNL     1       7.576  -3.083  26.467  0.00  0.00    +0.057 A 
ATOM     59  C   UNL     1       8.506  -3.671  25.605  0.00  0.00    +0.159 A 
ATOM     60  C   UNL     1       8.513  -5.041  25.382  0.00  0.00    +0.158 A 
ATOM     61  C   UNL     1       7.580  -5.847  26.014  0.00  0.00    +0.050 A 
BRANCH  60  62
ATOM     62  O   UNL     1       9.457  -5.548  24.534  0.00  0.00    -0.503 OA
ATOM     63  H   UNL     1       9.007  -6.112  23.881  0.00  0.00    +0.292 HD
ENDBRANCH  60  62
BRANCH  59  64
ATOM     64  O   UNL     1       9.432  -2.879  24.980  0.00  0.00    -0.503 OA
ATOM     65  H   UNL     1       8.930  -2.450  24.257  0.00  0.00    +0.292 HD
ENDBRANCH  59  64
ENDBRANCH  54  57
ENDBRANCH  52  55
ENDBRANCH  51  52
ENDBRANCH  38  51
ENDBRANCH  37  43
ENDBRANCH   1  37
BRANCH   4  66
ATOM     66  C   UNL     1       3.905   3.310  22.388  0.00  0.00    +0.190 C 
BRANCH  66  67
ATOM     67  O   UNL     1       3.581   4.418  21.553  0.00  0.00    -0.392 OA
ATOM     68  H   UNL     1       4.176   5.147  21.799  0.00  0.00    +0.210 HD
ENDBRANCH  66  67
ENDBRANCH   4  66
TORSDOF 23
ENDMDL
