MODEL 1
REMARK VINA RESULT:      -7.2      0.000      0.000
REMARK  Name = 
REMARK  22 active torsions:
REMARK  status: ('A' for Active; 'I' for Inactive)
REMARK    1  A    between atoms: C_2  and  O_61
REMARK    2  A    between atoms: C_4  and  O_60
REMARK    3  A    between atoms: C_5  and  O_59
REMARK    4  A    between atoms: C_7  and  O_10
REMARK    5  A    between atoms: O_10  and  C_11
REMARK    6  A    between atoms: C_12  and  O_23
REMARK    7  A    between atoms: C_15  and  C_21
REMARK    8  A    between atoms: C_16  and  O_20
REMARK    9  A    between atoms: C_18  and  O_19
REMARK   10  A    between atoms: C_21  and  O_22
REMARK   11  A    between atoms: O_23  and  C_24
REMARK   12  A    between atoms: C_25  and  C_51
REMARK   13  A    between atoms: C_29  and  O_36
REMARK   14  A    between atoms: C_31  and  O_35
REMARK   15  A    between atoms: O_36  and  C_37
REMARK   16  A    between atoms: C_39  and  O_50
REMARK   17  A    between atoms: C_40  and  O_49
REMARK   18  A    between atoms: C_42  and  O_48
REMARK   19  A    between atoms: C_44  and  C_46
REMARK   20  A    between atoms: C_46  and  O_47
REMARK   21  A    between atoms: C_53  and  O_58
REMARK   22  A    between atoms: C_54  and  O_57
REMARK                            x       y       z     vdW  Elec       q    Type
REMARK                         _______ _______ _______ _____ _____    ______ ____
ROOT
ATOM      1  C   UNL     1       6.265   1.125  26.692  0.00  0.00    +0.214 A 
ATOM      2  C   UNL     1       5.355   0.235  27.485  0.00  0.00    +0.238 A 
ATOM      3  O   UNL     1       4.939   0.615  28.575  0.00  0.00    -0.283 OA
ATOM      4  C   UNL     1       5.024  -1.082  26.879  0.00  0.00    +0.109 A 
ATOM      5  C   UNL     1       5.281  -1.243  25.525  0.00  0.00    +0.147 A 
ATOM      6  C   UNL     1       4.951  -2.429  24.870  0.00  0.00    +0.093 A 
ATOM      7  C   UNL     1       4.493  -3.529  25.592  0.00  0.00    +0.131 A 
ATOM      8  C   UNL     1       4.244  -3.379  26.962  0.00  0.00    +0.092 A 
ATOM      9  O   UNL     1       5.907  -0.292  24.775  0.00  0.00    -0.451 OA
ATOM     10  C   UNL     1       4.485  -2.154  27.599  0.00  0.00    +0.135 A 
ATOM     11  C   UNL     1       6.556   0.747  25.423  0.00  0.00    +0.181 A 
ENDROOT
BRANCH  11  12
ATOM     12  C   UNL     1       7.573   1.327  24.520  0.00  0.00    +0.025 A 
ATOM     13  C   UNL     1       7.186   1.783  23.248  0.00  0.00    +0.015 A 
ATOM     14  C   UNL     1       8.127   2.217  22.315  0.00  0.00    +0.050 A 
ATOM     15  C   UNL     1       9.470   2.142  22.633  0.00  0.00    +0.158 A 
ATOM     16  C   UNL     1       9.879   1.679  23.882  0.00  0.00    +0.159 A 
ATOM     17  C   UNL     1       8.942   1.286  24.837  0.00  0.00    +0.060 A 
BRANCH  16  18
ATOM     18  O   UNL     1      11.227   1.596  24.103  0.00  0.00    -0.503 OA
ATOM     19  H   UNL     1      11.450   0.682  24.348  0.00  0.00    +0.292 HD
ENDBRANCH  16  18
BRANCH  15  20
ATOM     20  O   UNL     1      10.391   2.491  21.688  0.00  0.00    -0.503 OA
ATOM     21  H   UNL     1      10.784   3.325  22.016  0.00  0.00    +0.292 HD
ENDBRANCH  15  20
ENDBRANCH  11  12
BRANCH  10  22
ATOM     22  O   UNL     1       4.236  -2.034  28.935  0.00  0.00    -0.506 OA
ATOM     23  H   UNL     1       4.605  -2.792  29.419  0.00  0.00    +0.292 HD
ENDBRANCH  10  22
BRANCH   7  24
ATOM     24  O   UNL     1       4.368  -4.691  24.867  0.00  0.00    -0.461 OA
BRANCH  24  25
ATOM     25  C   UNL     1       5.446  -5.631  25.003  0.00  0.00    +0.339 C 
ATOM     26  O   UNL     1       6.730  -5.001  24.937  0.00  0.00    -0.331 OA
ATOM     27  C   UNL     1       7.015  -4.433  23.648  0.00  0.00    +0.179 C 
ATOM     28  C   UNL     1       7.069  -5.511  22.546  0.00  0.00    +0.177 C 
ATOM     29  C   UNL     1       5.816  -6.395  22.560  0.00  0.00    +0.180 C 
ATOM     30  C   UNL     1       5.390  -6.798  23.980  0.00  0.00    +0.214 C 
BRANCH  30  31
ATOM     31  O   UNL     1       4.103  -7.430  23.929  0.00  0.00    -0.383 OA
ATOM     32  H   UNL     1       3.687  -7.239  24.792  0.00  0.00    +0.210 HD
ENDBRANCH  30  31
BRANCH  29  33
ATOM     33  O   UNL     1       4.697  -5.767  21.917  0.00  0.00    -0.386 OA
ATOM     34  H   UNL     1       4.833  -5.773  20.954  0.00  0.00    +0.210 HD
ENDBRANCH  29  33
BRANCH  28  35
ATOM     35  O   UNL     1       8.229  -6.331  22.710  0.00  0.00    -0.386 OA
ATOM     36  H   UNL     1       8.237  -6.676  23.621  0.00  0.00    +0.210 HD
ENDBRANCH  28  35
BRANCH  27  37
ATOM     37  C   UNL     1       8.360  -3.687  23.748  0.00  0.00    +0.190 C 
BRANCH  37  38
ATOM     38  O   UNL     1       9.357  -4.446  24.434  0.00  0.00    -0.392 OA
ATOM     39  H   UNL     1      10.186  -4.395  23.933  0.00  0.00    +0.210 HD
ENDBRANCH  37  38
ENDBRANCH  27  37
ENDBRANCH  24  25
ENDBRANCH   7  24
BRANCH   1  40
ATOM     40  O   UNL     1       6.720   2.202  27.410  0.00  0.00    -0.453 OA
BRANCH  40  46
ATOM     41  C   UNL     1       5.268   3.985  26.502  0.00  0.00    +0.221 C 
ATOM     42  C   UNL     1       4.517   4.377  27.793  0.00  0.00    +0.180 C 
ATOM     43  C   UNL     1       5.366   5.260  28.721  0.00  0.00    +0.177 C 
ATOM     44  C   UNL     1       6.768   4.683  28.954  0.00  0.00    +0.179 C 
ATOM     45  O   UNL     1       7.412   4.407  27.693  0.00  0.00    -0.331 OA
ATOM     46  C   UNL     1       6.707   3.503  26.844  0.00  0.00    +0.340 C 
BRANCH  43  47
ATOM     47  O   UNL     1       5.507   6.571  28.153  0.00  0.00    -0.386 OA
ATOM     48  H   UNL     1       5.568   7.209  28.890  0.00  0.00    +0.210 HD
ENDBRANCH  43  47
BRANCH  42  49
ATOM     49  O   UNL     1       4.076   3.225  28.527  0.00  0.00    -0.386 OA
ATOM     50  H   UNL     1       4.587   3.117  29.354  0.00  0.00    +0.210 HD
ENDBRANCH  42  49
BRANCH  44  51
ATOM     51  C   UNL     1       6.814   3.485  29.925  0.00  0.00    +0.190 C 
BRANCH  51  52
ATOM     52  O   UNL     1       8.139   2.945  29.954  0.00  0.00    -0.392 OA
ATOM     53  H   UNL     1       8.685   3.625  30.389  0.00  0.00    +0.210 HD
ENDBRANCH  51  52
ENDBRANCH  44  51
BRANCH  41  54
ATOM     54  O   UNL     1       5.244   5.084  25.549  0.00  0.00    -0.337 OA
BRANCH  54  57
ATOM     55  C   UNL     1       8.618   6.191  24.909  0.00  0.00    +0.197 C 
ATOM     56  O   UNL     1       7.281   6.269  25.414  0.00  0.00    -0.346 OA
ATOM     57  C   UNL     1       6.453   5.274  24.793  0.00  0.00    +0.282 C 
ATOM     58  C   UNL     1       6.261   5.670  23.308  0.00  0.00    +0.201 C 
ATOM     59  C   UNL     1       7.644   5.678  22.633  0.00  0.00    +0.178 C 
ATOM     60  C   UNL     1       8.687   6.490  23.409  0.00  0.00    +0.171 C 
BRANCH  60  61
ATOM     61  O   UNL     1       9.983   6.147  22.920  0.00  0.00    -0.387 OA
ATOM     62  H   UNL     1       9.888   5.418  22.280  0.00  0.00    +0.210 HD
ENDBRANCH  60  61
BRANCH  59  63
ATOM     63  O   UNL     1       7.546   6.114  21.264  0.00  0.00    -0.386 OA
ATOM     64  H   UNL     1       7.821   5.388  20.692  0.00  0.00    +0.210 HD
ENDBRANCH  59  63
BRANCH  58  65
ATOM     65  O   UNL     1       5.408   4.775  22.586  0.00  0.00    -0.384 OA
ATOM     66  H   UNL     1       5.086   4.078  23.182  0.00  0.00    +0.210 HD
ENDBRANCH  58  65
ENDBRANCH  54  57
ENDBRANCH  41  54
ENDBRANCH  40  46
ENDBRANCH   1  40
TORSDOF 22
ENDMDL
MODEL 2
REMARK VINA RESULT:      -7.0      2.378      5.324
REMARK  Name = 
REMARK  22 active torsions:
REMARK  status: ('A' for Active; 'I' for Inactive)
REMARK    1  A    between atoms: C_2  and  O_61
REMARK    2  A    between atoms: C_4  and  O_60
REMARK    3  A    between atoms: C_5  and  O_59
REMARK    4  A    between atoms: C_7  and  O_10
REMARK    5  A    between atoms: O_10  and  C_11
REMARK    6  A    between atoms: C_12  and  O_23
REMARK    7  A    between atoms: C_15  and  C_21
REMARK    8  A    between atoms: C_16  and  O_20
REMARK    9  A    between atoms: C_18  and  O_19
REMARK   10  A    between atoms: C_21  and  O_22
REMARK   11  A    between atoms: O_23  and  C_24
REMARK   12  A    between atoms: C_25  and  C_51
REMARK   13  A    between atoms: C_29  and  O_36
REMARK   14  A    between atoms: C_31  and  O_35
REMARK   15  A    between atoms: O_36  and  C_37
REMARK   16  A    between atoms: C_39  and  O_50
REMARK   17  A    between atoms: C_40  and  O_49
REMARK   18  A    between atoms: C_42  and  O_48
REMARK   19  A    between atoms: C_44  and  C_46
REMARK   20  A    between atoms: C_46  and  O_47
REMARK   21  A    between atoms: C_53  and  O_58
REMARK   22  A    between atoms: C_54  and  O_57
REMARK                            x       y       z     vdW  Elec       q    Type
REMARK                         _______ _______ _______ _____ _____    ______ ____
ROOT
ATOM      1  C   UNL     1       5.865   2.675  25.664  0.00  0.00    +0.214 A 
ATOM      2  C   UNL     1       6.808   1.748  26.372  0.00  0.00    +0.238 A 
ATOM      3  O   UNL     1       7.862   2.186  26.820  0.00  0.00    -0.283 OA
ATOM      4  C   UNL     1       6.387   0.326  26.472  0.00  0.00    +0.109 A 
ATOM      5  C   UNL     1       5.052   0.037  26.229  0.00  0.00    +0.147 A 
ATOM      6  C   UNL     1       4.566  -1.264  26.354  0.00  0.00    +0.093 A 
ATOM      7  C   UNL     1       5.441  -2.324  26.581  0.00  0.00    +0.131 A 
ATOM      8  C   UNL     1       6.793  -2.043  26.814  0.00  0.00    +0.092 A 
ATOM      9  O   UNL     1       4.159   0.978  25.810  0.00  0.00    -0.451 OA
ATOM     10  C   UNL     1       7.260  -0.722  26.785  0.00  0.00    +0.135 A 
ATOM     11  C   UNL     1       4.639   2.192  25.345  0.00  0.00    +0.181 A 
ENDROOT
BRANCH  11  12
ATOM     12  C   UNL     1       3.620   2.821  24.478  0.00  0.00    +0.025 A 
ATOM     13  C   UNL     1       2.339   3.082  24.996  0.00  0.00    +0.015 A 
ATOM     14  C   UNL     1       1.309   3.554  24.183  0.00  0.00    +0.050 A 
ATOM     15  C   UNL     1       1.543   3.712  22.830  0.00  0.00    +0.158 A 
ATOM     16  C   UNL     1       2.799   3.445  22.290  0.00  0.00    +0.159 A 
ATOM     17  C   UNL     1       3.847   3.016  23.105  0.00  0.00    +0.060 A 
BRANCH  16  18
ATOM     18  O   UNL     1       2.936   3.585  20.936  0.00  0.00    -0.503 OA
ATOM     19  H   UNL     1       3.703   4.154  20.754  0.00  0.00    +0.292 HD
ENDBRANCH  16  18
BRANCH  15  20
ATOM     20  O   UNL     1       0.510   4.096  22.025  0.00  0.00    -0.503 OA
ATOM     21  H   UNL     1       0.669   3.637  21.175  0.00  0.00    +0.292 HD
ENDBRANCH  15  20
ENDBRANCH  11  12
BRANCH  10  22
ATOM     22  O   UNL     1       8.583  -0.476  27.013  0.00  0.00    -0.506 OA
ATOM     23  H   UNL     1       9.130  -1.195  26.657  0.00  0.00    +0.292 HD
ENDBRANCH  10  22
BRANCH   7  24
ATOM     24  O   UNL     1       4.872  -3.575  26.511  0.00  0.00    -0.461 OA
BRANCH  24  25
ATOM     25  C   UNL     1       5.274  -4.382  25.391  0.00  0.00    +0.339 C 
ATOM     26  O   UNL     1       4.198  -4.625  24.479  0.00  0.00    -0.331 OA
ATOM     27  C   UNL     1       3.150  -5.432  25.044  0.00  0.00    +0.179 C 
ATOM     28  C   UNL     1       3.651  -6.842  25.418  0.00  0.00    +0.177 C 
ATOM     29  C   UNL     1       4.911  -6.780  26.290  0.00  0.00    +0.180 C 
ATOM     30  C   UNL     1       5.922  -5.733  25.798  0.00  0.00    +0.214 C 
BRANCH  30  31
ATOM     31  O   UNL     1       6.962  -5.578  26.775  0.00  0.00    -0.383 OA
ATOM     32  H   UNL     1       6.507  -5.302  27.595  0.00  0.00    +0.210 HD
ENDBRANCH  30  31
BRANCH  29  33
ATOM     33  O   UNL     1       4.611  -6.501  27.666  0.00  0.00    -0.386 OA
ATOM     34  H   UNL     1       4.608  -5.539  27.807  0.00  0.00    +0.210 HD
ENDBRANCH  29  33
BRANCH  28  35
ATOM     35  O   UNL     1       3.929  -7.599  24.237  0.00  0.00    -0.386 OA
ATOM     36  H   UNL     1       3.715  -8.533  24.413  0.00  0.00    +0.210 HD
ENDBRANCH  28  35
BRANCH  27  37
ATOM     37  C   UNL     1       2.009  -5.514  24.012  0.00  0.00    +0.190 C 
BRANCH  37  38
ATOM     38  O   UNL     1       2.491  -5.626  22.671  0.00  0.00    -0.392 OA
ATOM     39  H   UNL     1       1.835  -5.238  22.072  0.00  0.00    +0.210 HD
ENDBRANCH  37  38
ENDBRANCH  27  37
ENDBRANCH  24  25
ENDBRANCH   7  24
BRANCH   1  40
ATOM     40  O   UNL     1       6.420   3.900  25.395  0.00  0.00    -0.453 OA
BRANCH  40  46
ATOM     41  C   UNL     1       8.008   3.668  23.515  0.00  0.00    +0.221 C 
ATOM     42  C   UNL     1       7.516   4.833  22.628  0.00  0.00    +0.180 C 
ATOM     43  C   UNL     1       7.999   6.201  23.134  0.00  0.00    +0.177 C 
ATOM     44  C   UNL     1       7.740   6.394  24.633  0.00  0.00    +0.179 C 
ATOM     45  O   UNL     1       8.288   5.290  25.383  0.00  0.00    -0.331 OA
ATOM     46  C   UNL     1       7.783   4.007  25.017  0.00  0.00    +0.340 C 
BRANCH  43  47
ATOM     47  O   UNL     1       9.409   6.338  22.899  0.00  0.00    -0.386 OA
ATOM     48  H   UNL     1       9.816   6.673  23.722  0.00  0.00    +0.210 HD
ENDBRANCH  43  47
BRANCH  42  49
ATOM     49  O   UNL     1       6.085   4.857  22.522  0.00  0.00    -0.386 OA
ATOM     50  H   UNL     1       5.728   5.732  22.777  0.00  0.00    +0.210 HD
ENDBRANCH  42  49
BRANCH  44  51
ATOM     51  C   UNL     1       6.270   6.692  24.995  0.00  0.00    +0.190 C 
BRANCH  51  52
ATOM     52  O   UNL     1       6.126   6.720  26.419  0.00  0.00    -0.392 OA
ATOM     53  H   UNL     1       5.181   6.899  26.579  0.00  0.00    +0.210 HD
ENDBRANCH  51  52
ENDBRANCH  44  51
BRANCH  41  54
ATOM     54  O   UNL     1       9.391   3.344  23.203  0.00  0.00    -0.337 OA
BRANCH  54  57
ATOM     55  C   UNL     1       9.269   0.388  21.136  0.00  0.00    +0.197 C 
ATOM     56  O   UNL     1       8.779   1.583  21.753  0.00  0.00    -0.346 OA
ATOM     57  C   UNL     1       9.638   1.974  22.835  0.00  0.00    +0.282 C 
ATOM     58  C   UNL     1       9.479   0.934  23.973  0.00  0.00    +0.201 C 
ATOM     59  C   UNL     1       9.927  -0.435  23.434  0.00  0.00    +0.178 C 
ATOM     60  C   UNL     1       9.268  -0.802  22.101  0.00  0.00    +0.171 C 
BRANCH  60  61
ATOM     61  O   UNL     1       9.996  -1.881  21.516  0.00  0.00    -0.387 OA
ATOM     62  H   UNL     1      10.536  -2.301  22.212  0.00  0.00    +0.210 HD
ENDBRANCH  60  61
BRANCH  59  63
ATOM     63  O   UNL     1       9.733  -1.465  24.422  0.00  0.00    -0.386 OA
ATOM     64  H   UNL     1       9.165  -1.117  25.118  0.00  0.00    +0.210 HD
ENDBRANCH  59  63
BRANCH  58  65
ATOM     65  O   UNL     1      10.254   1.241  25.137  0.00  0.00    -0.384 OA
ATOM     66  H   UNL     1      10.510   2.179  25.121  0.00  0.00    +0.210 HD
ENDBRANCH  58  65
ENDBRANCH  54  57
ENDBRANCH  41  54
ENDBRANCH  40  46
ENDBRANCH   1  40
TORSDOF 22
ENDMDL
MODEL 3
REMARK VINA RESULT:      -6.9      2.348      5.489
REMARK  Name = 
REMARK  22 active torsions:
REMARK  status: ('A' for Active; 'I' for Inactive)
REMARK    1  A    between atoms: C_2  and  O_61
REMARK    2  A    between atoms: C_4  and  O_60
REMARK    3  A    between atoms: C_5  and  O_59
REMARK    4  A    between atoms: C_7  and  O_10
REMARK    5  A    between atoms: O_10  and  C_11
REMARK    6  A    between atoms: C_12  and  O_23
REMARK    7  A    between atoms: C_15  and  C_21
REMARK    8  A    between atoms: C_16  and  O_20
REMARK    9  A    between atoms: C_18  and  O_19
REMARK   10  A    between atoms: C_21  and  O_22
REMARK   11  A    between atoms: O_23  and  C_24
REMARK   12  A    between atoms: C_25  and  C_51
REMARK   13  A    between atoms: C_29  and  O_36
REMARK   14  A    between atoms: C_31  and  O_35
REMARK   15  A    between atoms: O_36  and  C_37
REMARK   16  A    between atoms: C_39  and  O_50
REMARK   17  A    between atoms: C_40  and  O_49
REMARK   18  A    between atoms: C_42  and  O_48
REMARK   19  A    between atoms: C_44  and  C_46
REMARK   20  A    between atoms: C_46  and  O_47
REMARK   21  A    between atoms: C_53  and  O_58
REMARK   22  A    between atoms: C_54  and  O_57
REMARK                            x       y       z     vdW  Elec       q    Type
REMARK                         _______ _______ _______ _____ _____    ______ ____
ROOT
ATOM      1  C   UNL     1       7.715  -1.629  24.081  0.00  0.00    +0.214 A 
ATOM      2  C   UNL     1       7.751  -2.727  23.061  0.00  0.00    +0.238 A 
ATOM      3  O   UNL     1       8.403  -2.577  22.034  0.00  0.00    -0.283 OA
ATOM      4  C   UNL     1       6.961  -3.947  23.375  0.00  0.00    +0.109 A 
ATOM      5  C   UNL     1       6.553  -4.121  24.690  0.00  0.00    +0.147 A 
ATOM      6  C   UNL     1       5.853  -5.264  25.078  0.00  0.00    +0.093 A 
ATOM      7  C   UNL     1       5.423  -6.184  24.124  0.00  0.00    +0.131 A 
ATOM      8  C   UNL     1       5.819  -6.009  22.792  0.00  0.00    +0.092 A 
ATOM      9  O   UNL     1       6.758  -3.182  25.657  0.00  0.00    -0.451 OA
ATOM     10  C   UNL     1       6.605  -4.909  22.423  0.00  0.00    +0.135 A 
ATOM     11  C   UNL     1       7.133  -1.904  25.274  0.00  0.00    +0.181 A 
ENDROOT
BRANCH  11  12
ATOM     12  C   UNL     1       6.790  -0.951  26.351  0.00  0.00    +0.025 A 
ATOM     13  C   UNL     1       5.571  -0.252  26.291  0.00  0.00    +0.015 A 
ATOM     14  C   UNL     1       5.262   0.748  27.212  0.00  0.00    +0.050 A 
ATOM     15  C   UNL     1       6.200   1.094  28.167  0.00  0.00    +0.158 A 
ATOM     16  C   UNL     1       7.420   0.427  28.236  0.00  0.00    +0.159 A 
ATOM     17  C   UNL     1       7.719  -0.606  27.347  0.00  0.00    +0.060 A 
BRANCH  16  18
ATOM     18  O   UNL     1       8.311   0.858  29.182  0.00  0.00    -0.503 OA
ATOM     19  H   UNL     1       7.820   1.273  29.911  0.00  0.00    +0.292 HD
ENDBRANCH  16  18
BRANCH  15  20
ATOM     20  O   UNL     1       5.926   2.128  29.014  0.00  0.00    -0.503 OA
ATOM     21  H   UNL     1       6.484   1.964  29.800  0.00  0.00    +0.292 HD
ENDBRANCH  15  20
ENDBRANCH  11  12
BRANCH  10  22
ATOM     22  O   UNL     1       6.976  -4.760  21.118  0.00  0.00    -0.506 OA
ATOM     23  H   UNL     1       6.200  -4.814  20.536  0.00  0.00    +0.292 HD
ENDBRANCH  10  22
BRANCH   7  24
ATOM     24  O   UNL     1       4.596  -7.175  24.602  0.00  0.00    -0.461 OA
BRANCH  24  25
ATOM     25  C   UNL     1       3.213  -7.067  24.229  0.00  0.00    +0.339 C 
ATOM     26  O   UNL     1       2.775  -5.706  24.147  0.00  0.00    -0.331 OA
ATOM     27  C   UNL     1       2.777  -5.034  25.417  0.00  0.00    +0.179 C 
ATOM     28  C   UNL     1       1.793  -5.684  26.411  0.00  0.00    +0.177 C 
ATOM     29  C   UNL     1       2.020  -7.198  26.521  0.00  0.00    +0.180 C 
ATOM     30  C   UNL     1       2.253  -7.862  25.156  0.00  0.00    +0.214 C 
BRANCH  30  31
ATOM     31  O   UNL     1       2.673  -9.221  25.353  0.00  0.00    -0.383 OA
ATOM     32  H   UNL     1       1.895  -9.680  25.726  0.00  0.00    +0.210 HD
ENDBRANCH  30  31
BRANCH  29  33
ATOM     33  O   UNL     1       3.127  -7.524  27.374  0.00  0.00    -0.386 OA
ATOM     34  H   UNL     1       3.448  -6.715  27.810  0.00  0.00    +0.210 HD
ENDBRANCH  29  33
BRANCH  28  35
ATOM     35  O   UNL     1       0.443  -5.436  26.009  0.00  0.00    -0.386 OA
ATOM     36  H   UNL     1       0.025  -6.288  25.789  0.00  0.00    +0.210 HD
ENDBRANCH  28  35
BRANCH  27  37
ATOM     37  C   UNL     1       2.407  -3.558  25.171  0.00  0.00    +0.190 C 
BRANCH  37  38
ATOM     38  O   UNL     1       3.454  -2.662  25.552  0.00  0.00    -0.392 OA
ATOM     39  H   UNL     1       4.277  -2.948  25.126  0.00  0.00    +0.210 HD
ENDBRANCH  37  38
ENDBRANCH  27  37
ENDBRANCH  24  25
ENDBRANCH   7  24
BRANCH   1  40
ATOM     40  O   UNL     1       8.255  -0.454  23.621  0.00  0.00    -0.453 OA
BRANCH  40  46
ATOM     41  C   UNL     1       6.745   1.502  23.674  0.00  0.00    +0.221 C 
ATOM     42  C   UNL     1       7.743   2.574  24.163  0.00  0.00    +0.180 C 
ATOM     43  C   UNL     1       8.673   3.066  23.043  0.00  0.00    +0.177 C 
ATOM     44  C   UNL     1       9.316   1.909  22.268  0.00  0.00    +0.179 C 
ATOM     45  O   UNL     1       8.303   0.995  21.800  0.00  0.00    -0.331 OA
ATOM     46  C   UNL     1       7.485   0.430  22.823  0.00  0.00    +0.340 C 
BRANCH  43  47
ATOM     47  O   UNL     1       7.933   3.874  22.115  0.00  0.00    -0.386 OA
ATOM     48  H   UNL     1       8.555   4.178  21.425  0.00  0.00    +0.210 HD
ENDBRANCH  43  47
BRANCH  42  49
ATOM     49  O   UNL     1       8.545   2.101  25.256  0.00  0.00    -0.386 OA
ATOM     50  H   UNL     1       7.986   1.842  26.016  0.00  0.00    +0.210 HD
ENDBRANCH  42  49
BRANCH  44  51
ATOM     51  C   UNL     1      10.464   1.199  23.015  0.00  0.00    +0.190 C 
BRANCH  51  52
ATOM     52  O   UNL     1      11.075   2.114  23.931  0.00  0.00    -0.392 OA
ATOM     53  H   UNL     1      10.678   2.981  23.732  0.00  0.00    +0.210 HD
ENDBRANCH  51  52
ENDBRANCH  44  51
BRANCH  41  54
ATOM     54  O   UNL     1       5.637   2.126  22.969  0.00  0.00    -0.337 OA
BRANCH  54  57
ATOM     55  C   UNL     1       3.177   3.201  25.381  0.00  0.00    +0.197 C 
ATOM     56  O   UNL     1       3.724   2.403  24.326  0.00  0.00    -0.346 OA
ATOM     57  C   UNL     1       4.859   3.059  23.741  0.00  0.00    +0.282 C 
ATOM     58  C   UNL     1       4.350   4.305  22.975  0.00  0.00    +0.201 C 
ATOM     59  C   UNL     1       3.680   5.249  23.988  0.00  0.00    +0.178 C 
ATOM     60  C   UNL     1       2.647   4.545  24.874  0.00  0.00    +0.171 C 
BRANCH  60  61
ATOM     61  O   UNL     1       2.357   5.386  25.989  0.00  0.00    -0.387 OA
ATOM     62  H   UNL     1       2.945   6.164  25.950  0.00  0.00    +0.210 HD
ENDBRANCH  60  61
BRANCH  59  63
ATOM     63  O   UNL     1       3.114   6.397  23.327  0.00  0.00    -0.386 OA
ATOM     64  H   UNL     1       3.753   7.118  23.366  0.00  0.00    +0.210 HD
ENDBRANCH  59  63
BRANCH  58  65
ATOM     65  O   UNL     1       5.389   5.024  22.301  0.00  0.00    -0.384 OA
ATOM     66  H   UNL     1       5.000   5.600  21.621  0.00  0.00    +0.210 HD
ENDBRANCH  58  65
ENDBRANCH  54  57
ENDBRANCH  41  54
ENDBRANCH  40  46
ENDBRANCH   1  40
TORSDOF 22
ENDMDL
MODEL 4
REMARK VINA RESULT:      -6.8      2.261      8.814
REMARK  Name = 
REMARK  22 active torsions:
REMARK  status: ('A' for Active; 'I' for Inactive)
REMARK    1  A    between atoms: C_2  and  O_61
REMARK    2  A    between atoms: C_4  and  O_60
REMARK    3  A    between atoms: C_5  and  O_59
REMARK    4  A    between atoms: C_7  and  O_10
REMARK    5  A    between atoms: O_10  and  C_11
REMARK    6  A    between atoms: C_12  and  O_23
REMARK    7  A    between atoms: C_15  and  C_21
REMARK    8  A    between atoms: C_16  and  O_20
REMARK    9  A    between atoms: C_18  and  O_19
REMARK   10  A    between atoms: C_21  and  O_22
REMARK   11  A    between atoms: O_23  and  C_24
REMARK   12  A    between atoms: C_25  and  C_51
REMARK   13  A    between atoms: C_29  and  O_36
REMARK   14  A    between atoms: C_31  and  O_35
REMARK   15  A    between atoms: O_36  and  C_37
REMARK   16  A    between atoms: C_39  and  O_50
REMARK   17  A    between atoms: C_40  and  O_49
REMARK   18  A    between atoms: C_42  and  O_48
REMARK   19  A    between atoms: C_44  and  C_46
REMARK   20  A    between atoms: C_46  and  O_47
REMARK   21  A    between atoms: C_53  and  O_58
REMARK   22  A    between atoms: C_54  and  O_57
REMARK                            x       y       z     vdW  Elec       q    Type
REMARK                         _______ _______ _______ _____ _____    ______ ____
ROOT
ATOM      1  C   UNL     1       5.502  -1.941  27.409  0.00  0.00    +0.214 A 
ATOM      2  C   UNL     1       4.574  -0.789  27.659  0.00  0.00    +0.238 A 
ATOM      3  O   UNL     1       3.641  -0.925  28.443  0.00  0.00    -0.283 OA
ATOM      4  C   UNL     1       4.858   0.462  26.908  0.00  0.00    +0.109 A 
ATOM      5  C   UNL     1       6.111   0.587  26.326  0.00  0.00    +0.147 A 
ATOM      6  C   UNL     1       6.474   1.752  25.649  0.00  0.00    +0.093 A 
ATOM      7  C   UNL     1       5.535   2.754  25.419  0.00  0.00    +0.131 A 
ATOM      8  C   UNL     1       4.263   2.630  25.992  0.00  0.00    +0.092 A 
ATOM      9  O   UNL     1       7.030  -0.420  26.331  0.00  0.00    -0.451 OA
ATOM     10  C   UNL     1       3.933   1.501  26.754  0.00  0.00    +0.135 A 
ATOM     11  C   UNL     1       6.617  -1.697  26.679  0.00  0.00    +0.181 A 
ENDROOT
BRANCH  11  12
ATOM     12  C   UNL     1       7.567  -2.685  26.124  0.00  0.00    +0.025 A 
ATOM     13  C   UNL     1       7.845  -3.856  26.850  0.00  0.00    +0.015 A 
ATOM     14  C   UNL     1       8.828  -4.753  26.432  0.00  0.00    +0.050 A 
ATOM     15  C   UNL     1       9.578  -4.451  25.311  0.00  0.00    +0.158 A 
ATOM     16  C   UNL     1       9.332  -3.289  24.585  0.00  0.00    +0.159 A 
ATOM     17  C   UNL     1       8.321  -2.409  24.971  0.00  0.00    +0.060 A 
BRANCH  16  18
ATOM     18  O   UNL     1      10.147  -3.041  23.513  0.00  0.00    -0.503 OA
ATOM     19  H   UNL     1       9.735  -2.361  22.954  0.00  0.00    +0.292 HD
ENDBRANCH  16  18
BRANCH  15  20
ATOM     20  O   UNL     1      10.592  -5.291  24.953  0.00  0.00    -0.503 OA
ATOM     21  H   UNL     1      10.890  -4.967  24.079  0.00  0.00    +0.292 HD
ENDBRANCH  15  20
ENDBRANCH  11  12
BRANCH  10  22
ATOM     22  O   UNL     1       2.686   1.404  27.300  0.00  0.00    -0.506 OA
ATOM     23  H   UNL     1       2.732   0.999  28.183  0.00  0.00    +0.292 HD
ENDBRANCH  10  22
BRANCH   7  24
ATOM     24  O   UNL     1       5.958   3.771  24.594  0.00  0.00    -0.461 OA
BRANCH  24  25
ATOM     25  C   UNL     1       7.286   3.631  24.063  0.00  0.00    +0.339 C 
ATOM     26  O   UNL     1       8.244   4.423  24.774  0.00  0.00    -0.331 OA
ATOM     27  C   UNL     1       8.030   5.837  24.625  0.00  0.00    +0.179 C 
ATOM     28  C   UNL     1       8.184   6.289  23.158  0.00  0.00    +0.177 C 
ATOM     29  C   UNL     1       7.325   5.439  22.213  0.00  0.00    +0.180 C 
ATOM     30  C   UNL     1       7.385   3.940  22.544  0.00  0.00    +0.214 C 
BRANCH  30  31
ATOM     31  O   UNL     1       6.399   3.242  21.770  0.00  0.00    -0.383 OA
ATOM     32  H   UNL     1       6.888   2.536  21.304  0.00  0.00    +0.210 HD
ENDBRANCH  30  31
BRANCH  29  33
ATOM     33  O   UNL     1       5.948   5.844  22.213  0.00  0.00    -0.386 OA
ATOM     34  H   UNL     1       5.429   5.221  22.751  0.00  0.00    +0.210 HD
ENDBRANCH  29  33
BRANCH  28  35
ATOM     35  O   UNL     1       9.554   6.209  22.755  0.00  0.00    -0.386 OA
ATOM     36  H   UNL     1       9.612   6.449  21.813  0.00  0.00    +0.210 HD
ENDBRANCH  28  35
BRANCH  27  37
ATOM     37  C   UNL     1       9.043   6.565  25.530  0.00  0.00    +0.190 C 
BRANCH  37  38
ATOM     38  O   UNL     1       8.897   6.214  26.907  0.00  0.00    -0.392 OA
ATOM     39  H   UNL     1       9.777   6.175  27.312  0.00  0.00    +0.210 HD
ENDBRANCH  37  38
ENDBRANCH  27  37
ENDBRANCH  24  25
ENDBRANCH   7  24
BRANCH   1  40
ATOM     40  O   UNL     1       5.043  -3.122  27.937  0.00  0.00    -0.453 OA
BRANCH  40  46
ATOM     41  C   UNL     1       4.812  -5.193  26.609  0.00  0.00    +0.221 C 
ATOM     42  C   UNL     1       5.081  -6.233  27.719  0.00  0.00    +0.180 C 
ATOM     43  C   UNL     1       3.864  -6.442  28.635  0.00  0.00    +0.177 C 
ATOM     44  C   UNL     1       3.277  -5.117  29.136  0.00  0.00    +0.179 C 
ATOM     45  O   UNL     1       3.002  -4.239  28.026  0.00  0.00    -0.331 OA
ATOM     46  C   UNL     1       4.131  -3.930  27.211  0.00  0.00    +0.340 C 
BRANCH  43  47
ATOM     47  O   UNL     1       2.837  -7.152  27.926  0.00  0.00    -0.386 OA
ATOM     48  H   UNL     1       2.763  -6.756  27.036  0.00  0.00    +0.210 HD
ENDBRANCH  43  47
BRANCH  42  49
ATOM     49  O   UNL     1       6.212  -5.873  28.526  0.00  0.00    -0.386 OA
ATOM     50  H   UNL     1       5.937  -5.339  29.299  0.00  0.00    +0.210 HD
ENDBRANCH  42  49
BRANCH  44  51
ATOM     51  C   UNL     1       4.096  -4.435  30.251  0.00  0.00    +0.190 C 
BRANCH  51  52
ATOM     52  O   UNL     1       3.582  -3.120  30.485  0.00  0.00    -0.392 OA
ATOM     53  H   UNL     1       2.873  -3.234  31.143  0.00  0.00    +0.210 HD
ENDBRANCH  51  52
ENDBRANCH  44  51
BRANCH  41  54
ATOM     54  O   UNL     1       4.047  -5.795  25.527  0.00  0.00    -0.337 OA
BRANCH  54  57
ATOM     55  C   UNL     1       5.740  -6.201  22.367  0.00  0.00    +0.197 C 
ATOM     56  O   UNL     1       5.569  -6.272  23.786  0.00  0.00    -0.346 OA
ATOM     57  C   UNL     1       4.472  -5.443  24.198  0.00  0.00    +0.282 C 
ATOM     58  C   UNL     1       4.887  -3.964  23.996  0.00  0.00    +0.201 C 
ATOM     59  C   UNL     1       5.158  -3.744  22.497  0.00  0.00    +0.178 C 
ATOM     60  C   UNL     1       6.105  -4.789  21.899  0.00  0.00    +0.171 C 
BRANCH  60  61
ATOM     61  O   UNL     1       6.010  -4.726  20.477  0.00  0.00    -0.387 OA
ATOM     62  H   UNL     1       6.356  -5.561  20.108  0.00  0.00    +0.210 HD
ENDBRANCH  60  61
BRANCH  59  63
ATOM     63  O   UNL     1       5.624  -2.404  22.250  0.00  0.00    -0.386 OA
ATOM     64  H   UNL     1       4.959  -1.785  22.572  0.00  0.00    +0.210 HD
ENDBRANCH  59  63
BRANCH  58  65
ATOM     65  O   UNL     1       3.888  -3.029  24.419  0.00  0.00    -0.384 OA
ATOM     66  H   UNL     1       3.085  -3.507  24.685  0.00  0.00    +0.210 HD
ENDBRANCH  58  65
ENDBRANCH  54  57
ENDBRANCH  41  54
ENDBRANCH  40  46
ENDBRANCH   1  40
TORSDOF 22
ENDMDL
MODEL 5
REMARK VINA RESULT:      -6.7      2.215      5.237
REMARK  Name = 
REMARK  22 active torsions:
REMARK  status: ('A' for Active; 'I' for Inactive)
REMARK    1  A    between atoms: C_2  and  O_61
REMARK    2  A    between atoms: C_4  and  O_60
REMARK    3  A    between atoms: C_5  and  O_59
REMARK    4  A    between atoms: C_7  and  O_10
REMARK    5  A    between atoms: O_10  and  C_11
REMARK    6  A    between atoms: C_12  and  O_23
REMARK    7  A    between atoms: C_15  and  C_21
REMARK    8  A    between atoms: C_16  and  O_20
REMARK    9  A    between atoms: C_18  and  O_19
REMARK   10  A    between atoms: C_21  and  O_22
REMARK   11  A    between atoms: O_23  and  C_24
REMARK   12  A    between atoms: C_25  and  C_51
REMARK   13  A    between atoms: C_29  and  O_36
REMARK   14  A    between atoms: C_31  and  O_35
REMARK   15  A    between atoms: O_36  and  C_37
REMARK   16  A    between atoms: C_39  and  O_50
REMARK   17  A    between atoms: C_40  and  O_49
REMARK   18  A    between atoms: C_42  and  O_48
REMARK   19  A    between atoms: C_44  and  C_46
REMARK   20  A    between atoms: C_46  and  O_47
REMARK   21  A    between atoms: C_53  and  O_58
REMARK   22  A    between atoms: C_54  and  O_57
REMARK                            x       y       z     vdW  Elec       q    Type
REMARK                         _______ _______ _______ _____ _____    ______ ____
ROOT
ATOM      1  C   UNL     1       8.027   1.522  24.927  0.00  0.00    +0.214 A 
ATOM      2  C   UNL     1       8.575   0.590  23.887  0.00  0.00    +0.238 A 
ATOM      3  O   UNL     1       9.426   0.994  23.102  0.00  0.00    -0.283 OA
ATOM      4  C   UNL     1       8.023  -0.791  23.880  0.00  0.00    +0.109 A 
ATOM      5  C   UNL     1       7.331  -1.206  25.009  0.00  0.00    +0.147 A 
ATOM      6  C   UNL     1       6.827  -2.503  25.103  0.00  0.00    +0.093 A 
ATOM      7  C   UNL     1       6.880  -3.361  24.007  0.00  0.00    +0.131 A 
ATOM      8  C   UNL     1       7.565  -2.944  22.858  0.00  0.00    +0.092 A 
ATOM      9  O   UNL     1       7.059  -0.375  26.055  0.00  0.00    -0.451 OA
ATOM     10  C   UNL     1       8.155  -1.674  22.804  0.00  0.00    +0.135 A 
ATOM     11  C   UNL     1       7.228   0.990  25.882  0.00  0.00    +0.181 A 
ENDROOT
BRANCH  11  12
ATOM     12  C   UNL     1       6.408   1.713  26.878  0.00  0.00    +0.025 A 
ATOM     13  C   UNL     1       6.996   2.733  27.646  0.00  0.00    +0.015 A 
ATOM     14  C   UNL     1       6.301   3.354  28.683  0.00  0.00    +0.050 A 
ATOM     15  C   UNL     1       5.028   2.914  28.994  0.00  0.00    +0.158 A 
ATOM     16  C   UNL     1       4.430   1.894  28.258  0.00  0.00    +0.159 A 
ATOM     17  C   UNL     1       5.101   1.299  27.190  0.00  0.00    +0.060 A 
BRANCH  16  18
ATOM     18  O   UNL     1       3.186   1.487  28.657  0.00  0.00    -0.503 OA
ATOM     19  H   UNL     1       3.234   0.560  28.945  0.00  0.00    +0.292 HD
ENDBRANCH  16  18
BRANCH  15  20
ATOM     20  O   UNL     1       4.383   3.468  30.062  0.00  0.00    -0.503 OA
ATOM     21  H   UNL     1       4.445   2.797  30.770  0.00  0.00    +0.292 HD
ENDBRANCH  15  20
ENDBRANCH  11  12
BRANCH  10  22
ATOM     22  O   UNL     1       8.815  -1.292  21.672  0.00  0.00    -0.506 OA
ATOM     23  H   UNL     1       8.267  -0.686  21.147  0.00  0.00    +0.292 HD
ENDBRANCH  10  22
BRANCH   7  24
ATOM     24  O   UNL     1       6.199  -4.547  24.161  0.00  0.00    -0.461 OA
BRANCH  24  25
ATOM     25  C   UNL     1       4.945  -4.460  24.858  0.00  0.00    +0.339 C 
ATOM     26  O   UNL     1       5.069  -4.789  26.246  0.00  0.00    -0.331 OA
ATOM     27  C   UNL     1       5.421  -6.165  26.471  0.00  0.00    +0.179 C 
ATOM     28  C   UNL     1       4.332  -7.127  25.954  0.00  0.00    +0.177 C 
ATOM     29  C   UNL     1       3.958  -6.823  24.497  0.00  0.00    +0.180 C 
ATOM     30  C   UNL     1       3.818  -5.319  24.222  0.00  0.00    +0.214 C 
BRANCH  30  31
ATOM     31  O   UNL     1       3.686  -5.103  22.809  0.00  0.00    -0.383 OA
ATOM     32  H   UNL     1       4.559  -5.328  22.431  0.00  0.00    +0.210 HD
ENDBRANCH  30  31
BRANCH  29  33
ATOM     33  O   UNL     1       4.906  -7.364  23.565  0.00  0.00    -0.386 OA
ATOM     34  H   UNL     1       4.539  -8.170  23.164  0.00  0.00    +0.210 HD
ENDBRANCH  29  33
BRANCH  28  35
ATOM     35  O   UNL     1       3.163  -7.040  26.772  0.00  0.00    -0.386 OA
ATOM     36  H   UNL     1       2.959  -6.098  26.919  0.00  0.00    +0.210 HD
ENDBRANCH  28  35
BRANCH  27  37
ATOM     37  C   UNL     1       5.641  -6.353  27.985  0.00  0.00    +0.190 C 
BRANCH  37  38
ATOM     38  O   UNL     1       5.421  -7.701  28.406  0.00  0.00    -0.392 OA
ATOM     39  H   UNL     1       5.674  -8.297  27.683  0.00  0.00    +0.210 HD
ENDBRANCH  37  38
ENDBRANCH  27  37
ENDBRANCH  24  25
ENDBRANCH   7  24
BRANCH   1  40
ATOM     40  O   UNL     1       8.395   2.828  24.720  0.00  0.00    -0.453 OA
BRANCH  40  46
ATOM     41  C   UNL     1       6.875   4.775  24.620  0.00  0.00    +0.221 C 
ATOM     42  C   UNL     1       7.855   5.880  25.072  0.00  0.00    +0.180 C 
ATOM     43  C   UNL     1       8.812   6.312  23.949  0.00  0.00    +0.177 C 
ATOM     44  C   UNL     1       9.480   5.115  23.260  0.00  0.00    +0.179 C 
ATOM     45  O   UNL     1       8.483   4.170  22.820  0.00  0.00    -0.331 OA
ATOM     46  C   UNL     1       7.642   3.660  23.852  0.00  0.00    +0.340 C 
BRANCH  43  47
ATOM     47  O   UNL     1       8.093   7.060  22.957  0.00  0.00    -0.386 OA
ATOM     48  H   UNL     1       8.261   6.641  22.090  0.00  0.00    +0.210 HD
ENDBRANCH  43  47
BRANCH  42  49
ATOM     49  O   UNL     1       8.630   5.475  26.210  0.00  0.00    -0.386 OA
ATOM     50  H   UNL     1       8.085   4.971  26.847  0.00  0.00    +0.210 HD
ENDBRANCH  42  49
BRANCH  44  51
ATOM     51  C   UNL     1      10.611   4.456  24.076  0.00  0.00    +0.190 C 
BRANCH  51  52
ATOM     52  O   UNL     1      11.087   3.298  23.382  0.00  0.00    -0.392 OA
ATOM     53  H   UNL     1      11.725   3.634  22.727  0.00  0.00    +0.210 HD
ENDBRANCH  51  52
ENDBRANCH  44  51
BRANCH  41  54
ATOM     54  O   UNL     1       5.783   5.352  23.852  0.00  0.00    -0.337 OA
BRANCH  54  57
ATOM     55  C   UNL     1       3.115   4.219  26.003  0.00  0.00    +0.197 C 
ATOM     56  O   UNL     1       4.458   4.334  25.522  0.00  0.00    -0.346 OA
ATOM     57  C   UNL     1       4.468   4.875  24.192  0.00  0.00    +0.282 C 
ATOM     58  C   UNL     1       3.873   3.809  23.238  0.00  0.00    +0.201 C 
ATOM     59  C   UNL     1       2.421   3.538  23.669  0.00  0.00    +0.178 C 
ATOM     60  C   UNL     1       2.284   3.242  25.166  0.00  0.00    +0.171 C 
BRANCH  60  61
ATOM     61  O   UNL     1       0.910   3.364  25.529  0.00  0.00    -0.387 OA
ATOM     62  H   UNL     1       0.366   3.196  24.737  0.00  0.00    +0.210 HD
ENDBRANCH  60  61
BRANCH  59  63
ATOM     63  O   UNL     1       1.832   2.497  22.868  0.00  0.00    -0.386 OA
ATOM     64  H   UNL     1       2.513   1.848  22.661  0.00  0.00    +0.210 HD
ENDBRANCH  59  63
BRANCH  58  65
ATOM     65  O   UNL     1       3.872   4.212  21.864  0.00  0.00    -0.384 OA
ATOM     66  H   UNL     1       3.361   3.574  21.337  0.00  0.00    +0.210 HD
ENDBRANCH  58  65
ENDBRANCH  54  57
ENDBRANCH  41  54
ENDBRANCH  40  46
ENDBRANCH   1  40
TORSDOF 22
ENDMDL
MODEL 6
REMARK VINA RESULT:      -6.6      1.419      2.289
REMARK  Name = 
REMARK  22 active torsions:
REMARK  status: ('A' for Active; 'I' for Inactive)
REMARK    1  A    between atoms: C_2  and  O_61
REMARK    2  A    between atoms: C_4  and  O_60
REMARK    3  A    between atoms: C_5  and  O_59
REMARK    4  A    between atoms: C_7  and  O_10
REMARK    5  A    between atoms: O_10  and  C_11
REMARK    6  A    between atoms: C_12  and  O_23
REMARK    7  A    between atoms: C_15  and  C_21
REMARK    8  A    between atoms: C_16  and  O_20
REMARK    9  A    between atoms: C_18  and  O_19
REMARK   10  A    between atoms: C_21  and  O_22
REMARK   11  A    between atoms: O_23  and  C_24
REMARK   12  A    between atoms: C_25  and  C_51
REMARK   13  A    between atoms: C_29  and  O_36
REMARK   14  A    between atoms: C_31  and  O_35
REMARK   15  A    between atoms: O_36  and  C_37
REMARK   16  A    between atoms: C_39  and  O_50
REMARK   17  A    between atoms: C_40  and  O_49
REMARK   18  A    between atoms: C_42  and  O_48
REMARK   19  A    between atoms: C_44  and  C_46
REMARK   20  A    between atoms: C_46  and  O_47
REMARK   21  A    between atoms: C_53  and  O_58
REMARK   22  A    between atoms: C_54  and  O_57
REMARK                            x       y       z     vdW  Elec       q    Type
REMARK                         _______ _______ _______ _____ _____    ______ ____
ROOT
ATOM      1  C   UNL     1       6.360   0.632  26.766  0.00  0.00    +0.214 A 
ATOM      2  C   UNL     1       5.411  -0.378  27.341  0.00  0.00    +0.238 A 
ATOM      3  O   UNL     1       4.939  -0.195  28.458  0.00  0.00    -0.283 OA
ATOM      4  C   UNL     1       5.114  -1.563  26.494  0.00  0.00    +0.109 A 
ATOM      5  C   UNL     1       5.440  -1.483  25.148  0.00  0.00    +0.147 A 
ATOM      6  C   UNL     1       5.146  -2.531  24.276  0.00  0.00    +0.093 A 
ATOM      7  C   UNL     1       4.653  -3.738  24.767  0.00  0.00    +0.131 A 
ATOM      8  C   UNL     1       4.334  -3.832  26.127  0.00  0.00    +0.092 A 
ATOM      9  O   UNL     1       6.103  -0.419  24.612  0.00  0.00    -0.451 OA
ATOM     10  C   UNL     1       4.540  -2.742  26.983  0.00  0.00    +0.135 A 
ATOM     11  C   UNL     1       6.715   0.484  25.467  0.00  0.00    +0.181 A 
ENDROOT
BRANCH  11  12
ATOM     12  C   UNL     1       7.777   1.207  24.734  0.00  0.00    +0.025 A 
ATOM     13  C   UNL     1       9.125   0.922  25.014  0.00  0.00    +0.015 A 
ATOM     14  C   UNL     1      10.158   1.666  24.444  0.00  0.00    +0.050 A 
ATOM     15  C   UNL     1       9.842   2.740  23.633  0.00  0.00    +0.158 A 
ATOM     16  C   UNL     1       8.513   3.051  23.354  0.00  0.00    +0.159 A 
ATOM     17  C   UNL     1       7.476   2.284  23.883  0.00  0.00    +0.060 A 
BRANCH  16  18
ATOM     18  O   UNL     1       8.284   4.155  22.577  0.00  0.00    -0.503 OA
ATOM     19  H   UNL     1       8.616   4.941  23.042  0.00  0.00    +0.292 HD
ENDBRANCH  16  18
BRANCH  15  20
ATOM     20  O   UNL     1      10.853   3.514  23.144  0.00  0.00    -0.503 OA
ATOM     21  H   UNL     1      11.584   2.890  22.965  0.00  0.00    +0.292 HD
ENDBRANCH  15  20
ENDBRANCH  11  12
BRANCH  10  22
ATOM     22  O   UNL     1       4.222  -2.860  28.305  0.00  0.00    -0.506 OA
ATOM     23  H   UNL     1       3.948  -2.001  28.667  0.00  0.00    +0.292 HD
ENDBRANCH  10  22
BRANCH   7  24
ATOM     24  O   UNL     1       4.567  -4.752  23.840  0.00  0.00    -0.461 OA
BRANCH  24  25
ATOM     25  C   UNL     1       5.428  -5.880  24.068  0.00  0.00    +0.339 C 
ATOM     26  O   UNL     1       6.298  -5.685  25.189  0.00  0.00    -0.331 OA
ATOM     27  C   UNL     1       7.259  -4.636  24.981  0.00  0.00    +0.179 C 
ATOM     28  C   UNL     1       8.216  -4.957  23.815  0.00  0.00    +0.177 C 
ATOM     29  C   UNL     1       7.447  -5.341  22.544  0.00  0.00    +0.180 C 
ATOM     30  C   UNL     1       6.268  -6.284  22.827  0.00  0.00    +0.214 C 
BRANCH  30  31
ATOM     31  O   UNL     1       5.473  -6.421  21.639  0.00  0.00    -0.383 OA
ATOM     32  H   UNL     1       4.919  -5.617  21.605  0.00  0.00    +0.210 HD
ENDBRANCH  30  31
BRANCH  29  33
ATOM     33  O   UNL     1       6.946  -4.195  21.841  0.00  0.00    -0.386 OA
ATOM     34  H   UNL     1       6.178  -3.834  22.318  0.00  0.00    +0.210 HD
ENDBRANCH  29  33
BRANCH  28  35
ATOM     35  O   UNL     1       9.097  -6.024  24.176  0.00  0.00    -0.386 OA
ATOM     36  H   UNL     1       9.993  -5.659  24.292  0.00  0.00    +0.210 HD
ENDBRANCH  28  35
BRANCH  27  37
ATOM     37  C   UNL     1       8.043  -4.447  26.295  0.00  0.00    +0.190 C 
BRANCH  37  38
ATOM     38  O   UNL     1       8.265  -5.682  26.980  0.00  0.00    -0.392 OA
ATOM     39  H   UNL     1       7.457  -6.215  26.928  0.00  0.00    +0.210 HD
ENDBRANCH  37  38
ENDBRANCH  27  37
ENDBRANCH  24  25
ENDBRANCH   7  24
BRANCH   1  40
ATOM     40  O   UNL     1       6.775   1.560  27.687  0.00  0.00    -0.453 OA
BRANCH  40  46
ATOM     41  C   UNL     1       5.132   3.391  27.437  0.00  0.00    +0.221 C 
ATOM     42  C   UNL     1       4.601   3.449  28.886  0.00  0.00    +0.180 C 
ATOM     43  C   UNL     1       5.568   4.172  29.838  0.00  0.00    +0.177 C 
ATOM     44  C   UNL     1       7.007   3.656  29.710  0.00  0.00    +0.179 C 
ATOM     45  O   UNL     1       7.434   3.698  28.333  0.00  0.00    -0.331 OA
ATOM     46  C   UNL     1       6.624   2.948  27.430  0.00  0.00    +0.340 C 
BRANCH  43  47
ATOM     47  O   UNL     1       5.567   5.580  29.556  0.00  0.00    -0.386 OA
ATOM     48  H   UNL     1       6.056   6.027  30.274  0.00  0.00    +0.210 HD
ENDBRANCH  43  47
BRANCH  42  49
ATOM     49  O   UNL     1       4.329   2.140  29.409  0.00  0.00    -0.386 OA
ATOM     50  H   UNL     1       4.418   1.457  28.714  0.00  0.00    +0.210 HD
ENDBRANCH  42  49
BRANCH  44  51
ATOM     51  C   UNL     1       7.256   2.286  30.374  0.00  0.00    +0.190 C 
BRANCH  51  52
ATOM     52  O   UNL     1       8.601   1.870  30.117  0.00  0.00    -0.392 OA
ATOM     53  H   UNL     1       9.013   1.770  30.994  0.00  0.00    +0.210 HD
ENDBRANCH  51  52
ENDBRANCH  44  51
BRANCH  41  54
ATOM     54  O   UNL     1       4.910   4.662  26.766  0.00  0.00    -0.337 OA
BRANCH  54  57
ATOM     55  C   UNL     1       3.603   3.128  23.773  0.00  0.00    +0.197 C 
ATOM     56  O   UNL     1       4.333   3.202  25.001  0.00  0.00    -0.346 OA
ATOM     57  C   UNL     1       4.536   4.572  25.379  0.00  0.00    +0.282 C 
ATOM     58  C   UNL     1       5.531   5.204  24.373  0.00  0.00    +0.201 C 
ATOM     59  C   UNL     1       4.895   5.148  22.973  0.00  0.00    +0.178 C 
ATOM     60  C   UNL     1       4.370   3.756  22.606  0.00  0.00    +0.171 C 
BRANCH  60  61
ATOM     61  O   UNL     1       3.498   3.881  21.483  0.00  0.00    -0.387 OA
ATOM     62  H   UNL     1       3.022   3.037  21.368  0.00  0.00    +0.210 HD
ENDBRANCH  60  61
BRANCH  59  63
ATOM     63  O   UNL     1       5.802   5.652  21.975  0.00  0.00    -0.386 OA
ATOM     64  H   UNL     1       6.527   6.103  22.421  0.00  0.00    +0.210 HD
ENDBRANCH  59  63
BRANCH  58  65
ATOM     65  O   UNL     1       5.855   6.566  24.671  0.00  0.00    -0.384 OA
ATOM     66  H   UNL     1       5.998   6.666  25.628  0.00  0.00    +0.210 HD
ENDBRANCH  58  65
ENDBRANCH  54  57
ENDBRANCH  41  54
ENDBRANCH  40  46
ENDBRANCH   1  40
TORSDOF 22
ENDMDL
MODEL 7
REMARK VINA RESULT:      -6.6      2.018      9.002
REMARK  Name = 
REMARK  22 active torsions:
REMARK  status: ('A' for Active; 'I' for Inactive)
REMARK    1  A    between atoms: C_2  and  O_61
REMARK    2  A    between atoms: C_4  and  O_60
REMARK    3  A    between atoms: C_5  and  O_59
REMARK    4  A    between atoms: C_7  and  O_10
REMARK    5  A    between atoms: O_10  and  C_11
REMARK    6  A    between atoms: C_12  and  O_23
REMARK    7  A    between atoms: C_15  and  C_21
REMARK    8  A    between atoms: C_16  and  O_20
REMARK    9  A    between atoms: C_18  and  O_19
REMARK   10  A    between atoms: C_21  and  O_22
REMARK   11  A    between atoms: O_23  and  C_24
REMARK   12  A    between atoms: C_25  and  C_51
REMARK   13  A    between atoms: C_29  and  O_36
REMARK   14  A    between atoms: C_31  and  O_35
REMARK   15  A    between atoms: O_36  and  C_37
REMARK   16  A    between atoms: C_39  and  O_50
REMARK   17  A    between atoms: C_40  and  O_49
REMARK   18  A    between atoms: C_42  and  O_48
REMARK   19  A    between atoms: C_44  and  C_46
REMARK   20  A    between atoms: C_46  and  O_47
REMARK   21  A    between atoms: C_53  and  O_58
REMARK   22  A    between atoms: C_54  and  O_57
REMARK                            x       y       z     vdW  Elec       q    Type
REMARK                         _______ _______ _______ _____ _____    ______ ____
ROOT
ATOM      1  C   UNL     1       5.031  -1.933  27.486  0.00  0.00    +0.214 A 
ATOM      2  C   UNL     1       4.341  -0.658  27.869  0.00  0.00    +0.238 A 
ATOM      3  O   UNL     1       3.223  -0.703  28.371  0.00  0.00    -0.283 OA
ATOM      4  C   UNL     1       5.079   0.603  27.591  0.00  0.00    +0.109 A 
ATOM      5  C   UNL     1       6.440   0.502  27.338  0.00  0.00    +0.147 A 
ATOM      6  C   UNL     1       7.215   1.641  27.121  0.00  0.00    +0.093 A 
ATOM      7  C   UNL     1       6.612   2.892  27.008  0.00  0.00    +0.131 A 
ATOM      8  C   UNL     1       5.236   3.000  27.249  0.00  0.00    +0.092 A 
ATOM      9  O   UNL     1       7.084  -0.695  27.236  0.00  0.00    -0.451 OA
ATOM     10  C   UNL     1       4.477   1.865  27.563  0.00  0.00    +0.135 A 
ATOM     11  C   UNL     1       6.328  -1.849  27.103  0.00  0.00    +0.181 A 
ENDROOT
BRANCH  11  12
ATOM     12  C   UNL     1       7.158  -2.909  26.489  0.00  0.00    +0.025 A 
ATOM     13  C   UNL     1       7.133  -4.205  27.032  0.00  0.00    +0.015 A 
ATOM     14  C   UNL     1       7.992  -5.202  26.571  0.00  0.00    +0.050 A 
ATOM     15  C   UNL     1       8.923  -4.887  25.598  0.00  0.00    +0.158 A 
ATOM     16  C   UNL     1       8.976  -3.606  25.056  0.00  0.00    +0.159 A 
ATOM     17  C   UNL     1       8.091  -2.615  25.480  0.00  0.00    +0.060 A 
BRANCH  16  18
ATOM     18  O   UNL     1       9.954  -3.364  24.128  0.00  0.00    -0.503 OA
ATOM     19  H   UNL     1       9.898  -4.036  23.428  0.00  0.00    +0.292 HD
ENDBRANCH  16  18
BRANCH  15  20
ATOM     20  O   UNL     1       9.815  -5.843  25.207  0.00  0.00    -0.503 OA
ATOM     21  H   UNL     1      10.495  -5.855  25.910  0.00  0.00    +0.292 HD
ENDBRANCH  15  20
ENDBRANCH  11  12
BRANCH  10  22
ATOM     22  O   UNL     1       3.138   1.998  27.791  0.00  0.00    -0.506 OA
ATOM     23  H   UNL     1       2.726   1.126  27.912  0.00  0.00    +0.292 HD
ENDBRANCH  10  22
BRANCH   7  24
ATOM     24  O   UNL     1       7.452   3.911  26.622  0.00  0.00    -0.461 OA
BRANCH  24  25
ATOM     25  C   UNL     1       7.185   4.483  25.330  0.00  0.00    +0.339 C 
ATOM     26  O   UNL     1       7.888   3.810  24.280  0.00  0.00    -0.331 OA
ATOM     27  C   UNL     1       9.315   3.964  24.366  0.00  0.00    +0.179 C 
ATOM     28  C   UNL     1       9.743   5.438  24.219  0.00  0.00    +0.177 C 
ATOM     29  C   UNL     1       8.971   6.348  25.183  0.00  0.00    +0.180 C 
ATOM     30  C   UNL     1       7.475   6.007  25.252  0.00  0.00    +0.214 C 
BRANCH  30  31
ATOM     31  O   UNL     1       6.868   6.743  26.324  0.00  0.00    -0.383 OA
ATOM     32  H   UNL     1       6.515   7.555  25.911  0.00  0.00    +0.210 HD
ENDBRANCH  30  31
BRANCH  29  33
ATOM     33  O   UNL     1       9.503   6.308  26.515  0.00  0.00    -0.386 OA
ATOM     34  H   UNL     1       9.821   5.410  26.709  0.00  0.00    +0.210 HD
ENDBRANCH  29  33
BRANCH  28  35
ATOM     35  O   UNL     1       9.532   5.884  22.876  0.00  0.00    -0.386 OA
ATOM     36  H   UNL     1       9.338   5.108  22.320  0.00  0.00    +0.210 HD
ENDBRANCH  28  35
BRANCH  27  37
ATOM     37  C   UNL     1       9.951   3.098  23.261  0.00  0.00    +0.190 C 
BRANCH  37  38
ATOM     38  O   UNL     1       9.075   2.902  22.149  0.00  0.00    -0.392 OA
ATOM     39  H   UNL     1       8.758   1.985  22.161  0.00  0.00    +0.210 HD
ENDBRANCH  37  38
ENDBRANCH  27  37
ENDBRANCH  24  25
ENDBRANCH   7  24
BRANCH   1  40
ATOM     40  O   UNL     1       4.204  -3.026  27.541  0.00  0.00    -0.453 OA
BRANCH  40  46
ATOM     41  C   UNL     1       3.889  -4.740  25.787  0.00  0.00    +0.221 C 
ATOM     42  C   UNL     1       3.445  -5.924  26.673  0.00  0.00    +0.180 C 
ATOM     43  C   UNL     1       1.976  -5.811  27.112  0.00  0.00    +0.177 C 
ATOM     44  C   UNL     1       1.645  -4.429  27.689  0.00  0.00    +0.179 C 
ATOM     45  O   UNL     1       2.039  -3.393  26.766  0.00  0.00    -0.331 OA
ATOM     46  C   UNL     1       3.422  -3.396  26.416  0.00  0.00    +0.340 C 
BRANCH  43  47
ATOM     47  O   UNL     1       1.112  -6.050  25.990  0.00  0.00    -0.386 OA
ATOM     48  H   UNL     1       0.540  -6.811  26.213  0.00  0.00    +0.210 HD
ENDBRANCH  43  47
BRANCH  42  49
ATOM     49  O   UNL     1       4.268  -6.058  27.841  0.00  0.00    -0.386 OA
ATOM     50  H   UNL     1       4.115  -6.917  28.283  0.00  0.00    +0.210 HD
ENDBRANCH  42  49
BRANCH  44  51
ATOM     51  C   UNL     1       2.170  -4.190  29.119  0.00  0.00    +0.190 C 
BRANCH  51  52
ATOM     52  O   UNL     1       1.863  -2.852  29.523  0.00  0.00    -0.392 OA
ATOM     53  H   UNL     1       2.380  -2.703  30.335  0.00  0.00    +0.210 HD
ENDBRANCH  51  52
ENDBRANCH  44  51
BRANCH  41  54
ATOM     54  O   UNL     1       3.422  -4.925  24.422  0.00  0.00    -0.337 OA
BRANCH  54  57
ATOM     55  C   UNL     1       5.866  -6.660  22.411  0.00  0.00    +0.197 C 
ATOM     56  O   UNL     1       5.126  -6.334  23.592  0.00  0.00    -0.346 OA
ATOM     57  C   UNL     1       4.454  -5.076  23.430  0.00  0.00    +0.282 C 
ATOM     58  C   UNL     1       5.527  -3.960  23.403  0.00  0.00    +0.201 C 
ATOM     59  C   UNL     1       6.445  -4.209  22.194  0.00  0.00    +0.178 C 
ATOM     60  C   UNL     1       6.976  -5.644  22.128  0.00  0.00    +0.171 C 
BRANCH  60  61
ATOM     61  O   UNL     1       7.500  -5.875  20.820  0.00  0.00    -0.387 OA
ATOM     62  H   UNL     1       8.198  -6.554  20.884  0.00  0.00    +0.210 HD
ENDBRANCH  60  61
BRANCH  59  63
ATOM     63  O   UNL     1       7.516  -3.246  22.153  0.00  0.00    -0.386 OA
ATOM     64  H   UNL     1       7.141  -2.381  21.952  0.00  0.00    +0.210 HD
ENDBRANCH  59  63
BRANCH  58  65
ATOM     65  O   UNL     1       4.977  -2.642  23.293  0.00  0.00    -0.384 OA
ATOM     66  H   UNL     1       5.482  -2.131  22.638  0.00  0.00    +0.210 HD
ENDBRANCH  58  65
ENDBRANCH  54  57
ENDBRANCH  41  54
ENDBRANCH  40  46
ENDBRANCH   1  40
TORSDOF 22
ENDMDL
MODEL 8
REMARK VINA RESULT:      -6.5      2.578      5.361
REMARK  Name = 
REMARK  22 active torsions:
REMARK  status: ('A' for Active; 'I' for Inactive)
REMARK    1  A    between atoms: C_2  and  O_61
REMARK    2  A    between atoms: C_4  and  O_60
REMARK    3  A    between atoms: C_5  and  O_59
REMARK    4  A    between atoms: C_7  and  O_10
REMARK    5  A    between atoms: O_10  and  C_11
REMARK    6  A    between atoms: C_12  and  O_23
REMARK    7  A    between atoms: C_15  and  C_21
REMARK    8  A    between atoms: C_16  and  O_20
REMARK    9  A    between atoms: C_18  and  O_19
REMARK   10  A    between atoms: C_21  and  O_22
REMARK   11  A    between atoms: O_23  and  C_24
REMARK   12  A    between atoms: C_25  and  C_51
REMARK   13  A    between atoms: C_29  and  O_36
REMARK   14  A    between atoms: C_31  and  O_35
REMARK   15  A    between atoms: O_36  and  C_37
REMARK   16  A    between atoms: C_39  and  O_50
REMARK   17  A    between atoms: C_40  and  O_49
REMARK   18  A    between atoms: C_42  and  O_48
REMARK   19  A    between atoms: C_44  and  C_46
REMARK   20  A    between atoms: C_46  and  O_47
REMARK   21  A    between atoms: C_53  and  O_58
REMARK   22  A    between atoms: C_54  and  O_57
REMARK                            x       y       z     vdW  Elec       q    Type
REMARK                         _______ _______ _______ _____ _____    ______ ____
ROOT
ATOM      1  C   UNL     1       5.955   2.626  25.757  0.00  0.00    +0.214 A 
ATOM      2  C   UNL     1       6.844   1.623  26.430  0.00  0.00    +0.238 A 
ATOM      3  O   UNL     1       7.900   1.992  26.932  0.00  0.00    -0.283 OA
ATOM      4  C   UNL     1       6.370   0.213  26.428  0.00  0.00    +0.109 A 
ATOM      5  C   UNL     1       5.033  -0.009  26.131  0.00  0.00    +0.147 A 
ATOM      6  C   UNL     1       4.498  -1.297  26.159  0.00  0.00    +0.093 A 
ATOM      7  C   UNL     1       5.328  -2.401  26.342  0.00  0.00    +0.131 A 
ATOM      8  C   UNL     1       6.681  -2.185  26.629  0.00  0.00    +0.092 A 
ATOM      9  O   UNL     1       4.186   0.989  25.749  0.00  0.00    -0.451 OA
ATOM     10  C   UNL     1       7.196  -0.884  26.696  0.00  0.00    +0.135 A 
ATOM     11  C   UNL     1       4.723   2.211  25.376  0.00  0.00    +0.181 A 
ENDROOT
BRANCH  11  12
ATOM     12  C   UNL     1       3.752   2.931  24.523  0.00  0.00    +0.025 A 
ATOM     13  C   UNL     1       2.544   3.381  25.083  0.00  0.00    +0.015 A 
ATOM     14  C   UNL     1       1.545   3.948  24.293  0.00  0.00    +0.050 A 
ATOM     15  C   UNL     1       1.730   4.016  22.924  0.00  0.00    +0.158 A 
ATOM     16  C   UNL     1       2.912   3.562  22.345  0.00  0.00    +0.159 A 
ATOM     17  C   UNL     1       3.935   3.034  23.134  0.00  0.00    +0.060 A 
BRANCH  16  18
ATOM     18  O   UNL     1       2.999   3.624  20.981  0.00  0.00    -0.503 OA
ATOM     19  H   UNL     1       3.936   3.677  20.727  0.00  0.00    +0.292 HD
ENDBRANCH  16  18
BRANCH  15  20
ATOM     20  O   UNL     1       0.717   4.497  22.147  0.00  0.00    -0.503 OA
ATOM     21  H   UNL     1       0.618   5.433  22.414  0.00  0.00    +0.292 HD
ENDBRANCH  15  20
ENDBRANCH  11  12
BRANCH  10  22
ATOM     22  O   UNL     1       8.519  -0.702  26.975  0.00  0.00    -0.506 OA
ATOM     23  H   UNL     1       8.942  -0.167  26.283  0.00  0.00    +0.292 HD
ENDBRANCH  10  22
BRANCH   7  24
ATOM     24  O   UNL     1       4.717  -3.623  26.177  0.00  0.00    -0.461 OA
BRANCH  24  25
ATOM     25  C   UNL     1       3.954  -4.096  27.300  0.00  0.00    +0.339 C 
ATOM     26  O   UNL     1       4.786  -4.619  28.341  0.00  0.00    -0.331 OA
ATOM     27  C   UNL     1       5.489  -5.813  27.957  0.00  0.00    +0.179 C 
ATOM     28  C   UNL     1       4.521  -6.969  27.633  0.00  0.00    +0.177 C 
ATOM     29  C   UNL     1       3.448  -6.540  26.623  0.00  0.00    +0.180 C 
ATOM     30  C   UNL     1       2.876  -5.147  26.923  0.00  0.00    +0.214 C 
BRANCH  30  31
ATOM     31  O   UNL     1       2.050  -4.726  25.827  0.00  0.00    -0.383 OA
ATOM     32  H   UNL     1       2.621  -4.155  25.278  0.00  0.00    +0.210 HD
ENDBRANCH  30  31
BRANCH  29  33
ATOM     33  O   UNL     1       3.935  -6.545  25.273  0.00  0.00    -0.386 OA
ATOM     34  H   UNL     1       4.906  -6.486  25.280  0.00  0.00    +0.210 HD
ENDBRANCH  29  33
BRANCH  28  35
ATOM     35  O   UNL     1       3.888  -7.436  28.827  0.00  0.00    -0.386 OA
ATOM     36  H   UNL     1       4.577  -7.759  29.435  0.00  0.00    +0.210 HD
ENDBRANCH  28  35
BRANCH  27  37
ATOM     37  C   UNL     1       6.432  -6.199  29.113  0.00  0.00    +0.190 C 
BRANCH  37  38
ATOM     38  O   UNL     1       6.682  -7.605  29.169  0.00  0.00    -0.392 OA
ATOM     39  H   UNL     1       6.229  -8.030  28.424  0.00  0.00    +0.210 HD
ENDBRANCH  37  38
ENDBRANCH  27  37
ENDBRANCH  24  25
ENDBRANCH   7  24
BRANCH   1  40
ATOM     40  O   UNL     1       6.561   3.845  25.582  0.00  0.00    -0.453 OA
BRANCH  40  46
ATOM     41  C   UNL     1       8.123   3.615  23.680  0.00  0.00    +0.221 C 
ATOM     42  C   UNL     1       7.655   4.814  22.827  0.00  0.00    +0.180 C 
ATOM     43  C   UNL     1       8.180   6.156  23.360  0.00  0.00    +0.177 C 
ATOM     44  C   UNL     1       7.942   6.319  24.866  0.00  0.00    +0.179 C 
ATOM     45  O   UNL     1       8.467   5.182  25.583  0.00  0.00    -0.331 OA
ATOM     46  C   UNL     1       7.923   3.923  25.192  0.00  0.00    +0.340 C 
BRANCH  43  47
ATOM     47  O   UNL     1       9.591   6.260  23.113  0.00  0.00    -0.386 OA
ATOM     48  H   UNL     1       9.942   6.967  23.690  0.00  0.00    +0.210 HD
ENDBRANCH  43  47
BRANCH  42  49
ATOM     49  O   UNL     1       6.224   4.881  22.737  0.00  0.00    -0.386 OA
ATOM     50  H   UNL     1       5.802   4.459  23.513  0.00  0.00    +0.210 HD
ENDBRANCH  42  49
BRANCH  44  51
ATOM     51  C   UNL     1       6.485   6.649  25.251  0.00  0.00    +0.190 C 
BRANCH  51  52
ATOM     52  O   UNL     1       6.356   6.647  26.677  0.00  0.00    -0.392 OA
ATOM     53  H   UNL     1       5.548   6.136  26.862  0.00  0.00    +0.210 HD
ENDBRANCH  51  52
ENDBRANCH  44  51
BRANCH  41  54
ATOM     54  O   UNL     1       9.493   3.261  23.345  0.00  0.00    -0.337 OA
BRANCH  54  57
ATOM     55  C   UNL     1       9.270   0.377  21.186  0.00  0.00    +0.197 C 
ATOM     56  O   UNL     1       8.820   1.566  21.844  0.00  0.00    -0.346 OA
ATOM     57  C   UNL     1       9.696   1.897  22.932  0.00  0.00    +0.282 C 
ATOM     58  C   UNL     1       9.514   0.827  24.037  0.00  0.00    +0.201 C 
ATOM     59  C   UNL     1       9.917  -0.538  23.452  0.00  0.00    +0.178 C 
ATOM     60  C   UNL     1       9.239  -0.842  22.113  0.00  0.00    +0.171 C 
BRANCH  60  61
ATOM     61  O   UNL     1       9.931  -1.923  21.489  0.00  0.00    -0.387 OA
ATOM     62  H   UNL     1      10.620  -2.241  22.101  0.00  0.00    +0.210 HD
ENDBRANCH  60  61
BRANCH  59  63
ATOM     63  O   UNL     1       9.698  -1.593  24.408  0.00  0.00    -0.386 OA
ATOM     64  H   UNL     1      10.280  -2.328  24.190  0.00  0.00    +0.210 HD
ENDBRANCH  59  63
BRANCH  58  65
ATOM     65  O   UNL     1      10.304   1.073  25.205  0.00  0.00    -0.384 OA
ATOM     66  H   UNL     1       9.805   0.812  25.998  0.00  0.00    +0.210 HD
ENDBRANCH  58  65
ENDBRANCH  54  57
ENDBRANCH  41  54
ENDBRANCH  40  46
ENDBRANCH   1  40
TORSDOF 22
ENDMDL
MODEL 9
REMARK VINA RESULT:      -6.4      2.413      5.781
REMARK  Name = 
REMARK  22 active torsions:
REMARK  status: ('A' for Active; 'I' for Inactive)
REMARK    1  A    between atoms: C_2  and  O_61
REMARK    2  A    between atoms: C_4  and  O_60
REMARK    3  A    between atoms: C_5  and  O_59
REMARK    4  A    between atoms: C_7  and  O_10
REMARK    5  A    between atoms: O_10  and  C_11
REMARK    6  A    between atoms: C_12  and  O_23
REMARK    7  A    between atoms: C_15  and  C_21
REMARK    8  A    between atoms: C_16  and  O_20
REMARK    9  A    between atoms: C_18  and  O_19
REMARK   10  A    between atoms: C_21  and  O_22
REMARK   11  A    between atoms: O_23  and  C_24
REMARK   12  A    between atoms: C_25  and  C_51
REMARK   13  A    between atoms: C_29  and  O_36
REMARK   14  A    between atoms: C_31  and  O_35
REMARK   15  A    between atoms: O_36  and  C_37
REMARK   16  A    between atoms: C_39  and  O_50
REMARK   17  A    between atoms: C_40  and  O_49
REMARK   18  A    between atoms: C_42  and  O_48
REMARK   19  A    between atoms: C_44  and  C_46
REMARK   20  A    between atoms: C_46  and  O_47
REMARK   21  A    between atoms: C_53  and  O_58
REMARK   22  A    between atoms: C_54  and  O_57
REMARK                            x       y       z     vdW  Elec       q    Type
REMARK                         _______ _______ _______ _____ _____    ______ ____
ROOT
ATOM      1  C   UNL     1       6.766  -0.796  25.263  0.00  0.00    +0.214 A 
ATOM      2  C   UNL     1       6.275  -0.115  26.506  0.00  0.00    +0.238 A 
ATOM      3  O   UNL     1       6.768   0.956  26.842  0.00  0.00    -0.283 OA
ATOM      4  C   UNL     1       5.204  -0.814  27.263  0.00  0.00    +0.109 A 
ATOM      5  C   UNL     1       4.516  -1.825  26.608  0.00  0.00    +0.147 A 
ATOM      6  C   UNL     1       3.462  -2.495  27.231  0.00  0.00    +0.093 A 
ATOM      7  C   UNL     1       3.176  -2.262  28.574  0.00  0.00    +0.131 A 
ATOM      8  C   UNL     1       3.875  -1.252  29.247  0.00  0.00    +0.092 A 
ATOM      9  O   UNL     1       4.852  -2.257  25.360  0.00  0.00    -0.451 OA
ATOM     10  C   UNL     1       4.868  -0.515  28.588  0.00  0.00    +0.135 A 
ATOM     11  C   UNL     1       6.076  -1.879  24.832  0.00  0.00    +0.181 A 
ENDROOT
BRANCH  11  12
ATOM     12  C   UNL     1       6.468  -2.836  23.773  0.00  0.00    +0.025 A 
ATOM     13  C   UNL     1       5.819  -2.788  22.527  0.00  0.00    +0.015 A 
ATOM     14  C   UNL     1       6.062  -3.748  21.545  0.00  0.00    +0.050 A 
ATOM     15  C   UNL     1       6.917  -4.797  21.830  0.00  0.00    +0.158 A 
ATOM     16  C   UNL     1       7.558  -4.874  23.064  0.00  0.00    +0.159 A 
ATOM     17  C   UNL     1       7.355  -3.893  24.035  0.00  0.00    +0.060 A 
BRANCH  16  18
ATOM     18  O   UNL     1       8.354  -5.966  23.283  0.00  0.00    -0.503 OA
ATOM     19  H   UNL     1       7.858  -6.769  23.051  0.00  0.00    +0.292 HD
ENDBRANCH  16  18
BRANCH  15  20
ATOM     20  O   UNL     1       7.088  -5.777  20.896  0.00  0.00    -0.503 OA
ATOM     21  H   UNL     1       6.184  -6.012  20.609  0.00  0.00    +0.292 HD
ENDBRANCH  15  20
ENDBRANCH  11  12
BRANCH  10  22
ATOM     22  O   UNL     1       5.536   0.463  29.267  0.00  0.00    -0.506 OA
ATOM     23  H   UNL     1       6.474   0.229  29.365  0.00  0.00    +0.292 HD
ENDBRANCH  10  22
BRANCH   7  24
ATOM     24  O   UNL     1       2.234  -3.103  29.123  0.00  0.00    -0.461 OA
BRANCH  24  25
ATOM     25  C   UNL     1       2.737  -4.087  30.042  0.00  0.00    +0.339 C 
ATOM     26  O   UNL     1       4.053  -4.533  29.696  0.00  0.00    -0.331 OA
ATOM     27  C   UNL     1       4.097  -5.258  28.456  0.00  0.00    +0.179 C 
ATOM     28  C   UNL     1       3.267  -6.556  28.522  0.00  0.00    +0.177 C 
ATOM     29  C   UNL     1       1.842  -6.289  29.023  0.00  0.00    +0.180 C 
ATOM     30  C   UNL     1       1.804  -5.316  30.211  0.00  0.00    +0.214 C 
BRANCH  30  31
ATOM     31  O   UNL     1       0.443  -4.947  30.480  0.00  0.00    -0.383 OA
ATOM     32  H   UNL     1       0.151  -5.541  31.199  0.00  0.00    +0.210 HD
ENDBRANCH  30  31
BRANCH  29  33
ATOM     33  O   UNL     1       0.987  -5.773  27.992  0.00  0.00    -0.386 OA
ATOM     34  H   UNL     1       0.685  -6.504  27.427  0.00  0.00    +0.210 HD
ENDBRANCH  29  33
BRANCH  28  35
ATOM     35  O   UNL     1       3.900  -7.508  29.380  0.00  0.00    -0.386 OA
ATOM     36  H   UNL     1       3.220  -8.116  29.722  0.00  0.00    +0.210 HD
ENDBRANCH  28  35
BRANCH  27  37
ATOM     37  C   UNL     1       5.574  -5.570  28.143  0.00  0.00    +0.190 C 
BRANCH  37  38
ATOM     38  O   UNL     1       6.351  -5.777  29.325  0.00  0.00    -0.392 OA
ATOM     39  H   UNL     1       6.496  -6.730  29.437  0.00  0.00    +0.210 HD
ENDBRANCH  37  38
ENDBRANCH  27  37
ENDBRANCH  24  25
ENDBRANCH   7  24
BRANCH   1  40
ATOM     40  O   UNL     1       7.908  -0.227  24.757  0.00  0.00    -0.453 OA
BRANCH  40  46
ATOM     41  C   UNL     1       8.977   1.969  24.378  0.00  0.00    +0.221 C 
ATOM     42  C   UNL     1      10.320   1.493  23.783  0.00  0.00    +0.180 C 
ATOM     43  C   UNL     1      10.195   1.071  22.310  0.00  0.00    +0.177 C 
ATOM     44  C   UNL     1       9.023   0.110  22.077  0.00  0.00    +0.179 C 
ATOM     45  O   UNL     1       7.804   0.668  22.610  0.00  0.00    -0.331 OA
ATOM     46  C   UNL     1       7.842   0.973  24.003  0.00  0.00    +0.340 C 
BRANCH  43  47
ATOM     47  O   UNL     1       9.998   2.231  21.486  0.00  0.00    -0.386 OA
ATOM     48  H   UNL     1      10.637   2.181  20.748  0.00  0.00    +0.210 HD
ENDBRANCH  43  47
BRANCH  42  49
ATOM     49  O   UNL     1      10.880   0.403  24.530  0.00  0.00    -0.386 OA
ATOM     50  H   UNL     1      10.936   0.621  25.483  0.00  0.00    +0.210 HD
ENDBRANCH  42  49
BRANCH  44  51
ATOM     51  C   UNL     1       9.277  -1.336  22.549  0.00  0.00    +0.190 C 
BRANCH  51  52
ATOM     52  O   UNL     1      10.443  -1.852  21.898  0.00  0.00    -0.392 OA
ATOM     53  H   UNL     1      10.950  -1.069  21.618  0.00  0.00    +0.210 HD
ENDBRANCH  51  52
ENDBRANCH  44  51
BRANCH  41  54
ATOM     54  O   UNL     1       8.697   3.336  23.965  0.00  0.00    -0.337 OA
BRANCH  54  57
ATOM     55  C   UNL     1       5.542   3.941  22.322  0.00  0.00    +0.197 C 
ATOM     56  O   UNL     1       6.962   3.980  22.499  0.00  0.00    -0.346 OA
ATOM     57  C   UNL     1       7.304   3.678  23.861  0.00  0.00    +0.282 C 
ATOM     58  C   UNL     1       6.834   4.859  24.746  0.00  0.00    +0.201 C 
ATOM     59  C   UNL     1       5.305   4.976  24.616  0.00  0.00    +0.178 C 
ATOM     60  C   UNL     1       4.826   5.002  23.161  0.00  0.00    +0.171 C 
BRANCH  60  61
ATOM     61  O   UNL     1       3.422   4.748  23.140  0.00  0.00    -0.387 OA
ATOM     62  H   UNL     1       3.268   3.845  23.477  0.00  0.00    +0.210 HD
ENDBRANCH  60  61
BRANCH  59  63
ATOM     63  O   UNL     1       4.810   6.107  25.357  0.00  0.00    -0.386 OA
ATOM     64  H   UNL     1       4.375   6.708  24.741  0.00  0.00    +0.210 HD
ENDBRANCH  59  63
BRANCH  58  65
ATOM     65  O   UNL     1       7.162   4.700  26.130  0.00  0.00    -0.384 OA
ATOM     66  H   UNL     1       7.142   3.756  26.364  0.00  0.00    +0.210 HD
ENDBRANCH  58  65
ENDBRANCH  54  57
ENDBRANCH  41  54
ENDBRANCH  40  46
ENDBRANCH   1  40
TORSDOF 22
ENDMDL
