MODEL 1
REMARK VINA RESULT:      -7.4      0.000      0.000
REMARK  Name = 
REMARK  16 active torsions:
REMARK  status: ('A' for Active; 'I' for Inactive)
REMARK    1  A    between atoms: C_2  and  O_42
REMARK    2  A    between atoms: C_3  and  O_41
REMARK    3  A    between atoms: C_4  and  O_40
REMARK    4  A    between atoms: C_6  and  O_7
REMARK    5  A    between atoms: O_7  and  C_8
REMARK    6  A    between atoms: C_9  and  C_32
REMARK    7  A    between atoms: C_13  and  O_20
REMARK    8  A    between atoms: C_15  and  O_19
REMARK    9  A    between atoms: O_20  and  C_21
REMARK   10  A    between atoms: C_22  and  O_31
REMARK   11  A    between atoms: C_23  and  O_30
REMARK   12  A    between atoms: C_24  and  O_29
REMARK   13  A    between atoms: C_25  and  C_27
REMARK   14  A    between atoms: C_27  and  O_28
REMARK   15  A    between atoms: C_34  and  O_39
REMARK   16  A    between atoms: C_35  and  O_38
REMARK                            x       y       z     vdW  Elec       q    Type
REMARK                         _______ _______ _______ _____ _____    ______ ____
ROOT
ATOM      1  C   UNL     1       9.170   2.202  24.060  0.00  0.00    +0.214 A 
ATOM      2  C   UNL     1       9.650   0.871  23.577  0.00  0.00    +0.238 A 
ATOM      3  O   UNL     1      10.847   0.639  23.465  0.00  0.00    -0.283 OA
ATOM      4  C   UNL     1       8.637  -0.165  23.332  0.00  0.00    +0.109 A 
ATOM      5  C   UNL     1       7.375   0.022  23.881  0.00  0.00    +0.147 A 
ATOM      6  C   UNL     1       6.426  -1.010  23.853  0.00  0.00    +0.093 A 
ATOM      7  C   UNL     1       6.728  -2.218  23.220  0.00  0.00    +0.131 A 
ATOM      8  C   UNL     1       7.978  -2.383  22.611  0.00  0.00    +0.092 A 
ATOM      9  O   UNL     1       6.998   1.203  24.463  0.00  0.00    -0.451 OA
ATOM     10  C   UNL     1       8.922  -1.357  22.659  0.00  0.00    +0.135 A 
ATOM     11  C   UNL     1       7.882   2.283  24.467  0.00  0.00    +0.181 A 
ENDROOT
BRANCH  11  12
ATOM     12  C   UNL     1       7.279   3.495  25.088  0.00  0.00    +0.025 A 
ATOM     13  C   UNL     1       7.391   3.698  26.480  0.00  0.00    +0.015 A 
ATOM     14  C   UNL     1       6.946   4.880  27.084  0.00  0.00    +0.050 A 
ATOM     15  C   UNL     1       6.397   5.877  26.296  0.00  0.00    +0.158 A 
ATOM     16  C   UNL     1       6.219   5.674  24.934  0.00  0.00    +0.159 A 
ATOM     17  C   UNL     1       6.600   4.469  24.343  0.00  0.00    +0.060 A 
BRANCH  16  18
ATOM     18  O   UNL     1       5.713   6.704  24.188  0.00  0.00    -0.503 OA
ATOM     19  H   UNL     1       5.618   7.474  24.783  0.00  0.00    +0.292 HD
ENDBRANCH  16  18
BRANCH  15  20
ATOM     20  O   UNL     1       6.067   7.071  26.865  0.00  0.00    -0.503 OA
ATOM     21  H   UNL     1       6.631   7.729  26.410  0.00  0.00    +0.292 HD
ENDBRANCH  15  20
ENDBRANCH  11  12
BRANCH  10  22
ATOM     22  O   UNL     1      10.113  -1.512  22.006  0.00  0.00    -0.506 OA
ATOM     23  H   UNL     1      10.234  -0.813  21.342  0.00  0.00    +0.292 HD
ENDBRANCH  10  22
BRANCH   7  24
ATOM     24  O   UNL     1       5.915  -3.316  23.173  0.00  0.00    -0.461 OA
BRANCH  24  25
ATOM     25  C   UNL     1       5.013  -3.548  24.267  0.00  0.00    +0.339 C 
ATOM     26  O   UNL     1       5.669  -3.604  25.539  0.00  0.00    -0.331 OA
ATOM     27  C   UNL     1       6.639  -4.664  25.666  0.00  0.00    +0.179 C 
ATOM     28  C   UNL     1       6.009  -6.041  25.377  0.00  0.00    +0.177 C 
ATOM     29  C   UNL     1       5.274  -6.030  24.028  0.00  0.00    +0.180 C 
ATOM     30  C   UNL     1       4.258  -4.875  24.007  0.00  0.00    +0.214 C 
BRANCH  29  31
ATOM     31  O   UNL     1       4.632  -7.295  23.829  0.00  0.00    -0.386 OA
ATOM     32  H   UNL     1       4.038  -7.193  23.064  0.00  0.00    +0.210 HD
ENDBRANCH  29  31
BRANCH  30  33
ATOM     33  O   UNL     1       3.520  -4.876  22.779  0.00  0.00    -0.383 OA
ATOM     34  H   UNL     1       2.570  -4.817  22.974  0.00  0.00    +0.210 HD
ENDBRANCH  30  33
BRANCH  28  35
ATOM     35  O   UNL     1       5.066  -6.421  26.399  0.00  0.00    -0.386 OA
ATOM     36  H   UNL     1       4.774  -5.619  26.870  0.00  0.00    +0.210 HD
ENDBRANCH  28  35
BRANCH  27  37
ATOM     37  C   UNL     1       7.212  -4.616  27.091  0.00  0.00    +0.190 C 
BRANCH  37  38
ATOM     38  O   UNL     1       7.842  -5.847  27.448  0.00  0.00    -0.392 OA
ATOM     39  H   UNL     1       8.461  -5.670  28.170  0.00  0.00    +0.210 HD
ENDBRANCH  37  38
ENDBRANCH  27  37
ENDBRANCH  24  25
ENDBRANCH   7  24
BRANCH   1  40
ATOM     40  O   UNL     1      10.082   3.243  24.218  0.00  0.00    -0.456 OA
BRANCH  40  42
ATOM     41  C   UNL     1      11.744   4.170  22.675  0.00  0.00    +0.109 C 
ATOM     42  C   UNL     1      10.268   4.095  23.072  0.00  0.00    +0.313 C 
ATOM     43  O   UNL     1       9.758   5.407  23.367  0.00  0.00    -0.310 OA
ATOM     44  C   UNL     1      10.488   6.129  24.347  0.00  0.00    +0.282 C 
ATOM     45  C   UNL     1      11.993   6.223  24.065  0.00  0.00    +0.199 C 
ATOM     46  C   UNL     1      12.572   4.844  23.754  0.00  0.00    +0.154 C 
BRANCH  46  47
ATOM     47  O   UNL     1      13.920   4.958  23.285  0.00  0.00    -0.389 OA
ATOM     48  H   UNL     1      14.496   4.501  23.926  0.00  0.00    +0.210 HD
ENDBRANCH  46  47
BRANCH  45  49
ATOM     49  O   UNL     1      12.704   6.792  25.172  0.00  0.00    -0.384 OA
ATOM     50  H   UNL     1      12.910   6.053  25.781  0.00  0.00    +0.210 HD
ENDBRANCH  45  49
BRANCH  44  51
ATOM     51  O   UNL     1      10.247   5.613  25.655  0.00  0.00    -0.365 OA
ATOM     52  H   UNL     1      10.514   4.674  25.625  0.00  0.00    +0.213 HD
ENDBRANCH  44  51
ENDBRANCH  40  42
ENDBRANCH   1  40
TORSDOF 16
ENDMDL
MODEL 2
REMARK VINA RESULT:      -7.3      1.450      1.590
REMARK  Name = 
REMARK  16 active torsions:
REMARK  status: ('A' for Active; 'I' for Inactive)
REMARK    1  A    between atoms: C_2  and  O_42
REMARK    2  A    between atoms: C_3  and  O_41
REMARK    3  A    between atoms: C_4  and  O_40
REMARK    4  A    between atoms: C_6  and  O_7
REMARK    5  A    between atoms: O_7  and  C_8
REMARK    6  A    between atoms: C_9  and  C_32
REMARK    7  A    between atoms: C_13  and  O_20
REMARK    8  A    between atoms: C_15  and  O_19
REMARK    9  A    between atoms: O_20  and  C_21
REMARK   10  A    between atoms: C_22  and  O_31
REMARK   11  A    between atoms: C_23  and  O_30
REMARK   12  A    between atoms: C_24  and  O_29
REMARK   13  A    between atoms: C_25  and  C_27
REMARK   14  A    between atoms: C_27  and  O_28
REMARK   15  A    between atoms: C_34  and  O_39
REMARK   16  A    between atoms: C_35  and  O_38
REMARK                            x       y       z     vdW  Elec       q    Type
REMARK                         _______ _______ _______ _____ _____    ______ ____
ROOT
ATOM      1  C   UNL     1       8.570   1.446  24.198  0.00  0.00    +0.214 A 
ATOM      2  C   UNL     1       9.228   0.104  24.226  0.00  0.00    +0.238 A 
ATOM      3  O   UNL     1      10.427  -0.001  24.454  0.00  0.00    -0.283 OA
ATOM      4  C   UNL     1       8.368  -1.075  24.060  0.00  0.00    +0.109 A 
ATOM      5  C   UNL     1       7.001  -0.910  24.238  0.00  0.00    +0.147 A 
ATOM      6  C   UNL     1       6.148  -2.022  24.288  0.00  0.00    +0.093 A 
ATOM      7  C   UNL     1       6.666  -3.305  24.101  0.00  0.00    +0.131 A 
ATOM      8  C   UNL     1       8.035  -3.468  23.858  0.00  0.00    +0.092 A 
ATOM      9  O   UNL     1       6.426   0.327  24.367  0.00  0.00    -0.451 OA
ATOM     10  C   UNL     1       8.879  -2.356  23.827  0.00  0.00    +0.135 A 
ATOM     11  C   UNL     1       7.218   1.470  24.268  0.00  0.00    +0.181 A 
ENDROOT
BRANCH  11  12
ATOM     12  C   UNL     1       6.412   2.718  24.375  0.00  0.00    +0.025 A 
ATOM     13  C   UNL     1       6.215   3.319  25.636  0.00  0.00    +0.015 A 
ATOM     14  C   UNL     1       5.569   4.554  25.764  0.00  0.00    +0.050 A 
ATOM     15  C   UNL     1       5.127   5.208  24.627  0.00  0.00    +0.158 A 
ATOM     16  C   UNL     1       5.253   4.607  23.382  0.00  0.00    +0.159 A 
ATOM     17  C   UNL     1       5.835   3.345  23.261  0.00  0.00    +0.060 A 
BRANCH  16  18
ATOM     18  O   UNL     1       4.842   5.309  22.282  0.00  0.00    -0.503 OA
ATOM     19  H   UNL     1       4.452   6.147  22.601  0.00  0.00    +0.292 HD
ENDBRANCH  16  18
BRANCH  15  20
ATOM     20  O   UNL     1       4.599   6.460  24.740  0.00  0.00    -0.503 OA
ATOM     21  H   UNL     1       5.372   7.060  24.709  0.00  0.00    +0.292 HD
ENDBRANCH  15  20
ENDBRANCH  11  12
BRANCH  10  22
ATOM     22  O   UNL     1      10.201  -2.528  23.527  0.00  0.00    -0.506 OA
ATOM     23  H   UNL     1      10.576  -1.714  23.151  0.00  0.00    +0.292 HD
ENDBRANCH  10  22
BRANCH   7  24
ATOM     24  O   UNL     1       5.954  -4.469  24.182  0.00  0.00    -0.461 OA
BRANCH  24  25
ATOM     25  C   UNL     1       4.719  -4.468  24.916  0.00  0.00    +0.339 C 
ATOM     26  O   UNL     1       4.887  -4.769  26.306  0.00  0.00    -0.331 OA
ATOM     27  C   UNL     1       5.440  -6.075  26.572  0.00  0.00    +0.179 C 
ATOM     28  C   UNL     1       4.591  -7.188  25.926  0.00  0.00    +0.177 C 
ATOM     29  C   UNL     1       4.364  -6.903  24.435  0.00  0.00    +0.180 C 
ATOM     30  C   UNL     1       3.761  -5.497  24.267  0.00  0.00    +0.214 C 
BRANCH  29  31
ATOM     31  O   UNL     1       3.505  -7.909  23.885  0.00  0.00    -0.386 OA
ATOM     32  H   UNL     1       3.021  -8.305  24.632  0.00  0.00    +0.210 HD
ENDBRANCH  29  31
BRANCH  30  33
ATOM     33  O   UNL     1       3.488  -5.227  22.887  0.00  0.00    -0.383 OA
ATOM     34  H   UNL     1       4.184  -4.652  22.528  0.00  0.00    +0.210 HD
ENDBRANCH  30  33
BRANCH  28  35
ATOM     35  O   UNL     1       3.303  -7.312  26.561  0.00  0.00    -0.386 OA
ATOM     36  H   UNL     1       3.334  -6.864  27.426  0.00  0.00    +0.210 HD
ENDBRANCH  28  35
BRANCH  27  37
ATOM     37  C   UNL     1       5.511  -6.259  28.096  0.00  0.00    +0.190 C 
BRANCH  37  38
ATOM     38  O   UNL     1       5.464  -7.639  28.463  0.00  0.00    -0.392 OA
ATOM     39  H   UNL     1       4.958  -8.113  27.788  0.00  0.00    +0.210 HD
ENDBRANCH  37  38
ENDBRANCH  27  37
ENDBRANCH  24  25
ENDBRANCH   7  24
BRANCH   1  40
ATOM     40  O   UNL     1       9.353   2.596  24.260  0.00  0.00    -0.456 OA
BRANCH  40  42
ATOM     41  C   UNL     1      11.050   3.503  22.743  0.00  0.00    +0.109 C 
ATOM     42  C   UNL     1       9.560   3.282  23.010  0.00  0.00    +0.313 C 
ATOM     43  O   UNL     1       8.861   4.538  23.036  0.00  0.00    -0.310 OA
ATOM     44  C   UNL     1       9.379   5.496  23.946  0.00  0.00    +0.282 C 
ATOM     45  C   UNL     1      10.884   5.757  23.792  0.00  0.00    +0.199 C 
ATOM     46  C   UNL     1      11.661   4.442  23.768  0.00  0.00    +0.154 C 
BRANCH  46  47
ATOM     47  O   UNL     1      13.029   4.673  23.413  0.00  0.00    -0.389 OA
ATOM     48  H   UNL     1      13.429   3.809  23.200  0.00  0.00    +0.210 HD
ENDBRANCH  46  47
BRANCH  45  49
ATOM     49  O   UNL     1      11.388   6.581  24.851  0.00  0.00    -0.384 OA
ATOM     50  H   UNL     1      10.822   7.379  24.879  0.00  0.00    +0.210 HD
ENDBRANCH  45  49
BRANCH  44  51
ATOM     51  O   UNL     1       9.058   5.155  25.293  0.00  0.00    -0.365 OA
ATOM     52  H   UNL     1       8.246   4.615  25.246  0.00  0.00    +0.213 HD
ENDBRANCH  44  51
ENDBRANCH  40  42
ENDBRANCH   1  40
TORSDOF 16
ENDMDL
MODEL 3
REMARK VINA RESULT:      -7.1      1.881     10.138
REMARK  Name = 
REMARK  16 active torsions:
REMARK  status: ('A' for Active; 'I' for Inactive)
REMARK    1  A    between atoms: C_2  and  O_42
REMARK    2  A    between atoms: C_3  and  O_41
REMARK    3  A    between atoms: C_4  and  O_40
REMARK    4  A    between atoms: C_6  and  O_7
REMARK    5  A    between atoms: O_7  and  C_8
REMARK    6  A    between atoms: C_9  and  C_32
REMARK    7  A    between atoms: C_13  and  O_20
REMARK    8  A    between atoms: C_15  and  O_19
REMARK    9  A    between atoms: O_20  and  C_21
REMARK   10  A    between atoms: C_22  and  O_31
REMARK   11  A    between atoms: C_23  and  O_30
REMARK   12  A    between atoms: C_24  and  O_29
REMARK   13  A    between atoms: C_25  and  C_27
REMARK   14  A    between atoms: C_27  and  O_28
REMARK   15  A    between atoms: C_34  and  O_39
REMARK   16  A    between atoms: C_35  and  O_38
REMARK                            x       y       z     vdW  Elec       q    Type
REMARK                         _______ _______ _______ _____ _____    ______ ____
ROOT
ATOM      1  C   UNL     1       7.108  -4.019  24.463  0.00  0.00    +0.214 A 
ATOM      2  C   UNL     1       7.679  -3.285  23.293  0.00  0.00    +0.238 A 
ATOM      3  O   UNL     1       7.501  -3.690  22.151  0.00  0.00    -0.283 OA
ATOM      4  C   UNL     1       8.380  -2.022  23.563  0.00  0.00    +0.109 A 
ATOM      5  C   UNL     1       8.172  -1.417  24.795  0.00  0.00    +0.147 A 
ATOM      6  C   UNL     1       8.649  -0.122  25.044  0.00  0.00    +0.093 A 
ATOM      7  C   UNL     1       9.388   0.547  24.066  0.00  0.00    +0.131 A 
ATOM      8  C   UNL     1       9.652  -0.087  22.846  0.00  0.00    +0.092 A 
ATOM      9  O   UNL     1       7.507  -2.046  25.814  0.00  0.00    -0.451 OA
ATOM     10  C   UNL     1       9.158  -1.369  22.601  0.00  0.00    +0.135 A 
ATOM     11  C   UNL     1       7.061  -3.356  25.642  0.00  0.00    +0.181 A 
ENDROOT
BRANCH  11  12
ATOM     12  C   UNL     1       6.415  -3.891  26.874  0.00  0.00    +0.025 A 
ATOM     13  C   UNL     1       5.340  -3.191  27.461  0.00  0.00    +0.015 A 
ATOM     14  C   UNL     1       4.628  -3.720  28.544  0.00  0.00    +0.050 A 
ATOM     15  C   UNL     1       4.977  -4.965  29.040  0.00  0.00    +0.158 A 
ATOM     16  C   UNL     1       6.071  -5.643  28.519  0.00  0.00    +0.159 A 
ATOM     17  C   UNL     1       6.823  -5.085  27.485  0.00  0.00    +0.060 A 
BRANCH  16  18
ATOM     18  O   UNL     1       6.351  -6.889  29.011  0.00  0.00    -0.503 OA
ATOM     19  H   UNL     1       7.318  -7.020  28.937  0.00  0.00    +0.292 HD
ENDBRANCH  16  18
BRANCH  15  20
ATOM     20  O   UNL     1       4.216  -5.530  30.019  0.00  0.00    -0.503 OA
ATOM     21  H   UNL     1       3.887  -6.365  29.629  0.00  0.00    +0.292 HD
ENDBRANCH  15  20
ENDBRANCH  11  12
BRANCH  10  22
ATOM     22  O   UNL     1       9.478  -1.997  21.431  0.00  0.00    -0.506 OA
ATOM     23  H   UNL     1       9.301  -2.950  21.492  0.00  0.00    +0.292 HD
ENDBRANCH  10  22
BRANCH   7  24
ATOM     24  O   UNL     1       9.858   1.827  24.162  0.00  0.00    -0.461 OA
BRANCH  24  25
ATOM     25  C   UNL     1       9.757   2.683  23.012  0.00  0.00    +0.339 C 
ATOM     26  O   UNL     1      10.982   3.355  22.697  0.00  0.00    -0.331 OA
ATOM     27  C   UNL     1      11.467   4.232  23.735  0.00  0.00    +0.179 C 
ATOM     28  C   UNL     1      10.411   5.289  24.116  0.00  0.00    +0.177 C 
ATOM     29  C   UNL     1       9.068   4.622  24.446  0.00  0.00    +0.180 C 
ATOM     30  C   UNL     1       8.640   3.724  23.272  0.00  0.00    +0.214 C 
BRANCH  29  31
ATOM     31  O   UNL     1       8.090   5.633  24.714  0.00  0.00    -0.386 OA
ATOM     32  H   UNL     1       8.544   6.491  24.642  0.00  0.00    +0.210 HD
ENDBRANCH  29  31
BRANCH  30  33
ATOM     33  O   UNL     1       7.362   3.131  23.531  0.00  0.00    -0.383 OA
ATOM     34  H   UNL     1       6.863   3.695  24.145  0.00  0.00    +0.210 HD
ENDBRANCH  30  33
BRANCH  28  35
ATOM     35  O   UNL     1      10.193   6.234  23.050  0.00  0.00    -0.386 OA
ATOM     36  H   UNL     1      11.045   6.414  22.610  0.00  0.00    +0.210 HD
ENDBRANCH  28  35
BRANCH  27  37
ATOM     37  C   UNL     1      12.751   4.905  23.226  0.00  0.00    +0.190 C 
BRANCH  37  38
ATOM     38  O   UNL     1      13.153   5.983  24.073  0.00  0.00    -0.392 OA
ATOM     39  H   UNL     1      12.900   5.763  24.980  0.00  0.00    +0.210 HD
ENDBRANCH  37  38
ENDBRANCH  27  37
ENDBRANCH  24  25
ENDBRANCH   7  24
BRANCH   1  40
ATOM     40  O   UNL     1       6.516  -5.265  24.269  0.00  0.00    -0.456 OA
BRANCH  40  42
ATOM     41  C   UNL     1       4.448  -4.222  23.471  0.00  0.00    +0.109 C 
ATOM     42  C   UNL     1       5.490  -5.322  23.260  0.00  0.00    +0.313 C 
ATOM     43  O   UNL     1       4.868  -6.618  23.288  0.00  0.00    -0.310 OA
ATOM     44  C   UNL     1       4.102  -6.892  24.451  0.00  0.00    +0.282 C 
ATOM     45  C   UNL     1       3.054  -5.821  24.779  0.00  0.00    +0.199 C 
ATOM     46  C   UNL     1       3.683  -4.428  24.766  0.00  0.00    +0.154 C 
BRANCH  46  47
ATOM     47  O   UNL     1       2.671  -3.419  24.860  0.00  0.00    -0.389 OA
ATOM     48  H   UNL     1       1.805  -3.860  24.774  0.00  0.00    +0.210 HD
ENDBRANCH  46  47
BRANCH  45  49
ATOM     49  O   UNL     1       2.446  -6.049  26.056  0.00  0.00    -0.384 OA
ATOM     50  H   UNL     1       1.954  -5.234  26.282  0.00  0.00    +0.210 HD
ENDBRANCH  45  49
BRANCH  44  51
ATOM     51  O   UNL     1       4.943  -7.142  25.575  0.00  0.00    -0.365 OA
ATOM     52  H   UNL     1       5.692  -6.520  25.492  0.00  0.00    +0.213 HD
ENDBRANCH  44  51
ENDBRANCH  40  42
ENDBRANCH   1  40
TORSDOF 16
ENDMDL
MODEL 4
REMARK VINA RESULT:      -6.8      2.139      3.815
REMARK  Name = 
REMARK  16 active torsions:
REMARK  status: ('A' for Active; 'I' for Inactive)
REMARK    1  A    between atoms: C_2  and  O_42
REMARK    2  A    between atoms: C_3  and  O_41
REMARK    3  A    between atoms: C_4  and  O_40
REMARK    4  A    between atoms: C_6  and  O_7
REMARK    5  A    between atoms: O_7  and  C_8
REMARK    6  A    between atoms: C_9  and  C_32
REMARK    7  A    between atoms: C_13  and  O_20
REMARK    8  A    between atoms: C_15  and  O_19
REMARK    9  A    between atoms: O_20  and  C_21
REMARK   10  A    between atoms: C_22  and  O_31
REMARK   11  A    between atoms: C_23  and  O_30
REMARK   12  A    between atoms: C_24  and  O_29
REMARK   13  A    between atoms: C_25  and  C_27
REMARK   14  A    between atoms: C_27  and  O_28
REMARK   15  A    between atoms: C_34  and  O_39
REMARK   16  A    between atoms: C_35  and  O_38
REMARK                            x       y       z     vdW  Elec       q    Type
REMARK                         _______ _______ _______ _____ _____    ______ ____
ROOT
ATOM      1  C   UNL     1       7.478   0.291  23.849  0.00  0.00    +0.214 A 
ATOM      2  C   UNL     1       7.918  -1.132  23.968  0.00  0.00    +0.238 A 
ATOM      3  O   UNL     1       9.108  -1.422  23.967  0.00  0.00    -0.283 OA
ATOM      4  C   UNL     1       6.877  -2.148  24.174  0.00  0.00    +0.109 A 
ATOM      5  C   UNL     1       5.625  -1.715  24.590  0.00  0.00    +0.147 A 
ATOM      6  C   UNL     1       4.649  -2.638  24.992  0.00  0.00    +0.093 A 
ATOM      7  C   UNL     1       4.914  -4.008  24.922  0.00  0.00    +0.131 A 
ATOM      8  C   UNL     1       6.155  -4.446  24.442  0.00  0.00    +0.092 A 
ATOM      9  O   UNL     1       5.283  -0.389  24.624  0.00  0.00    -0.451 OA
ATOM     10  C   UNL     1       7.126  -3.519  24.061  0.00  0.00    +0.135 A 
ATOM     11  C   UNL     1       6.195   0.569  24.180  0.00  0.00    +0.181 A 
ENDROOT
BRANCH  11  12
ATOM     12  C   UNL     1       5.628   1.946  24.236  0.00  0.00    +0.025 A 
ATOM     13  C   UNL     1       5.174   2.466  25.467  0.00  0.00    +0.015 A 
ATOM     14  C   UNL     1       4.749   3.795  25.585  0.00  0.00    +0.050 A 
ATOM     15  C   UNL     1       4.789   4.620  24.474  0.00  0.00    +0.158 A 
ATOM     16  C   UNL     1       5.171   4.112  23.240  0.00  0.00    +0.159 A 
ATOM     17  C   UNL     1       5.530   2.770  23.107  0.00  0.00    +0.060 A 
BRANCH  16  18
ATOM     18  O   UNL     1       5.238   4.975  22.180  0.00  0.00    -0.503 OA
ATOM     19  H   UNL     1       6.104   5.427  22.227  0.00  0.00    +0.292 HD
ENDBRANCH  16  18
BRANCH  15  20
ATOM     20  O   UNL     1       4.483   5.941  24.613  0.00  0.00    -0.503 OA
ATOM     21  H   UNL     1       3.780   6.105  23.952  0.00  0.00    +0.292 HD
ENDBRANCH  15  20
ENDBRANCH  11  12
BRANCH  10  22
ATOM     22  O   UNL     1       8.306  -3.965  23.537  0.00  0.00    -0.506 OA
ATOM     23  H   UNL     1       8.523  -4.848  23.877  0.00  0.00    +0.292 HD
ENDBRANCH  10  22
BRANCH   7  24
ATOM     24  O   UNL     1       4.073  -5.003  25.335  0.00  0.00    -0.461 OA
BRANCH  24  25
ATOM     25  C   UNL     1       4.244  -6.318  24.781  0.00  0.00    +0.339 C 
ATOM     26  O   UNL     1       3.446  -6.548  23.614  0.00  0.00    -0.331 OA
ATOM     27  C   UNL     1       2.023  -6.452  23.834  0.00  0.00    +0.179 C 
ATOM     28  C   UNL     1       1.559  -7.415  24.944  0.00  0.00    +0.177 C 
ATOM     29  C   UNL     1       2.397  -7.223  26.216  0.00  0.00    +0.180 C 
ATOM     30  C   UNL     1       3.891  -7.359  25.872  0.00  0.00    +0.214 C 
BRANCH  29  31
ATOM     31  O   UNL     1       1.997  -8.186  27.198  0.00  0.00    -0.386 OA
ATOM     32  H   UNL     1       2.597  -8.947  27.107  0.00  0.00    +0.210 HD
ENDBRANCH  29  31
BRANCH  30  33
ATOM     33  O   UNL     1       4.693  -7.238  27.053  0.00  0.00    -0.383 OA
ATOM     34  H   UNL     1       4.680  -6.316  27.358  0.00  0.00    +0.210 HD
ENDBRANCH  30  33
BRANCH  28  35
ATOM     35  O   UNL     1       1.672  -8.793  24.537  0.00  0.00    -0.386 OA
ATOM     36  H   UNL     1       0.799  -9.219  24.622  0.00  0.00    +0.210 HD
ENDBRANCH  28  35
BRANCH  27  37
ATOM     37  C   UNL     1       1.316  -6.770  22.507  0.00  0.00    +0.190 C 
BRANCH  37  38
ATOM     38  O   UNL     1       1.880  -7.917  21.870  0.00  0.00    -0.392 OA
ATOM     39  H   UNL     1       1.648  -7.886  20.932  0.00  0.00    +0.210 HD
ENDBRANCH  37  38
ENDBRANCH  27  37
ENDBRANCH  24  25
ENDBRANCH   7  24
BRANCH   1  40
ATOM     40  O   UNL     1       8.417   1.279  23.562  0.00  0.00    -0.456 OA
BRANCH  40  42
ATOM     41  C   UNL     1       8.650   2.997  25.293  0.00  0.00    +0.109 C 
ATOM     42  C   UNL     1       9.222   1.721  24.671  0.00  0.00    +0.313 C 
ATOM     43  O   UNL     1      10.571   1.940  24.223  0.00  0.00    -0.310 OA
ATOM     44  C   UNL     1      10.738   3.031  23.331  0.00  0.00    +0.282 C 
ATOM     45  C   UNL     1      10.154   4.355  23.842  0.00  0.00    +0.199 C 
ATOM     46  C   UNL     1       8.716   4.161  24.321  0.00  0.00    +0.154 C 
BRANCH  46  47
ATOM     47  O   UNL     1       8.247   5.337  24.990  0.00  0.00    -0.389 OA
ATOM     48  H   UNL     1       8.859   5.523  25.726  0.00  0.00    +0.210 HD
ENDBRANCH  46  47
BRANCH  45  49
ATOM     49  O   UNL     1      10.180   5.369  22.831  0.00  0.00    -0.384 OA
ATOM     50  H   UNL     1       9.880   6.198  23.257  0.00  0.00    +0.210 HD
ENDBRANCH  45  49
BRANCH  44  51
ATOM     51  O   UNL     1      10.233   2.720  22.034  0.00  0.00    -0.365 OA
ATOM     52  H   UNL     1       9.480   2.114  22.179  0.00  0.00    +0.213 HD
ENDBRANCH  44  51
ENDBRANCH  40  42
ENDBRANCH   1  40
TORSDOF 16
ENDMDL
MODEL 5
REMARK VINA RESULT:      -6.7      1.221      2.417
REMARK  Name = 
REMARK  16 active torsions:
REMARK  status: ('A' for Active; 'I' for Inactive)
REMARK    1  A    between atoms: C_2  and  O_42
REMARK    2  A    between atoms: C_3  and  O_41
REMARK    3  A    between atoms: C_4  and  O_40
REMARK    4  A    between atoms: C_6  and  O_7
REMARK    5  A    between atoms: O_7  and  C_8
REMARK    6  A    between atoms: C_9  and  C_32
REMARK    7  A    between atoms: C_13  and  O_20
REMARK    8  A    between atoms: C_15  and  O_19
REMARK    9  A    between atoms: O_20  and  C_21
REMARK   10  A    between atoms: C_22  and  O_31
REMARK   11  A    between atoms: C_23  and  O_30
REMARK   12  A    between atoms: C_24  and  O_29
REMARK   13  A    between atoms: C_25  and  C_27
REMARK   14  A    between atoms: C_27  and  O_28
REMARK   15  A    between atoms: C_34  and  O_39
REMARK   16  A    between atoms: C_35  and  O_38
REMARK                            x       y       z     vdW  Elec       q    Type
REMARK                         _______ _______ _______ _____ _____    ______ ____
ROOT
ATOM      1  C   UNL     1       9.008   2.171  24.863  0.00  0.00    +0.214 A 
ATOM      2  C   UNL     1       9.543   0.779  24.758  0.00  0.00    +0.238 A 
ATOM      3  O   UNL     1      10.749   0.573  24.707  0.00  0.00    -0.283 OA
ATOM      4  C   UNL     1       8.573  -0.324  24.809  0.00  0.00    +0.109 A 
ATOM      5  C   UNL     1       7.302  -0.046  25.293  0.00  0.00    +0.147 A 
ATOM      6  C   UNL     1       6.395  -1.083  25.552  0.00  0.00    +0.093 A 
ATOM      7  C   UNL     1       6.748  -2.404  25.270  0.00  0.00    +0.131 A 
ATOM      8  C   UNL     1       8.007  -2.679  24.722  0.00  0.00    +0.092 A 
ATOM      9  O   UNL     1       6.875   1.234  25.534  0.00  0.00    -0.451 OA
ATOM     10  C   UNL     1       8.910  -1.642  24.484  0.00  0.00    +0.135 A 
ATOM     11  C   UNL     1       7.716   2.308  25.240  0.00  0.00    +0.181 A 
ENDROOT
BRANCH  11  12
ATOM     12  C   UNL     1       7.061   3.618  25.511  0.00  0.00    +0.025 A 
ATOM     13  C   UNL     1       6.293   4.239  24.503  0.00  0.00    +0.015 A 
ATOM     14  C   UNL     1       5.563   5.407  24.755  0.00  0.00    +0.050 A 
ATOM     15  C   UNL     1       5.582   5.955  26.026  0.00  0.00    +0.158 A 
ATOM     16  C   UNL     1       6.380   5.398  27.016  0.00  0.00    +0.159 A 
ATOM     17  C   UNL     1       7.162   4.274  26.746  0.00  0.00    +0.060 A 
BRANCH  16  18
ATOM     18  O   UNL     1       6.334   5.948  28.268  0.00  0.00    -0.503 OA
ATOM     19  H   UNL     1       7.232   6.275  28.476  0.00  0.00    +0.292 HD
ENDBRANCH  16  18
BRANCH  15  20
ATOM     20  O   UNL     1       4.785   7.025  26.303  0.00  0.00    -0.503 OA
ATOM     21  H   UNL     1       4.748   7.063  27.280  0.00  0.00    +0.292 HD
ENDBRANCH  15  20
ENDBRANCH  11  12
BRANCH  10  22
ATOM     22  O   UNL     1      10.109  -1.921  23.891  0.00  0.00    -0.506 OA
ATOM     23  H   UNL     1      10.795  -1.304  24.195  0.00  0.00    +0.292 HD
ENDBRANCH  10  22
BRANCH   7  24
ATOM     24  O   UNL     1       5.980  -3.505  25.527  0.00  0.00    -0.461 OA
BRANCH  24  25
ATOM     25  C   UNL     1       6.193  -4.689  24.741  0.00  0.00    +0.339 C 
ATOM     26  O   UNL     1       5.128  -4.955  23.821  0.00  0.00    -0.331 OA
ATOM     27  C   UNL     1       3.845  -5.183  24.441  0.00  0.00    +0.179 C 
ATOM     28  C   UNL     1       3.912  -6.335  25.463  0.00  0.00    +0.177 C 
ATOM     29  C   UNL     1       5.053  -6.108  26.465  0.00  0.00    +0.180 C 
ATOM     30  C   UNL     1       6.370  -5.890  25.701  0.00  0.00    +0.214 C 
BRANCH  29  31
ATOM     31  O   UNL     1       5.139  -7.233  27.347  0.00  0.00    -0.386 OA
ATOM     32  H   UNL     1       4.276  -7.310  27.792  0.00  0.00    +0.210 HD
ENDBRANCH  29  31
BRANCH  30  33
ATOM     33  O   UNL     1       7.462  -5.730  26.614  0.00  0.00    -0.383 OA
ATOM     34  H   UNL     1       7.853  -6.598  26.805  0.00  0.00    +0.210 HD
ENDBRANCH  30  33
BRANCH  28  35
ATOM     35  O   UNL     1       4.125  -7.607  24.820  0.00  0.00    -0.386 OA
ATOM     36  H   UNL     1       4.278  -8.284  25.505  0.00  0.00    +0.210 HD
ENDBRANCH  28  35
BRANCH  27  37
ATOM     37  C   UNL     1       2.831  -5.499  23.330  0.00  0.00    +0.190 C 
BRANCH  37  38
ATOM     38  O   UNL     1       3.368  -6.409  22.369  0.00  0.00    -0.392 OA
ATOM     39  H   UNL     1       3.070  -7.301  22.600  0.00  0.00    +0.210 HD
ENDBRANCH  37  38
ENDBRANCH  27  37
ENDBRANCH  24  25
ENDBRANCH   7  24
BRANCH   1  40
ATOM     40  O   UNL     1       9.877   3.251  24.728  0.00  0.00    -0.456 OA
BRANCH  40  42
ATOM     41  C   UNL     1      11.500   3.779  22.970  0.00  0.00    +0.109 C 
ATOM     42  C   UNL     1      10.030   3.771  23.393  0.00  0.00    +0.313 C 
ATOM     43  O   UNL     1       9.481   5.099  23.335  0.00  0.00    -0.310 OA
ATOM     44  C   UNL     1      10.194   6.077  24.076  0.00  0.00    +0.282 C 
ATOM     45  C   UNL     1      11.695   6.135  23.758  0.00  0.00    +0.199 C 
ATOM     46  C   UNL     1      12.313   4.739  23.818  0.00  0.00    +0.154 C 
BRANCH  46  47
ATOM     47  O   UNL     1      13.655   4.762  23.317  0.00  0.00    -0.389 OA
ATOM     48  H   UNL     1      13.683   5.397  22.578  0.00  0.00    +0.210 HD
ENDBRANCH  46  47
BRANCH  45  49
ATOM     49  O   UNL     1      12.394   6.998  24.663  0.00  0.00    -0.384 OA
ATOM     50  H   UNL     1      12.444   7.875  24.231  0.00  0.00    +0.210 HD
ENDBRANCH  45  49
BRANCH  44  51
ATOM     51  O   UNL     1       9.977   5.922  25.477  0.00  0.00    -0.365 OA
ATOM     52  H   UNL     1      10.789   6.249  25.911  0.00  0.00    +0.213 HD
ENDBRANCH  44  51
ENDBRANCH  40  42
ENDBRANCH   1  40
TORSDOF 16
ENDMDL
MODEL 6
REMARK VINA RESULT:      -6.7      2.342     10.150
REMARK  Name = 
REMARK  16 active torsions:
REMARK  status: ('A' for Active; 'I' for Inactive)
REMARK    1  A    between atoms: C_2  and  O_42
REMARK    2  A    between atoms: C_3  and  O_41
REMARK    3  A    between atoms: C_4  and  O_40
REMARK    4  A    between atoms: C_6  and  O_7
REMARK    5  A    between atoms: O_7  and  C_8
REMARK    6  A    between atoms: C_9  and  C_32
REMARK    7  A    between atoms: C_13  and  O_20
REMARK    8  A    between atoms: C_15  and  O_19
REMARK    9  A    between atoms: O_20  and  C_21
REMARK   10  A    between atoms: C_22  and  O_31
REMARK   11  A    between atoms: C_23  and  O_30
REMARK   12  A    between atoms: C_24  and  O_29
REMARK   13  A    between atoms: C_25  and  C_27
REMARK   14  A    between atoms: C_27  and  O_28
REMARK   15  A    between atoms: C_34  and  O_39
REMARK   16  A    between atoms: C_35  and  O_38
REMARK                            x       y       z     vdW  Elec       q    Type
REMARK                         _______ _______ _______ _____ _____    ______ ____
ROOT
ATOM      1  C   UNL     1       5.858  -2.171  25.874  0.00  0.00    +0.214 A 
ATOM      2  C   UNL     1       5.905  -0.839  26.550  0.00  0.00    +0.238 A 
ATOM      3  O   UNL     1       6.081  -0.755  27.759  0.00  0.00    -0.283 OA
ATOM      4  C   UNL     1       5.821   0.355  25.698  0.00  0.00    +0.109 A 
ATOM      5  C   UNL     1       6.056   0.198  24.339  0.00  0.00    +0.147 A 
ATOM      6  C   UNL     1       6.186   1.316  23.503  0.00  0.00    +0.093 A 
ATOM      7  C   UNL     1       6.023   2.600  24.028  0.00  0.00    +0.131 A 
ATOM      8  C   UNL     1       5.723   2.757  25.386  0.00  0.00    +0.092 A 
ATOM      9  O   UNL     1       6.166  -1.036  23.754  0.00  0.00    -0.451 OA
ATOM     10  C   UNL     1       5.613   1.639  26.213  0.00  0.00    +0.135 A 
ATOM     11  C   UNL     1       5.989  -2.184  24.527  0.00  0.00    +0.181 A 
ENDROOT
BRANCH  11  12
ATOM     12  C   UNL     1       6.086  -3.426  23.711  0.00  0.00    +0.025 A 
ATOM     13  C   UNL     1       7.352  -3.992  23.446  0.00  0.00    +0.015 A 
ATOM     14  C   UNL     1       7.479  -5.222  22.789  0.00  0.00    +0.050 A 
ATOM     15  C   UNL     1       6.338  -5.904  22.404  0.00  0.00    +0.158 A 
ATOM     16  C   UNL     1       5.086  -5.337  22.597  0.00  0.00    +0.159 A 
ATOM     17  C   UNL     1       4.961  -4.080  23.190  0.00  0.00    +0.060 A 
BRANCH  16  18
ATOM     18  O   UNL     1       3.984  -6.067  22.240  0.00  0.00    -0.503 OA
ATOM     19  H   UNL     1       3.239  -5.757  22.791  0.00  0.00    +0.292 HD
ENDBRANCH  16  18
BRANCH  15  20
ATOM     20  O   UNL     1       6.456  -7.151  21.866  0.00  0.00    -0.503 OA
ATOM     21  H   UNL     1       6.373  -7.761  22.627  0.00  0.00    +0.292 HD
ENDBRANCH  15  20
ENDBRANCH  11  12
BRANCH  10  22
ATOM     22  O   UNL     1       5.258   1.807  27.522  0.00  0.00    -0.506 OA
ATOM     23  H   UNL     1       4.423   2.298  27.592  0.00  0.00    +0.292 HD
ENDBRANCH  10  22
BRANCH   7  24
ATOM     24  O   UNL     1       6.179   3.768  23.335  0.00  0.00    -0.461 OA
BRANCH  24  25
ATOM     25  C   UNL     1       7.235   3.853  22.364  0.00  0.00    +0.339 C 
ATOM     26  O   UNL     1       8.360   3.024  22.678  0.00  0.00    -0.331 OA
ATOM     27  C   UNL     1       9.013   3.348  23.923  0.00  0.00    +0.179 C 
ATOM     28  C   UNL     1       9.465   4.822  23.954  0.00  0.00    +0.177 C 
ATOM     29  C   UNL     1       8.298   5.756  23.604  0.00  0.00    +0.180 C 
ATOM     30  C   UNL     1       7.686   5.331  22.258  0.00  0.00    +0.214 C 
BRANCH  29  31
ATOM     31  O   UNL     1       8.769   7.108  23.561  0.00  0.00    -0.386 OA
ATOM     32  H   UNL     1       8.696   7.462  24.465  0.00  0.00    +0.210 HD
ENDBRANCH  29  31
BRANCH  30  33
ATOM     33  O   UNL     1       6.628   6.221  21.881  0.00  0.00    -0.383 OA
ATOM     34  H   UNL     1       6.984   6.920  21.309  0.00  0.00    +0.210 HD
ENDBRANCH  30  33
BRANCH  28  35
ATOM     35  O   UNL     1      10.535   5.071  23.021  0.00  0.00    -0.386 OA
ATOM     36  H   UNL     1      11.052   5.837  23.333  0.00  0.00    +0.210 HD
ENDBRANCH  28  35
BRANCH  27  37
ATOM     37  C   UNL     1      10.217   2.407  24.087  0.00  0.00    +0.190 C 
BRANCH  37  38
ATOM     38  O   UNL     1       9.942   1.358  25.018  0.00  0.00    -0.392 OA
ATOM     39  H   UNL     1       9.111   0.935  24.758  0.00  0.00    +0.210 HD
ENDBRANCH  37  38
ENDBRANCH  27  37
ENDBRANCH  24  25
ENDBRANCH   7  24
BRANCH   1  40
ATOM     40  O   UNL     1       5.841  -3.331  26.645  0.00  0.00    -0.456 OA
BRANCH  40  42
ATOM     41  C   UNL     1       4.453  -4.007  28.548  0.00  0.00    +0.109 C 
ATOM     42  C   UNL     1       4.538  -3.808  27.034  0.00  0.00    +0.313 C 
ATOM     43  O   UNL     1       4.259  -5.040  26.346  0.00  0.00    -0.310 OA
ATOM     44  C   UNL     1       5.064  -6.141  26.736  0.00  0.00    +0.282 C 
ATOM     45  C   UNL     1       5.085  -6.400  28.249  0.00  0.00    +0.199 C 
ATOM     46  C   UNL     1       5.387  -5.111  29.012  0.00  0.00    +0.154 C 
BRANCH  46  47
ATOM     47  O   UNL     1       5.197  -5.304  30.418  0.00  0.00    -0.389 OA
ATOM     48  H   UNL     1       4.257  -5.134  30.616  0.00  0.00    +0.210 HD
ENDBRANCH  46  47
BRANCH  45  49
ATOM     49  O   UNL     1       6.055  -7.393  28.602  0.00  0.00    -0.384 OA
ATOM     50  H   UNL     1       5.586  -8.063  29.139  0.00  0.00    +0.210 HD
ENDBRANCH  45  49
BRANCH  44  51
ATOM     51  O   UNL     1       6.389  -6.019  26.223  0.00  0.00    -0.365 OA
ATOM     52  H   UNL     1       6.944  -5.746  26.978  0.00  0.00    +0.213 HD
ENDBRANCH  44  51
ENDBRANCH  40  42
ENDBRANCH   1  40
TORSDOF 16
ENDMDL
MODEL 7
REMARK VINA RESULT:      -6.6      2.932     11.161
REMARK  Name = 
REMARK  16 active torsions:
REMARK  status: ('A' for Active; 'I' for Inactive)
REMARK    1  A    between atoms: C_2  and  O_42
REMARK    2  A    between atoms: C_3  and  O_41
REMARK    3  A    between atoms: C_4  and  O_40
REMARK    4  A    between atoms: C_6  and  O_7
REMARK    5  A    between atoms: O_7  and  C_8
REMARK    6  A    between atoms: C_9  and  C_32
REMARK    7  A    between atoms: C_13  and  O_20
REMARK    8  A    between atoms: C_15  and  O_19
REMARK    9  A    between atoms: O_20  and  C_21
REMARK   10  A    between atoms: C_22  and  O_31
REMARK   11  A    between atoms: C_23  and  O_30
REMARK   12  A    between atoms: C_24  and  O_29
REMARK   13  A    between atoms: C_25  and  C_27
REMARK   14  A    between atoms: C_27  and  O_28
REMARK   15  A    between atoms: C_34  and  O_39
REMARK   16  A    between atoms: C_35  and  O_38
REMARK                            x       y       z     vdW  Elec       q    Type
REMARK                         _______ _______ _______ _____ _____    ______ ____
ROOT
ATOM      1  C   UNL     1       4.034  -5.116  24.765  0.00  0.00    +0.214 A 
ATOM      2  C   UNL     1       4.589  -4.429  23.559  0.00  0.00    +0.238 A 
ATOM      3  O   UNL     1       4.310  -4.819  22.431  0.00  0.00    -0.283 OA
ATOM      4  C   UNL     1       5.402  -3.225  23.779  0.00  0.00    +0.109 A 
ATOM      5  C   UNL     1       5.318  -2.606  25.019  0.00  0.00    +0.147 A 
ATOM      6  C   UNL     1       5.910  -1.353  25.232  0.00  0.00    +0.093 A 
ATOM      7  C   UNL     1       6.638  -0.744  24.208  0.00  0.00    +0.131 A 
ATOM      8  C   UNL     1       6.777  -1.397  22.977  0.00  0.00    +0.092 A 
ATOM      9  O   UNL     1       4.668  -3.180  26.080  0.00  0.00    -0.451 OA
ATOM     10  C   UNL     1       6.169  -2.636  22.769  0.00  0.00    +0.135 A 
ATOM     11  C   UNL     1       4.111  -4.452  25.941  0.00  0.00    +0.181 A 
ENDROOT
BRANCH  11  12
ATOM     12  C   UNL     1       3.501  -4.934  27.212  0.00  0.00    +0.025 A 
ATOM     13  C   UNL     1       2.433  -4.217  27.792  0.00  0.00    +0.015 A 
ATOM     14  C   UNL     1       1.754  -4.701  28.916  0.00  0.00    +0.050 A 
ATOM     15  C   UNL     1       2.128  -5.917  29.461  0.00  0.00    +0.158 A 
ATOM     16  C   UNL     1       3.215  -6.609  28.946  0.00  0.00    +0.159 A 
ATOM     17  C   UNL     1       3.937  -6.093  27.868  0.00  0.00    +0.060 A 
BRANCH  16  18
ATOM     18  O   UNL     1       3.521  -7.828  29.489  0.00  0.00    -0.503 OA
ATOM     19  H   UNL     1       2.910  -7.974  30.238  0.00  0.00    +0.292 HD
ENDBRANCH  16  18
BRANCH  15  20
ATOM     20  O   UNL     1       1.397  -6.443  30.484  0.00  0.00    -0.503 OA
ATOM     21  H   UNL     1       0.519  -6.631  30.094  0.00  0.00    +0.292 HD
ENDBRANCH  15  20
ENDBRANCH  11  12
BRANCH  10  22
ATOM     22  O   UNL     1       6.367  -3.287  21.584  0.00  0.00    -0.506 OA
ATOM     23  H   UNL     1       6.144  -2.712  20.834  0.00  0.00    +0.292 HD
ENDBRANCH  10  22
BRANCH   7  24
ATOM     24  O   UNL     1       7.213   0.495  24.269  0.00  0.00    -0.461 OA
BRANCH  24  25
ATOM     25  C   UNL     1       7.434   1.210  23.043  0.00  0.00    +0.339 C 
ATOM     26  O   UNL     1       8.794   1.623  22.866  0.00  0.00    -0.331 OA
ATOM     27  C   UNL     1       9.281   2.526  23.880  0.00  0.00    +0.179 C 
ATOM     28  C   UNL     1       8.395   3.784  23.985  0.00  0.00    +0.177 C 
ATOM     29  C   UNL     1       6.919   3.396  24.157  0.00  0.00    +0.180 C 
ATOM     30  C   UNL     1       6.503   2.446  23.020  0.00  0.00    +0.214 C 
BRANCH  29  31
ATOM     31  O   UNL     1       6.116   4.582  24.168  0.00  0.00    -0.386 OA
ATOM     32  H   UNL     1       5.852   4.735  25.093  0.00  0.00    +0.210 HD
ENDBRANCH  29  31
BRANCH  30  33
ATOM     33  O   UNL     1       5.114   2.112  23.125  0.00  0.00    -0.383 OA
ATOM     34  H   UNL     1       4.907   1.880  24.045  0.00  0.00    +0.210 HD
ENDBRANCH  30  33
BRANCH  28  35
ATOM     35  O   UNL     1       8.507   4.615  22.813  0.00  0.00    -0.386 OA
ATOM     36  H   UNL     1       7.865   5.345  22.883  0.00  0.00    +0.210 HD
ENDBRANCH  28  35
BRANCH  27  37
ATOM     37  C   UNL     1      10.726   2.908  23.523  0.00  0.00    +0.190 C 
BRANCH  37  38
ATOM     38  O   UNL     1      10.919   2.973  22.109  0.00  0.00    -0.392 OA
ATOM     39  H   UNL     1      11.768   2.559  21.901  0.00  0.00    +0.210 HD
ENDBRANCH  37  38
ENDBRANCH  27  37
ENDBRANCH  24  25
ENDBRANCH   7  24
BRANCH   1  40
ATOM     40  O   UNL     1       3.335  -6.311  24.613  0.00  0.00    -0.456 OA
BRANCH  40  42
ATOM     41  C   UNL     1       1.384  -7.591  25.360  0.00  0.00    +0.109 C 
ATOM     42  C   UNL     1       1.918  -6.246  24.865  0.00  0.00    +0.313 C 
ATOM     43  O   UNL     1       1.240  -5.845  23.662  0.00  0.00    -0.310 OA
ATOM     44  C   UNL     1       1.272  -6.797  22.609  0.00  0.00    +0.282 C 
ATOM     45  C   UNL     1       0.797  -8.199  23.015  0.00  0.00    +0.199 C 
ATOM     46  C   UNL     1       1.504  -8.660  24.288  0.00  0.00    +0.154 C 
BRANCH  46  47
ATOM     47  O   UNL     1       0.912  -9.866  24.783  0.00  0.00    -0.389 OA
ATOM     48  H   UNL     1       0.481  -9.657  25.633  0.00  0.00    +0.210 HD
ENDBRANCH  46  47
BRANCH  45  49
ATOM     49  O   UNL     1       1.029  -9.157  21.975  0.00  0.00    -0.384 OA
ATOM     50  H   UNL     1       0.278  -9.784  22.000  0.00  0.00    +0.210 HD
ENDBRANCH  45  49
BRANCH  44  51
ATOM     51  O   UNL     1       2.561  -6.853  22.002  0.00  0.00    -0.365 OA
ATOM     52  H   UNL     1       2.747  -7.800  21.856  0.00  0.00    +0.213 HD
ENDBRANCH  44  51
ENDBRANCH  40  42
ENDBRANCH   1  40
TORSDOF 16
ENDMDL
MODEL 8
REMARK VINA RESULT:      -6.5      2.931     10.863
REMARK  Name = 
REMARK  16 active torsions:
REMARK  status: ('A' for Active; 'I' for Inactive)
REMARK    1  A    between atoms: C_2  and  O_42
REMARK    2  A    between atoms: C_3  and  O_41
REMARK    3  A    between atoms: C_4  and  O_40
REMARK    4  A    between atoms: C_6  and  O_7
REMARK    5  A    between atoms: O_7  and  C_8
REMARK    6  A    between atoms: C_9  and  C_32
REMARK    7  A    between atoms: C_13  and  O_20
REMARK    8  A    between atoms: C_15  and  O_19
REMARK    9  A    between atoms: O_20  and  C_21
REMARK   10  A    between atoms: C_22  and  O_31
REMARK   11  A    between atoms: C_23  and  O_30
REMARK   12  A    between atoms: C_24  and  O_29
REMARK   13  A    between atoms: C_25  and  C_27
REMARK   14  A    between atoms: C_27  and  O_28
REMARK   15  A    between atoms: C_34  and  O_39
REMARK   16  A    between atoms: C_35  and  O_38
REMARK                            x       y       z     vdW  Elec       q    Type
REMARK                         _______ _______ _______ _____ _____    ______ ____
ROOT
ATOM      1  C   UNL     1       4.654  -5.314  24.569  0.00  0.00    +0.214 A 
ATOM      2  C   UNL     1       5.285  -4.834  23.302  0.00  0.00    +0.238 A 
ATOM      3  O   UNL     1       4.839  -5.171  22.212  0.00  0.00    -0.283 OA
ATOM      4  C   UNL     1       6.396  -3.878  23.419  0.00  0.00    +0.109 A 
ATOM      5  C   UNL     1       6.559  -3.222  24.631  0.00  0.00    +0.147 A 
ATOM      6  C   UNL     1       7.468  -2.161  24.751  0.00  0.00    +0.093 A 
ATOM      7  C   UNL     1       8.259  -1.795  23.659  0.00  0.00    +0.131 A 
ATOM      8  C   UNL     1       8.140  -2.499  22.455  0.00  0.00    +0.092 A 
ATOM      9  O   UNL     1       5.856  -3.573  25.753  0.00  0.00    -0.451 OA
ATOM     10  C   UNL     1       7.220  -3.542  22.340  0.00  0.00    +0.135 A 
ATOM     11  C   UNL     1       4.980  -4.658  25.707  0.00  0.00    +0.181 A 
ENDROOT
BRANCH  11  12
ATOM     12  C   UNL     1       4.353  -4.925  27.031  0.00  0.00    +0.025 A 
ATOM     13  C   UNL     1       3.514  -3.953  27.617  0.00  0.00    +0.015 A 
ATOM     14  C   UNL     1       2.810  -4.213  28.800  0.00  0.00    +0.050 A 
ATOM     15  C   UNL     1       2.928  -5.456  29.398  0.00  0.00    +0.158 A 
ATOM     16  C   UNL     1       3.796  -6.404  28.874  0.00  0.00    +0.159 A 
ATOM     17  C   UNL     1       4.550  -6.121  27.735  0.00  0.00    +0.060 A 
BRANCH  16  18
ATOM     18  O   UNL     1       3.847  -7.633  29.474  0.00  0.00    -0.503 OA
ATOM     19  H   UNL     1       4.785  -7.820  29.677  0.00  0.00    +0.292 HD
ENDBRANCH  16  18
BRANCH  15  20
ATOM     20  O   UNL     1       2.159  -5.748  30.484  0.00  0.00    -0.503 OA
ATOM     21  H   UNL     1       1.906  -4.878  30.853  0.00  0.00    +0.292 HD
ENDBRANCH  15  20
ENDBRANCH  11  12
BRANCH  10  22
ATOM     22  O   UNL     1       7.161  -4.258  21.178  0.00  0.00    -0.506 OA
ATOM     23  H   UNL     1       6.584  -3.818  20.532  0.00  0.00    +0.292 HD
ENDBRANCH  10  22
BRANCH   7  24
ATOM     24  O   UNL     1       9.138  -0.749  23.630  0.00  0.00    -0.461 OA
BRANCH  24  25
ATOM     25  C   UNL     1       8.857   0.405  24.438  0.00  0.00    +0.339 C 
ATOM     26  O   UNL     1       7.571   0.979  24.178  0.00  0.00    -0.331 OA
ATOM     27  C   UNL     1       7.392   1.456  22.828  0.00  0.00    +0.179 C 
ATOM     28  C   UNL     1       8.475   2.484  22.446  0.00  0.00    +0.177 C 
ATOM     29  C   UNL     1       9.878   1.924  22.724  0.00  0.00    +0.180 C 
ATOM     30  C   UNL     1       9.963   1.460  24.189  0.00  0.00    +0.214 C 
BRANCH  29  31
ATOM     31  O   UNL     1      10.855   2.931  22.437  0.00  0.00    -0.386 OA
ATOM     32  H   UNL     1      11.253   2.702  21.578  0.00  0.00    +0.210 HD
ENDBRANCH  29  31
BRANCH  30  33
ATOM     33  O   UNL     1      11.280   0.983  24.490  0.00  0.00    -0.383 OA
ATOM     34  H   UNL     1      11.678   1.546  25.174  0.00  0.00    +0.210 HD
ENDBRANCH  30  33
BRANCH  28  35
ATOM     35  O   UNL     1       8.328   3.713  23.183  0.00  0.00    -0.386 OA
ATOM     36  H   UNL     1       9.181   4.186  23.180  0.00  0.00    +0.210 HD
ENDBRANCH  28  35
BRANCH  27  37
ATOM     37  C   UNL     1       5.990   2.079  22.727  0.00  0.00    +0.190 C 
BRANCH  37  38
ATOM     38  O   UNL     1       5.138   1.633  23.783  0.00  0.00    -0.392 OA
ATOM     39  H   UNL     1       4.822   2.410  24.264  0.00  0.00    +0.210 HD
ENDBRANCH  37  38
ENDBRANCH  27  37
ENDBRANCH  24  25
ENDBRANCH   7  24
BRANCH   1  40
ATOM     40  O   UNL     1       3.660  -6.289  24.513  0.00  0.00    -0.456 OA
BRANCH  40  42
ATOM     41  C   UNL     1       1.480  -6.855  25.477  0.00  0.00    +0.109 C 
ATOM     42  C   UNL     1       2.312  -5.823  24.714  0.00  0.00    +0.313 C 
ATOM     43  O   UNL     1       1.714  -5.535  23.438  0.00  0.00    -0.310 OA
ATOM     44  C   UNL     1       1.477  -6.668  22.617  0.00  0.00    +0.282 C 
ATOM     45  C   UNL     1       0.685  -7.788  23.307  0.00  0.00    +0.199 C 
ATOM     46  C   UNL     1       1.298  -8.125  24.665  0.00  0.00    +0.154 C 
BRANCH  46  47
ATOM     47  O   UNL     1       0.444  -9.012  25.396  0.00  0.00    -0.389 OA
ATOM     48  H   UNL     1       0.420  -8.704  26.321  0.00  0.00    +0.210 HD
ENDBRANCH  46  47
BRANCH  45  49
ATOM     49  O   UNL     1       0.640  -8.974  22.504  0.00  0.00    -0.384 OA
ATOM     50  H   UNL     1       1.562  -9.292  22.423  0.00  0.00    +0.210 HD
ENDBRANCH  45  49
BRANCH  44  51
ATOM     51  O   UNL     1       2.692  -7.170  22.066  0.00  0.00    -0.365 OA
ATOM     52  H   UNL     1       3.212  -6.385  21.807  0.00  0.00    +0.213 HD
ENDBRANCH  44  51
ENDBRANCH  40  42
ENDBRANCH   1  40
TORSDOF 16
ENDMDL
MODEL 9
REMARK VINA RESULT:      -6.4      1.899      2.888
REMARK  Name = 
REMARK  16 active torsions:
REMARK  status: ('A' for Active; 'I' for Inactive)
REMARK    1  A    between atoms: C_2  and  O_42
REMARK    2  A    between atoms: C_3  and  O_41
REMARK    3  A    between atoms: C_4  and  O_40
REMARK    4  A    between atoms: C_6  and  O_7
REMARK    5  A    between atoms: O_7  and  C_8
REMARK    6  A    between atoms: C_9  and  C_32
REMARK    7  A    between atoms: C_13  and  O_20
REMARK    8  A    between atoms: C_15  and  O_19
REMARK    9  A    between atoms: O_20  and  C_21
REMARK   10  A    between atoms: C_22  and  O_31
REMARK   11  A    between atoms: C_23  and  O_30
REMARK   12  A    between atoms: C_24  and  O_29
REMARK   13  A    between atoms: C_25  and  C_27
REMARK   14  A    between atoms: C_27  and  O_28
REMARK   15  A    between atoms: C_34  and  O_39
REMARK   16  A    between atoms: C_35  and  O_38
REMARK                            x       y       z     vdW  Elec       q    Type
REMARK                         _______ _______ _______ _____ _____    ______ ____
ROOT
ATOM      1  C   UNL     1       7.658   1.735  23.169  0.00  0.00    +0.214 A 
ATOM      2  C   UNL     1       8.486   0.491  23.184  0.00  0.00    +0.238 A 
ATOM      3  O   UNL     1       9.709   0.552  23.170  0.00  0.00    -0.283 OA
ATOM      4  C   UNL     1       7.779  -0.791  23.306  0.00  0.00    +0.109 A 
ATOM      5  C   UNL     1       6.462  -0.765  23.745  0.00  0.00    +0.147 A 
ATOM      6  C   UNL     1       5.795  -1.954  24.070  0.00  0.00    +0.093 A 
ATOM      7  C   UNL     1       6.437  -3.182  23.899  0.00  0.00    +0.131 A 
ATOM      8  C   UNL     1       7.743  -3.213  23.396  0.00  0.00    +0.092 A 
ATOM      9  O   UNL     1       5.759   0.404  23.876  0.00  0.00    -0.451 OA
ATOM     10  C   UNL     1       8.406  -2.023  23.092  0.00  0.00    +0.135 A 
ATOM     11  C   UNL     1       6.354   1.612  23.513  0.00  0.00    +0.181 A 
ENDROOT
BRANCH  11  12
ATOM     12  C   UNL     1       5.421   2.762  23.668  0.00  0.00    +0.025 A 
ATOM     13  C   UNL     1       5.133   3.585  22.558  0.00  0.00    +0.015 A 
ATOM     14  C   UNL     1       4.170   4.599  22.631  0.00  0.00    +0.050 A 
ATOM     15  C   UNL     1       3.474   4.788  23.813  0.00  0.00    +0.158 A 
ATOM     16  C   UNL     1       3.785   4.032  24.935  0.00  0.00    +0.159 A 
ATOM     17  C   UNL     1       4.792   3.068  24.883  0.00  0.00    +0.060 A 
BRANCH  16  18
ATOM     18  O   UNL     1       3.041   4.224  26.068  0.00  0.00    -0.503 OA
ATOM     19  H   UNL     1       2.177   3.788  25.926  0.00  0.00    +0.292 HD
ENDBRANCH  16  18
BRANCH  15  20
ATOM     20  O   UNL     1       2.460   5.698  23.851  0.00  0.00    -0.503 OA
ATOM     21  H   UNL     1       1.646   5.170  23.719  0.00  0.00    +0.292 HD
ENDBRANCH  15  20
ENDBRANCH  11  12
BRANCH  10  22
ATOM     22  O   UNL     1       9.656  -2.075  22.544  0.00  0.00    -0.506 OA
ATOM     23  H   UNL     1      10.333  -2.147  23.236  0.00  0.00    +0.292 HD
ENDBRANCH  10  22
BRANCH   7  24
ATOM     24  O   UNL     1       5.919  -4.403  24.230  0.00  0.00    -0.461 OA
BRANCH  24  25
ATOM     25  C   UNL     1       4.671  -4.449  24.940  0.00  0.00    +0.339 C 
ATOM     26  O   UNL     1       4.820  -4.766  26.328  0.00  0.00    -0.331 OA
ATOM     27  C   UNL     1       5.407  -6.058  26.587  0.00  0.00    +0.179 C 
ATOM     28  C   UNL     1       4.604  -7.186  25.909  0.00  0.00    +0.177 C 
ATOM     29  C   UNL     1       4.398  -6.886  24.417  0.00  0.00    +0.180 C 
ATOM     30  C   UNL     1       3.757  -5.496  24.258  0.00  0.00    +0.214 C 
BRANCH  29  31
ATOM     31  O   UNL     1       3.580  -7.909  23.837  0.00  0.00    -0.386 OA
ATOM     32  H   UNL     1       4.182  -8.606  23.522  0.00  0.00    +0.210 HD
ENDBRANCH  29  31
BRANCH  30  33
ATOM     33  O   UNL     1       3.503  -5.214  22.876  0.00  0.00    -0.383 OA
ATOM     34  H   UNL     1       2.641  -4.776  22.790  0.00  0.00    +0.210 HD
ENDBRANCH  30  33
BRANCH  28  35
ATOM     35  O   UNL     1       3.308  -7.357  26.516  0.00  0.00    -0.386 OA
ATOM     36  H   UNL     1       3.115  -8.311  26.582  0.00  0.00    +0.210 HD
ENDBRANCH  28  35
BRANCH  27  37
ATOM     37  C   UNL     1       5.453  -6.263  28.110  0.00  0.00    +0.190 C 
BRANCH  37  38
ATOM     38  O   UNL     1       5.473  -7.649  28.455  0.00  0.00    -0.392 OA
ATOM     39  H   UNL     1       5.888  -8.134  27.729  0.00  0.00    +0.210 HD
ENDBRANCH  37  38
ENDBRANCH  27  37
ENDBRANCH  24  25
ENDBRANCH   7  24
BRANCH   1  40
ATOM     40  O   UNL     1       8.274   2.967  22.964  0.00  0.00    -0.456 OA
BRANCH  40  42
ATOM     41  C   UNL     1       8.624   3.594  25.306  0.00  0.00    +0.109 C 
ATOM     42  C   UNL     1       9.264   3.345  23.940  0.00  0.00    +0.313 C 
ATOM     43  O   UNL     1       9.956   4.520  23.484  0.00  0.00    -0.310 OA
ATOM     44  C   UNL     1       9.171   5.701  23.443  0.00  0.00    +0.282 C 
ATOM     45  C   UNL     1       8.445   6.019  24.757  0.00  0.00    +0.199 C 
ATOM     46  C   UNL     1       7.691   4.792  25.267  0.00  0.00    +0.154 C 
BRANCH  46  47
ATOM     47  O   UNL     1       7.194   5.022  26.591  0.00  0.00    -0.389 OA
ATOM     48  H   UNL     1       7.900   5.461  27.100  0.00  0.00    +0.210 HD
ENDBRANCH  46  47
BRANCH  45  49
ATOM     49  O   UNL     1       7.523   7.105  24.603  0.00  0.00    -0.384 OA
ATOM     50  H   UNL     1       7.666   7.467  23.705  0.00  0.00    +0.210 HD
ENDBRANCH  45  49
BRANCH  44  51
ATOM     51  O   UNL     1       8.255   5.674  22.350  0.00  0.00    -0.365 OA
ATOM     52  H   UNL     1       8.714   6.109  21.606  0.00  0.00    +0.213 HD
ENDBRANCH  44  51
ENDBRANCH  40  42
ENDBRANCH   1  40
TORSDOF 16
ENDMDL
