MODEL 1
REMARK VINA RESULT:      -6.2      0.000      0.000
REMARK  Name = 
REMARK  32 active torsions:
REMARK  status: ('A' for Active; 'I' for Inactive)
REMARK    1  A    between atoms: C_1  and  O_2
REMARK    2  A    between atoms: O_2  and  C_3
REMARK    3  A    between atoms: C_5  and  C_12
REMARK    4  A    between atoms: C_7  and  O_10
REMARK    5  A    between atoms: C_8  and  O_9
REMARK    6  A    between atoms: O_10  and  C_11
REMARK    7  A    between atoms: C_13  and  C_14
REMARK    8  A    between atoms: C_14  and  O_16
REMARK    9  A    between atoms: O_16  and  C_17
REMARK   10  A    between atoms: C_17  and  C_18
REMARK   11  A    between atoms: C_19  and  O_78
REMARK   12  A    between atoms: C_21  and  O_77
REMARK   13  A    between atoms: C_22  and  O_76
REMARK   14  A    between atoms: C_24  and  O_27
REMARK   15  A    between atoms: O_27  and  C_28
REMARK   16  A    between atoms: C_29  and  O_40
REMARK   17  A    between atoms: C_32  and  C_38
REMARK   18  A    between atoms: C_33  and  O_37
REMARK   19  A    between atoms: C_35  and  O_36
REMARK   20  A    between atoms: C_38  and  O_39
REMARK   21  A    between atoms: O_40  and  C_41
REMARK   22  A    between atoms: C_42  and  O_75
REMARK   23  A    between atoms: C_44  and  O_74
REMARK   24  A    between atoms: C_46  and  C_72
REMARK   25  A    between atoms: C_48  and  O_50
REMARK   26  A    between atoms: O_50  and  C_51
REMARK   27  A    between atoms: C_52  and  C_64
REMARK   28  A    between atoms: C_56  and  O_63
REMARK   29  A    between atoms: C_58  and  O_62
REMARK   30  A    between atoms: C_66  and  O_71
REMARK   31  A    between atoms: C_67  and  O_70
REMARK   32  A    between atoms: C_72  and  O_73
REMARK                            x       y       z     vdW  Elec       q    Type
REMARK                         _______ _______ _______ _____ _____    ______ ____
ROOT
ATOM      1  C   UNL     1       6.514   2.212  25.472  0.00  0.00    +0.208 C 
ATOM      2  C   UNL     1       5.862   2.699  24.166  0.00  0.00    +0.179 C 
ATOM      3  C   UNL     1       5.273   4.109  24.336  0.00  0.00    +0.177 C 
ATOM      4  C   UNL     1       4.377   4.246  25.572  0.00  0.00    +0.178 C 
ATOM      5  O   UNL     1       5.035   3.749  26.740  0.00  0.00    -0.341 OA
ATOM      6  C   UNL     1       5.521   2.397  26.658  0.00  0.00    +0.283 C 
ENDROOT
BRANCH   3   7
ATOM      7  O   UNL     1       4.617   4.531  23.144  0.00  0.00    -0.386 OA
ATOM      8  H   UNL     1       4.799   5.480  23.018  0.00  0.00    +0.210 HD
ENDBRANCH   3   7
BRANCH   2   9
ATOM      9  O   UNL     1       4.941   1.718  23.688  0.00  0.00    -0.386 OA
ATOM     10  H   UNL     1       5.003   0.896  24.195  0.00  0.00    +0.210 HD
ENDBRANCH   2   9
BRANCH   6  11
ATOM     11  O   UNL     1       4.397   1.525  26.675  0.00  0.00    -0.337 OA
BRANCH  11  12
ATOM     12  C   UNL     1       4.093   0.854  27.906  0.00  0.00    +0.221 C 
ATOM     13  C   UNL     1       3.777  -0.633  27.618  0.00  0.00    +0.340 C 
ATOM     14  O   UNL     1       2.679  -0.735  26.691  0.00  0.00    -0.331 OA
ATOM     15  C   UNL     1       1.428  -0.242  27.221  0.00  0.00    +0.179 C 
ATOM     16  C   UNL     1       1.578   1.198  27.759  0.00  0.00    +0.177 C 
ATOM     17  C   UNL     1       2.831   1.374  28.632  0.00  0.00    +0.180 C 
BRANCH  17  18
ATOM     18  O   UNL     1       2.924   2.748  29.037  0.00  0.00    -0.386 OA
ATOM     19  H   UNL     1       2.230   3.253  28.579  0.00  0.00    +0.210 HD
ENDBRANCH  17  18
BRANCH  16  20
ATOM     20  O   UNL     1       0.443   1.640  28.505  0.00  0.00    -0.386 OA
ATOM     21  H   UNL     1      -0.301   1.643  27.873  0.00  0.00    +0.210 HD
ENDBRANCH  16  20
BRANCH  13  22
ATOM     22  O   UNL     1       4.922  -1.389  27.162  0.00  0.00    -0.453 OA
BRANCH  22  23
ATOM     23  C   UNL     1       4.942  -2.660  27.762  0.00  0.00    +0.214 A 
ATOM     24  C   UNL     1       4.141  -2.964  28.980  0.00  0.00    +0.238 A 
ATOM     25  O   UNL     1       3.836  -2.109  29.803  0.00  0.00    -0.283 OA
ATOM     26  C   UNL     1       3.787  -4.370  29.166  0.00  0.00    +0.109 A 
ATOM     27  C   UNL     1       4.683  -5.298  28.646  0.00  0.00    +0.147 A 
ATOM     28  C   UNL     1       4.459  -6.661  28.813  0.00  0.00    +0.092 A 
ATOM     29  C   UNL     1       3.290  -7.075  29.442  0.00  0.00    +0.124 A 
ATOM     30  C   UNL     1       2.371  -6.154  29.940  0.00  0.00    +0.091 A 
ATOM     31  O   UNL     1       5.798  -4.914  27.947  0.00  0.00    -0.451 OA
ATOM     32  C   UNL     1       2.628  -4.794  29.818  0.00  0.00    +0.135 A 
ATOM     33  C   UNL     1       5.784  -3.640  27.377  0.00  0.00    +0.181 A 
BRANCH  33  34
ATOM     34  C   UNL     1       6.975  -3.424  26.540  0.00  0.00    +0.025 A 
ATOM     35  C   UNL     1       7.389  -4.546  25.823  0.00  0.00    +0.015 A 
ATOM     36  C   UNL     1       8.468  -4.467  24.963  0.00  0.00    +0.050 A 
ATOM     37  C   UNL     1       9.166  -3.292  24.818  0.00  0.00    +0.158 A 
ATOM     38  C   UNL     1       8.735  -2.159  25.484  0.00  0.00    +0.159 A 
ATOM     39  C   UNL     1       7.636  -2.209  26.338  0.00  0.00    +0.060 A 
BRANCH  38  40
ATOM     40  O   UNL     1       9.428  -1.013  25.214  0.00  0.00    -0.503 OA
ATOM     41  H   UNL     1       9.572  -0.547  26.053  0.00  0.00    +0.292 HD
ENDBRANCH  38  40
BRANCH  37  42
ATOM     42  O   UNL     1      10.253  -3.266  23.996  0.00  0.00    -0.503 OA
ATOM     43  H   UNL     1      11.022  -3.371  24.587  0.00  0.00    +0.292 HD
ENDBRANCH  37  42
ENDBRANCH  33  34
BRANCH  32  44
ATOM     44  O   UNL     1       1.715  -3.897  30.297  0.00  0.00    -0.506 OA
ATOM     45  H   UNL     1       2.076  -2.998  30.223  0.00  0.00    +0.292 HD
ENDBRANCH  32  44
BRANCH  29  46
ATOM     46  O   UNL     1       2.989  -8.395  29.584  0.00  0.00    -0.507 OA
ATOM     47  H   UNL     1       2.409  -8.508  30.355  0.00  0.00    +0.292 HD
ENDBRANCH  29  46
ENDBRANCH  22  23
ENDBRANCH  13  22
BRANCH  15  48
ATOM     48  C   UNL     1       0.826  -1.288  28.183  0.00  0.00    +0.190 C 
BRANCH  48  49
ATOM     49  O   UNL     1       1.062  -1.004  29.554  0.00  0.00    -0.392 OA
ATOM     50  H   UNL     1       0.224  -0.672  29.918  0.00  0.00    +0.210 HD
ENDBRANCH  48  49
ENDBRANCH  15  48
ENDBRANCH  11  12
ENDBRANCH   6  11
BRANCH   4  51
ATOM     51  C   UNL     1       2.942   3.708  25.427  0.00  0.00    +0.190 C 
BRANCH  51  52
ATOM     52  O   UNL     1       2.842   2.929  24.234  0.00  0.00    -0.392 OA
ATOM     53  H   UNL     1       2.396   3.512  23.589  0.00  0.00    +0.210 HD
ENDBRANCH  51  52
ENDBRANCH   4  51
BRANCH   1  54
ATOM     54  O   UNL     1       7.713   2.922  25.829  0.00  0.00    -0.338 OA
BRANCH  54  57
ATOM     55  C   UNL     1      10.640   2.453  23.679  0.00  0.00    +0.190 C 
ATOM     56  O   UNL     1       9.738   2.281  24.793  0.00  0.00    -0.339 OA
ATOM     57  C   UNL     1       8.635   3.182  24.775  0.00  0.00    +0.282 C 
ATOM     58  C   UNL     1       9.152   4.623  24.945  0.00  0.00    +0.201 C 
ATOM     59  C   UNL     1      10.074   4.956  23.764  0.00  0.00    +0.179 C 
ATOM     60  C   UNL     1      11.177   3.898  23.599  0.00  0.00    +0.178 C 
BRANCH  60  61
ATOM     61  O   UNL     1      11.848   4.104  22.354  0.00  0.00    -0.386 OA
ATOM     62  H   UNL     1      11.359   4.784  21.858  0.00  0.00    +0.210 HD
ENDBRANCH  60  61
BRANCH  58  63
ATOM     63  O   UNL     1       8.098   5.593  25.019  0.00  0.00    -0.384 OA
ATOM     64  H   UNL     1       7.917   5.930  24.126  0.00  0.00    +0.210 HD
ENDBRANCH  58  63
BRANCH  59  65
ATOM     65  O   UNL     1      10.686   6.247  23.938  0.00  0.00    -0.386 OA
ATOM     66  H   UNL     1       9.983   6.919  23.989  0.00  0.00    +0.210 HD
ENDBRANCH  59  65
BRANCH  55  67
ATOM     67  C   UNL     1      10.023   1.946  22.360  0.00  0.00    +0.266 C 
BRANCH  67  68
ATOM     68  O   UNL     1       9.442   0.639  22.543  0.00  0.00    -0.459 OA
BRANCH  68  69
ATOM     69  C   UNL     1       8.132   0.513  22.215  0.00  0.00    +0.332 C 
ATOM     70  O   UNL     1       7.384   1.425  21.897  0.00  0.00    -0.246 OA
BRANCH  69  72
ATOM     71  C   UNL     1       6.432  -1.195  22.789  0.00  0.00    +0.015 C 
ATOM     72  C   UNL     1       7.667  -0.884  22.370  0.00  0.00    +0.092 C 
BRANCH  71  77
ATOM     73  C   UNL     1       4.451  -4.235  23.841  0.00  0.00    +0.166 A 
ATOM     74  C   UNL     1       4.994  -5.208  22.988  0.00  0.00    +0.201 A 
ATOM     75  C   UNL     1       5.983  -4.862  22.049  0.00  0.00    +0.166 A 
ATOM     76  C   UNL     1       6.425  -3.538  21.966  0.00  0.00    +0.057 A 
ATOM     77  C   UNL     1       5.916  -2.567  22.839  0.00  0.00    -0.018 A 
ATOM     78  C   UNL     1       4.928  -2.919  23.764  0.00  0.00    +0.057 A 
BRANCH  73  80
ATOM     79  C   UNL     1       2.149  -4.712  24.308  0.00  0.00    +0.277 C 
ATOM     80  O   UNL     1       3.453  -4.388  24.769  0.00  0.00    -0.491 OA
ENDBRANCH  73  80
BRANCH  75  81
ATOM     81  O   UNL     1       6.686  -5.835  21.375  0.00  0.00    -0.491 OA
ATOM     82  C   UNL     1       7.553  -6.645  22.169  0.00  0.00    +0.277 C 
ENDBRANCH  75  81
BRANCH  74  83
ATOM     83  O   UNL     1       4.529  -6.497  23.027  0.00  0.00    -0.501 OA
ATOM     84  H   UNL     1       3.575  -6.468  22.855  0.00  0.00    +0.292 HD
ENDBRANCH  74  83
ENDBRANCH  71  77
ENDBRANCH  69  72
ENDBRANCH  68  69
ENDBRANCH  67  68
ENDBRANCH  55  67
ENDBRANCH  54  57
ENDBRANCH   1  54
TORSDOF 30
ENDMDL
MODEL 2
REMARK VINA RESULT:      -5.2      2.206      5.828
REMARK  Name = 
REMARK  32 active torsions:
REMARK  status: ('A' for Active; 'I' for Inactive)
REMARK    1  A    between atoms: C_1  and  O_2
REMARK    2  A    between atoms: O_2  and  C_3
REMARK    3  A    between atoms: C_5  and  C_12
REMARK    4  A    between atoms: C_7  and  O_10
REMARK    5  A    between atoms: C_8  and  O_9
REMARK    6  A    between atoms: O_10  and  C_11
REMARK    7  A    between atoms: C_13  and  C_14
REMARK    8  A    between atoms: C_14  and  O_16
REMARK    9  A    between atoms: O_16  and  C_17
REMARK   10  A    between atoms: C_17  and  C_18
REMARK   11  A    between atoms: C_19  and  O_78
REMARK   12  A    between atoms: C_21  and  O_77
REMARK   13  A    between atoms: C_22  and  O_76
REMARK   14  A    between atoms: C_24  and  O_27
REMARK   15  A    between atoms: O_27  and  C_28
REMARK   16  A    between atoms: C_29  and  O_40
REMARK   17  A    between atoms: C_32  and  C_38
REMARK   18  A    between atoms: C_33  and  O_37
REMARK   19  A    between atoms: C_35  and  O_36
REMARK   20  A    between atoms: C_38  and  O_39
REMARK   21  A    between atoms: O_40  and  C_41
REMARK   22  A    between atoms: C_42  and  O_75
REMARK   23  A    between atoms: C_44  and  O_74
REMARK   24  A    between atoms: C_46  and  C_72
REMARK   25  A    between atoms: C_48  and  O_50
REMARK   26  A    between atoms: O_50  and  C_51
REMARK   27  A    between atoms: C_52  and  C_64
REMARK   28  A    between atoms: C_56  and  O_63
REMARK   29  A    between atoms: C_58  and  O_62
REMARK   30  A    between atoms: C_66  and  O_71
REMARK   31  A    between atoms: C_67  and  O_70
REMARK   32  A    between atoms: C_72  and  O_73
REMARK                            x       y       z     vdW  Elec       q    Type
REMARK                         _______ _______ _______ _____ _____    ______ ____
ROOT
ATOM      1  C   UNL     1       6.315   1.516  25.793  0.00  0.00    +0.208 C 
ATOM      2  C   UNL     1       5.494   2.370  24.811  0.00  0.00    +0.179 C 
ATOM      3  C   UNL     1       4.899   3.602  25.513  0.00  0.00    +0.177 C 
ATOM      4  C   UNL     1       4.162   3.262  26.813  0.00  0.00    +0.178 C 
ATOM      5  O   UNL     1       4.972   2.444  27.663  0.00  0.00    -0.341 OA
ATOM      6  C   UNL     1       5.473   1.231  27.074  0.00  0.00    +0.283 C 
ENDROOT
BRANCH   3   7
ATOM      7  O   UNL     1       4.091   4.356  24.615  0.00  0.00    -0.386 OA
ATOM      8  H   UNL     1       4.632   5.083  24.258  0.00  0.00    +0.210 HD
ENDBRANCH   3   7
BRANCH   2   9
ATOM      9  O   UNL     1       4.541   1.549  24.133  0.00  0.00    -0.386 OA
ATOM     10  H   UNL     1       3.917   2.082  23.620  0.00  0.00    +0.210 HD
ENDBRANCH   2   9
BRANCH   6  11
ATOM     11  O   UNL     1       4.380   0.335  26.918  0.00  0.00    -0.337 OA
BRANCH  11  12
ATOM     12  C   UNL     1       4.140  -0.613  27.967  0.00  0.00    +0.221 C 
ATOM     13  C   UNL     1       3.945  -2.020  27.356  0.00  0.00    +0.340 C 
ATOM     14  O   UNL     1       2.852  -2.004  26.417  0.00  0.00    -0.331 OA
ATOM     15  C   UNL     1       1.569  -1.743  27.029  0.00  0.00    +0.179 C 
ATOM     16  C   UNL     1       1.605  -0.450  27.872  0.00  0.00    +0.177 C 
ATOM     17  C   UNL     1       2.846  -0.369  28.776  0.00  0.00    +0.180 C 
BRANCH  17  18
ATOM     18  O   UNL     1       2.830   0.885  29.475  0.00  0.00    -0.386 OA
ATOM     19  H   UNL     1       3.101   0.728  30.396  0.00  0.00    +0.210 HD
ENDBRANCH  17  18
BRANCH  16  20
ATOM     20  O   UNL     1       0.443  -0.276  28.684  0.00  0.00    -0.386 OA
ATOM     21  H   UNL     1       0.097  -1.175  28.842  0.00  0.00    +0.210 HD
ENDBRANCH  16  20
BRANCH  13  22
ATOM     22  O   UNL     1       5.144  -2.563  26.758  0.00  0.00    -0.453 OA
BRANCH  22  23
ATOM     23  C   UNL     1       4.923  -3.880  26.320  0.00  0.00    +0.214 A 
ATOM     24  C   UNL     1       4.319  -4.910  27.210  0.00  0.00    +0.238 A 
ATOM     25  O   UNL     1       4.431  -4.879  28.430  0.00  0.00    -0.283 OA
ATOM     26  C   UNL     1       3.629  -6.003  26.530  0.00  0.00    +0.109 A 
ATOM     27  C   UNL     1       4.110  -6.338  25.269  0.00  0.00    +0.147 A 
ATOM     28  C   UNL     1       3.550  -7.396  24.560  0.00  0.00    +0.092 A 
ATOM     29  C   UNL     1       2.456  -8.061  25.104  0.00  0.00    +0.124 A 
ATOM     30  C   UNL     1       1.946  -7.714  26.353  0.00  0.00    +0.091 A 
ATOM     31  O   UNL     1       5.132  -5.641  24.676  0.00  0.00    -0.451 OA
ATOM     32  C   UNL     1       2.546  -6.692  27.079  0.00  0.00    +0.135 A 
ATOM     33  C   UNL     1       5.365  -4.343  25.134  0.00  0.00    +0.181 A 
BRANCH  33  34
ATOM     34  C   UNL     1       6.384  -3.670  24.312  0.00  0.00    +0.025 A 
ATOM     35  C   UNL     1       5.907  -3.153  23.108  0.00  0.00    +0.015 A 
ATOM     36  C   UNL     1       6.751  -2.458  22.264  0.00  0.00    +0.050 A 
ATOM     37  C   UNL     1       8.077  -2.283  22.582  0.00  0.00    +0.158 A 
ATOM     38  C   UNL     1       8.550  -2.746  23.797  0.00  0.00    +0.159 A 
ATOM     39  C   UNL     1       7.713  -3.430  24.674  0.00  0.00    +0.060 A 
BRANCH  38  40
ATOM     40  O   UNL     1       9.855  -2.452  24.075  0.00  0.00    -0.503 OA
ATOM     41  H   UNL     1      10.142  -3.027  24.802  0.00  0.00    +0.292 HD
ENDBRANCH  38  40
BRANCH  37  42
ATOM     42  O   UNL     1       8.888  -1.631  21.702  0.00  0.00    -0.503 OA
ATOM     43  H   UNL     1       8.629  -0.692  21.764  0.00  0.00    +0.292 HD
ENDBRANCH  37  42
ENDBRANCH  33  34
BRANCH  32  44
ATOM     44  O   UNL     1       2.031  -6.350  28.297  0.00  0.00    -0.506 OA
ATOM     45  H   UNL     1       1.556  -7.109  28.673  0.00  0.00    +0.292 HD
ENDBRANCH  32  44
BRANCH  29  46
ATOM     46  O   UNL     1       1.831  -9.066  24.432  0.00  0.00    -0.507 OA
ATOM     47  H   UNL     1       0.900  -9.104  24.709  0.00  0.00    +0.292 HD
ENDBRANCH  29  46
ENDBRANCH  22  23
ENDBRANCH  13  22
BRANCH  15  48
ATOM     48  C   UNL     1       1.061  -3.021  27.731  0.00  0.00    +0.190 C 
BRANCH  48  49
ATOM     49  O   UNL     1       1.813  -3.376  28.881  0.00  0.00    -0.392 OA
ATOM     50  H   UNL     1       2.553  -3.925  28.571  0.00  0.00    +0.210 HD
ENDBRANCH  48  49
ENDBRANCH  15  48
ENDBRANCH  11  12
ENDBRANCH   6  11
BRANCH   4  51
ATOM     51  C   UNL     1       2.733   2.713  26.653  0.00  0.00    +0.190 C 
BRANCH  51  52
ATOM     52  O   UNL     1       1.931   3.139  27.757  0.00  0.00    -0.392 OA
ATOM     53  H   UNL     1       2.053   2.448  28.438  0.00  0.00    +0.210 HD
ENDBRANCH  51  52
ENDBRANCH   4  51
BRANCH   1  54
ATOM     54  O   UNL     1       7.533   2.141  26.235  0.00  0.00    -0.338 OA
BRANCH  54  57
ATOM     55  C   UNL     1       8.986   3.531  23.175  0.00  0.00    +0.190 C 
ATOM     56  O   UNL     1       7.992   3.168  24.157  0.00  0.00    -0.339 OA
ATOM     57  C   UNL     1       8.514   2.398  25.236  0.00  0.00    +0.282 C 
ATOM     58  C   UNL     1       9.009   1.041  24.700  0.00  0.00    +0.201 C 
ATOM     59  C   UNL     1      10.136   1.293  23.690  0.00  0.00    +0.179 C 
ATOM     60  C   UNL     1       9.701   2.288  22.602  0.00  0.00    +0.178 C 
BRANCH  60  61
ATOM     61  O   UNL     1      10.842   2.687  21.841  0.00  0.00    -0.386 OA
ATOM     62  H   UNL     1      10.539   2.922  20.946  0.00  0.00    +0.210 HD
ENDBRANCH  60  61
BRANCH  58  63
ATOM     63  O   UNL     1       9.478   0.166  25.734  0.00  0.00    -0.384 OA
ATOM     64  H   UNL     1       9.044   0.405  26.570  0.00  0.00    +0.210 HD
ENDBRANCH  58  63
BRANCH  59  65
ATOM     65  O   UNL     1      10.549   0.066  23.063  0.00  0.00    -0.386 OA
ATOM     66  H   UNL     1      11.308   0.255  22.482  0.00  0.00    +0.210 HD
ENDBRANCH  59  65
BRANCH  55  67
ATOM     67  C   UNL     1       9.950   4.610  23.709  0.00  0.00    +0.266 C 
BRANCH  67  68
ATOM     68  O   UNL     1       9.226   5.807  24.056  0.00  0.00    -0.459 OA
BRANCH  68  69
ATOM     69  C   UNL     1       9.688   6.499  25.128  0.00  0.00    +0.332 C 
ATOM     70  O   UNL     1      10.748   7.102  25.187  0.00  0.00    -0.246 OA
BRANCH  69  72
ATOM     71  C   UNL     1       7.456   6.590  26.201  0.00  0.00    +0.015 C 
ATOM     72  C   UNL     1       8.776   6.371  26.288  0.00  0.00    +0.092 C 
BRANCH  71  77
ATOM     73  C   UNL     1       6.008   5.322  29.452  0.00  0.00    +0.166 A 
ATOM     74  C   UNL     1       4.707   5.843  29.378  0.00  0.00    +0.201 A 
ATOM     75  C   UNL     1       4.316   6.632  28.281  0.00  0.00    +0.166 A 
ATOM     76  C   UNL     1       5.232   6.902  27.260  0.00  0.00    +0.057 A 
ATOM     77  C   UNL     1       6.523   6.357  27.307  0.00  0.00    -0.018 A 
ATOM     78  C   UNL     1       6.905   5.578  28.404  0.00  0.00    +0.057 A 
BRANCH  73  80
ATOM     79  C   UNL     1       7.215   3.366  30.129  0.00  0.00    +0.277 C 
ATOM     80  O   UNL     1       6.565   4.584  30.464  0.00  0.00    -0.491 OA
ENDBRANCH  73  80
BRANCH  75  81
ATOM     81  O   UNL     1       2.992   6.951  28.079  0.00  0.00    -0.491 OA
ATOM     82  C   UNL     1       2.456   6.617  26.798  0.00  0.00    +0.277 C 
ENDBRANCH  75  81
BRANCH  74  83
ATOM     83  O   UNL     1       3.819   5.627  30.399  0.00  0.00    -0.501 OA
ATOM     84  H   UNL     1       3.621   6.488  30.800  0.00  0.00    +0.292 HD
ENDBRANCH  74  83
ENDBRANCH  71  77
ENDBRANCH  69  72
ENDBRANCH  68  69
ENDBRANCH  67  68
ENDBRANCH  55  67
ENDBRANCH  54  57
ENDBRANCH   1  54
TORSDOF 30
ENDMDL
MODEL 3
REMARK VINA RESULT:      -5.2      2.099      5.467
REMARK  Name = 
REMARK  32 active torsions:
REMARK  status: ('A' for Active; 'I' for Inactive)
REMARK    1  A    between atoms: C_1  and  O_2
REMARK    2  A    between atoms: O_2  and  C_3
REMARK    3  A    between atoms: C_5  and  C_12
REMARK    4  A    between atoms: C_7  and  O_10
REMARK    5  A    between atoms: C_8  and  O_9
REMARK    6  A    between atoms: O_10  and  C_11
REMARK    7  A    between atoms: C_13  and  C_14
REMARK    8  A    between atoms: C_14  and  O_16
REMARK    9  A    between atoms: O_16  and  C_17
REMARK   10  A    between atoms: C_17  and  C_18
REMARK   11  A    between atoms: C_19  and  O_78
REMARK   12  A    between atoms: C_21  and  O_77
REMARK   13  A    between atoms: C_22  and  O_76
REMARK   14  A    between atoms: C_24  and  O_27
REMARK   15  A    between atoms: O_27  and  C_28
REMARK   16  A    between atoms: C_29  and  O_40
REMARK   17  A    between atoms: C_32  and  C_38
REMARK   18  A    between atoms: C_33  and  O_37
REMARK   19  A    between atoms: C_35  and  O_36
REMARK   20  A    between atoms: C_38  and  O_39
REMARK   21  A    between atoms: O_40  and  C_41
REMARK   22  A    between atoms: C_42  and  O_75
REMARK   23  A    between atoms: C_44  and  O_74
REMARK   24  A    between atoms: C_46  and  C_72
REMARK   25  A    between atoms: C_48  and  O_50
REMARK   26  A    between atoms: O_50  and  C_51
REMARK   27  A    between atoms: C_52  and  C_64
REMARK   28  A    between atoms: C_56  and  O_63
REMARK   29  A    between atoms: C_58  and  O_62
REMARK   30  A    between atoms: C_66  and  O_71
REMARK   31  A    between atoms: C_67  and  O_70
REMARK   32  A    between atoms: C_72  and  O_73
REMARK                            x       y       z     vdW  Elec       q    Type
REMARK                         _______ _______ _______ _____ _____    ______ ____
ROOT
ATOM      1  C   UNL     1       6.627   0.599  25.993  0.00  0.00    +0.208 C 
ATOM      2  C   UNL     1       5.640   1.107  24.927  0.00  0.00    +0.179 C 
ATOM      3  C   UNL     1       4.739   2.216  25.492  0.00  0.00    +0.177 C 
ATOM      4  C   UNL     1       4.082   1.843  26.825  0.00  0.00    +0.178 C 
ATOM      5  O   UNL     1       5.052   1.353  27.756  0.00  0.00    -0.341 OA
ATOM      6  C   UNL     1       5.855   0.250  27.301  0.00  0.00    +0.283 C 
ENDROOT
BRANCH   3   7
ATOM      7  O   UNL     1       3.788   2.641  24.521  0.00  0.00    -0.386 OA
ATOM      8  H   UNL     1       4.269   2.870  23.705  0.00  0.00    +0.210 HD
ENDBRANCH   3   7
BRANCH   2   9
ATOM      9  O   UNL     1       4.941   0.004  24.348  0.00  0.00    -0.386 OA
ATOM     10  H   UNL     1       4.920   0.066  23.382  0.00  0.00    +0.210 HD
ENDBRANCH   2   9
BRANCH   6  11
ATOM     11  O   UNL     1       5.026  -0.905  27.250  0.00  0.00    -0.337 OA
BRANCH  11  12
ATOM     12  C   UNL     1       5.052  -1.794  28.375  0.00  0.00    +0.221 C 
ATOM     13  C   UNL     1       4.757  -3.236  27.899  0.00  0.00    +0.340 C 
ATOM     14  O   UNL     1       3.480  -3.285  27.233  0.00  0.00    -0.331 OA
ATOM     15  C   UNL     1       2.362  -3.004  28.104  0.00  0.00    +0.179 C 
ATOM     16  C   UNL     1       2.557  -1.664  28.849  0.00  0.00    +0.177 C 
ATOM     17  C   UNL     1       3.968  -1.519  29.442  0.00  0.00    +0.180 C 
BRANCH  17  18
ATOM     18  O   UNL     1       4.081  -0.228  30.059  0.00  0.00    -0.386 OA
ATOM     19  H   UNL     1       4.977  -0.140  30.428  0.00  0.00    +0.210 HD
ENDBRANCH  17  18
BRANCH  16  20
ATOM     20  O   UNL     1       1.605  -1.458  29.892  0.00  0.00    -0.386 OA
ATOM     21  H   UNL     1       2.129  -1.232  30.684  0.00  0.00    +0.210 HD
ENDBRANCH  16  20
BRANCH  13  22
ATOM     22  O   UNL     1       5.802  -3.799  27.074  0.00  0.00    -0.453 OA
BRANCH  22  23
ATOM     23  C   UNL     1       5.290  -4.827  26.264  0.00  0.00    +0.214 A 
ATOM     24  C   UNL     1       4.681  -6.054  26.848  0.00  0.00    +0.238 A 
ATOM     25  O   UNL     1       5.001  -6.495  27.945  0.00  0.00    -0.283 OA
ATOM     26  C   UNL     1       3.709  -6.740  25.998  0.00  0.00    +0.109 A 
ATOM     27  C   UNL     1       3.906  -6.620  24.627  0.00  0.00    +0.147 A 
ATOM     28  C   UNL     1       3.063  -7.274  23.735  0.00  0.00    +0.092 A 
ATOM     29  C   UNL     1       1.981  -7.988  24.239  0.00  0.00    +0.124 A 
ATOM     30  C   UNL     1       1.756  -8.090  25.610  0.00  0.00    +0.091 A 
ATOM     31  O   UNL     1       4.915  -5.851  24.106  0.00  0.00    -0.451 OA
ATOM     32  C   UNL     1       2.634  -7.479  26.497  0.00  0.00    +0.135 A 
ATOM     33  C   UNL     1       5.439  -4.849  24.925  0.00  0.00    +0.181 A 
BRANCH  33  34
ATOM     34  C   UNL     1       6.403  -4.017  24.187  0.00  0.00    +0.025 A 
ATOM     35  C   UNL     1       5.855  -3.307  23.119  0.00  0.00    +0.015 A 
ATOM     36  C   UNL     1       6.644  -2.453  22.371  0.00  0.00    +0.050 A 
ATOM     37  C   UNL     1       7.981  -2.304  22.650  0.00  0.00    +0.158 A 
ATOM     38  C   UNL     1       8.525  -2.963  23.738  0.00  0.00    +0.159 A 
ATOM     39  C   UNL     1       7.746  -3.812  24.520  0.00  0.00    +0.060 A 
BRANCH  38  40
ATOM     40  O   UNL     1       9.838  -2.691  24.001  0.00  0.00    -0.503 OA
ATOM     41  H   UNL     1      10.376  -3.372  23.567  0.00  0.00    +0.292 HD
ENDBRANCH  38  40
BRANCH  37  42
ATOM     42  O   UNL     1       8.734  -1.487  21.861  0.00  0.00    -0.503 OA
ATOM     43  H   UNL     1       9.640  -1.554  22.217  0.00  0.00    +0.292 HD
ENDBRANCH  37  42
ENDBRANCH  33  34
BRANCH  32  44
ATOM     44  O   UNL     1       2.400  -7.573  27.839  0.00  0.00    -0.506 OA
ATOM     45  H   UNL     1       2.055  -6.725  28.167  0.00  0.00    +0.292 HD
ENDBRANCH  32  44
BRANCH  29  46
ATOM     46  O   UNL     1       1.089  -8.602  23.413  0.00  0.00    -0.507 OA
ATOM     47  H   UNL     1       1.310  -8.389  22.491  0.00  0.00    +0.292 HD
ENDBRANCH  29  46
ENDBRANCH  22  23
ENDBRANCH  13  22
BRANCH  15  48
ATOM     48  C   UNL     1       2.056  -4.245  28.970  0.00  0.00    +0.190 C 
BRANCH  48  49
ATOM     49  O   UNL     1       0.907  -4.097  29.791  0.00  0.00    -0.392 OA
ATOM     50  H   UNL     1       0.271  -3.562  29.287  0.00  0.00    +0.210 HD
ENDBRANCH  48  49
ENDBRANCH  15  48
ENDBRANCH  11  12
ENDBRANCH   6  11
BRANCH   4  51
ATOM     51  C   UNL     1       2.840   0.937  26.734  0.00  0.00    +0.190 C 
BRANCH  51  52
ATOM     52  O   UNL     1       1.792   1.630  26.054  0.00  0.00    -0.392 OA
ATOM     53  H   UNL     1       2.249   2.210  25.412  0.00  0.00    +0.210 HD
ENDBRANCH  51  52
ENDBRANCH   4  51
BRANCH   1  54
ATOM     54  O   UNL     1       7.638   1.554  26.358  0.00  0.00    -0.338 OA
BRANCH  54  57
ATOM     55  C   UNL     1       8.766   3.175  23.274  0.00  0.00    +0.190 C 
ATOM     56  O   UNL     1       7.871   2.666  24.286  0.00  0.00    -0.339 OA
ATOM     57  C   UNL     1       8.534   1.956  25.327  0.00  0.00    +0.282 C 
ATOM     58  C   UNL     1       9.183   0.686  24.744  0.00  0.00    +0.201 C 
ATOM     59  C   UNL     1      10.224   1.103  23.697  0.00  0.00    +0.179 C 
ATOM     60  C   UNL     1       9.616   2.048  22.648  0.00  0.00    +0.178 C 
BRANCH  60  61
ATOM     61  O   UNL     1      10.662   2.608  21.851  0.00  0.00    -0.386 OA
ATOM     62  H   UNL     1      11.284   1.893  21.627  0.00  0.00    +0.210 HD
ENDBRANCH  60  61
BRANCH  58  63
ATOM     63  O   UNL     1       9.807  -0.135  25.741  0.00  0.00    -0.384 OA
ATOM     64  H   UNL     1      10.520  -0.648  25.325  0.00  0.00    +0.210 HD
ENDBRANCH  58  63
BRANCH  59  65
ATOM     65  O   UNL     1      10.770  -0.048  23.028  0.00  0.00    -0.386 OA
ATOM     66  H   UNL     1      10.070  -0.720  22.946  0.00  0.00    +0.210 HD
ENDBRANCH  59  65
BRANCH  55  67
ATOM     67  C   UNL     1       9.600   4.364  23.793  0.00  0.00    +0.266 C 
BRANCH  67  68
ATOM     68  O   UNL     1       9.020   5.612  23.362  0.00  0.00    -0.459 OA
BRANCH  68  69
ATOM     69  C   UNL     1       8.550   6.425  24.341  0.00  0.00    +0.332 C 
ATOM     70  O   UNL     1       9.230   7.108  25.092  0.00  0.00    -0.246 OA
BRANCH  69  72
ATOM     71  C   UNL     1       6.264   6.253  23.400  0.00  0.00    +0.015 C 
ATOM     72  C   UNL     1       7.078   6.329  24.463  0.00  0.00    +0.092 C 
BRANCH  71  77
ATOM     73  C   UNL     1       2.782   5.975  24.838  0.00  0.00    +0.166 A 
ATOM     74  C   UNL     1       2.067   5.553  23.707  0.00  0.00    +0.201 A 
ATOM     75  C   UNL     1       2.717   5.390  22.471  0.00  0.00    +0.166 A 
ATOM     76  C   UNL     1       4.086   5.655  22.369  0.00  0.00    +0.057 A 
ATOM     77  C   UNL     1       4.817   6.042  23.500  0.00  0.00    -0.018 A 
ATOM     78  C   UNL     1       4.161   6.206  24.725  0.00  0.00    +0.057 A 
BRANCH  73  80
ATOM     79  C   UNL     1       2.141   5.140  26.991  0.00  0.00    +0.277 C 
ATOM     80  O   UNL     1       2.300   6.231  26.095  0.00  0.00    -0.491 OA
ENDBRANCH  73  80
BRANCH  75  81
ATOM     81  O   UNL     1       2.088   4.760  21.421  0.00  0.00    -0.491 OA
ATOM     82  C   UNL     1       2.359   3.365  21.275  0.00  0.00    +0.277 C 
ENDBRANCH  75  81
BRANCH  74  83
ATOM     83  O   UNL     1       0.714   5.343  23.786  0.00  0.00    -0.501 OA
ATOM     84  H   UNL     1       0.307   6.172  24.081  0.00  0.00    +0.292 HD
ENDBRANCH  74  83
ENDBRANCH  71  77
ENDBRANCH  69  72
ENDBRANCH  68  69
ENDBRANCH  67  68
ENDBRANCH  55  67
ENDBRANCH  54  57
ENDBRANCH   1  54
TORSDOF 30
ENDMDL
MODEL 4
REMARK VINA RESULT:      -4.9      2.061      6.413
REMARK  Name = 
REMARK  32 active torsions:
REMARK  status: ('A' for Active; 'I' for Inactive)
REMARK    1  A    between atoms: C_1  and  O_2
REMARK    2  A    between atoms: O_2  and  C_3
REMARK    3  A    between atoms: C_5  and  C_12
REMARK    4  A    between atoms: C_7  and  O_10
REMARK    5  A    between atoms: C_8  and  O_9
REMARK    6  A    between atoms: O_10  and  C_11
REMARK    7  A    between atoms: C_13  and  C_14
REMARK    8  A    between atoms: C_14  and  O_16
REMARK    9  A    between atoms: O_16  and  C_17
REMARK   10  A    between atoms: C_17  and  C_18
REMARK   11  A    between atoms: C_19  and  O_78
REMARK   12  A    between atoms: C_21  and  O_77
REMARK   13  A    between atoms: C_22  and  O_76
REMARK   14  A    between atoms: C_24  and  O_27
REMARK   15  A    between atoms: O_27  and  C_28
REMARK   16  A    between atoms: C_29  and  O_40
REMARK   17  A    between atoms: C_32  and  C_38
REMARK   18  A    between atoms: C_33  and  O_37
REMARK   19  A    between atoms: C_35  and  O_36
REMARK   20  A    between atoms: C_38  and  O_39
REMARK   21  A    between atoms: O_40  and  C_41
REMARK   22  A    between atoms: C_42  and  O_75
REMARK   23  A    between atoms: C_44  and  O_74
REMARK   24  A    between atoms: C_46  and  C_72
REMARK   25  A    between atoms: C_48  and  O_50
REMARK   26  A    between atoms: O_50  and  C_51
REMARK   27  A    between atoms: C_52  and  C_64
REMARK   28  A    between atoms: C_56  and  O_63
REMARK   29  A    between atoms: C_58  and  O_62
REMARK   30  A    between atoms: C_66  and  O_71
REMARK   31  A    between atoms: C_67  and  O_70
REMARK   32  A    between atoms: C_72  and  O_73
REMARK                            x       y       z     vdW  Elec       q    Type
REMARK                         _______ _______ _______ _____ _____    ______ ____
ROOT
ATOM      1  C   UNL     1       5.272   1.046  26.279  0.00  0.00    +0.208 C 
ATOM      2  C   UNL     1       6.741   1.503  26.308  0.00  0.00    +0.179 C 
ATOM      3  C   UNL     1       7.606   0.643  25.372  0.00  0.00    +0.177 C 
ATOM      4  C   UNL     1       7.417  -0.862  25.585  0.00  0.00    +0.178 C 
ATOM      5  O   UNL     1       6.029  -1.211  25.576  0.00  0.00    -0.341 OA
ATOM      6  C   UNL     1       5.197  -0.495  26.505  0.00  0.00    +0.283 C 
ENDROOT
BRANCH   3   7
ATOM      7  O   UNL     1       8.975   1.032  25.447  0.00  0.00    -0.386 OA
ATOM      8  H   UNL     1       9.372   0.594  26.221  0.00  0.00    +0.210 HD
ENDBRANCH   3   7
BRANCH   2   9
ATOM      9  O   UNL     1       7.203   1.571  27.658  0.00  0.00    -0.386 OA
ATOM     10  H   UNL     1       7.432   0.694  27.998  0.00  0.00    +0.210 HD
ENDBRANCH   2   9
BRANCH   6  11
ATOM     11  O   UNL     1       5.508  -0.951  27.816  0.00  0.00    -0.337 OA
BRANCH  11  12
ATOM     12  C   UNL     1       4.448  -1.528  28.590  0.00  0.00    +0.221 C 
ATOM     13  C   UNL     1       4.018  -2.871  27.954  0.00  0.00    +0.340 C 
ATOM     14  O   UNL     1       3.605  -2.662  26.590  0.00  0.00    -0.331 OA
ATOM     15  C   UNL     1       2.412  -1.856  26.464  0.00  0.00    +0.179 C 
ATOM     16  C   UNL     1       2.562  -0.516  27.217  0.00  0.00    +0.177 C 
ATOM     17  C   UNL     1       3.146  -0.694  28.628  0.00  0.00    +0.180 C 
BRANCH  17  18
ATOM     18  O   UNL     1       3.307   0.599  29.230  0.00  0.00    -0.386 OA
ATOM     19  H   UNL     1       4.233   0.693  29.515  0.00  0.00    +0.210 HD
ENDBRANCH  17  18
BRANCH  16  20
ATOM     20  O   UNL     1       1.336   0.208  27.326  0.00  0.00    -0.386 OA
ATOM     21  H   UNL     1       1.048   0.376  26.408  0.00  0.00    +0.210 HD
ENDBRANCH  16  20
BRANCH  13  22
ATOM     22  O   UNL     1       5.025  -3.904  28.047  0.00  0.00    -0.453 OA
BRANCH  22  23
ATOM     23  C   UNL     1       4.582  -5.080  27.418  0.00  0.00    +0.214 A 
ATOM     24  C   UNL     1       3.499  -5.919  28.001  0.00  0.00    +0.238 A 
ATOM     25  O   UNL     1       3.273  -5.969  29.204  0.00  0.00    -0.283 OA
ATOM     26  C   UNL     1       2.752  -6.735  27.045  0.00  0.00    +0.109 A 
ATOM     27  C   UNL     1       3.453  -7.150  25.918  0.00  0.00    +0.147 A 
ATOM     28  C   UNL     1       2.844  -7.969  24.973  0.00  0.00    +0.092 A 
ATOM     29  C   UNL     1       1.504  -8.302  25.140  0.00  0.00    +0.124 A 
ATOM     30  C   UNL     1       0.784  -7.868  26.250  0.00  0.00    +0.091 A 
ATOM     31  O   UNL     1       4.748  -6.762  25.688  0.00  0.00    -0.451 OA
ATOM     32  C   UNL     1       1.414  -7.095  27.218  0.00  0.00    +0.135 A 
ATOM     33  C   UNL     1       5.191  -5.608  26.337  0.00  0.00    +0.181 A 
BRANCH  33  34
ATOM     34  C   UNL     1       6.541  -5.235  25.885  0.00  0.00    +0.025 A 
ATOM     35  C   UNL     1       6.581  -4.612  24.638  0.00  0.00    +0.015 A 
ATOM     36  C   UNL     1       7.782  -4.170  24.117  0.00  0.00    +0.050 A 
ATOM     37  C   UNL     1       8.958  -4.356  24.804  0.00  0.00    +0.158 A 
ATOM     38  C   UNL     1       8.925  -4.927  26.063  0.00  0.00    +0.159 A 
ATOM     39  C   UNL     1       7.724  -5.359  26.619  0.00  0.00    +0.060 A 
BRANCH  38  40
ATOM     40  O   UNL     1      10.124  -4.993  26.715  0.00  0.00    -0.503 OA
ATOM     41  H   UNL     1      10.736  -5.504  26.163  0.00  0.00    +0.292 HD
ENDBRANCH  38  40
BRANCH  37  42
ATOM     42  O   UNL     1      10.127  -3.947  24.235  0.00  0.00    -0.503 OA
ATOM     43  H   UNL     1       9.963  -3.030  23.946  0.00  0.00    +0.292 HD
ENDBRANCH  37  42
ENDBRANCH  33  34
BRANCH  32  44
ATOM     44  O   UNL     1       0.697  -6.662  28.297  0.00  0.00    -0.506 OA
ATOM     45  H   UNL     1      -0.189  -7.061  28.278  0.00  0.00    +0.292 HD
ENDBRANCH  32  44
BRANCH  29  46
ATOM     46  O   UNL     1       0.839  -9.053  24.220  0.00  0.00    -0.507 OA
ATOM     47  H   UNL     1       0.895  -8.618  23.353  0.00  0.00    +0.292 HD
ENDBRANCH  29  46
ENDBRANCH  22  23
ENDBRANCH  13  22
BRANCH  15  48
ATOM     48  C   UNL     1       1.171  -2.710  26.800  0.00  0.00    +0.190 C 
BRANCH  48  49
ATOM     49  O   UNL     1       1.016  -3.844  25.960  0.00  0.00    -0.392 OA
ATOM     50  H   UNL     1       1.883  -4.010  25.553  0.00  0.00    +0.210 HD
ENDBRANCH  48  49
ENDBRANCH  15  48
ENDBRANCH  11  12
ENDBRANCH   6  11
BRANCH   4  51
ATOM     51  C   UNL     1       8.171  -1.474  26.779  0.00  0.00    +0.190 C 
BRANCH  51  52
ATOM     52  O   UNL     1       9.034  -0.491  27.354  0.00  0.00    -0.392 OA
ATOM     53  H   UNL     1       9.831  -0.494  26.789  0.00  0.00    +0.210 HD
ENDBRANCH  51  52
ENDBRANCH   4  51
BRANCH   1  54
ATOM     54  O   UNL     1       4.600   1.309  25.035  0.00  0.00    -0.338 OA
BRANCH  54  57
ATOM     55  C   UNL     1       2.180   4.049  25.250  0.00  0.00    +0.190 C 
ATOM     56  O   UNL     1       2.718   2.711  25.314  0.00  0.00    -0.339 OA
ATOM     57  C   UNL     1       4.067   2.619  24.867  0.00  0.00    +0.282 C 
ATOM     58  C   UNL     1       4.130   2.965  23.367  0.00  0.00    +0.201 C 
ATOM     59  C   UNL     1       3.650   4.410  23.175  0.00  0.00    +0.179 C 
ATOM     60  C   UNL     1       2.274   4.632  23.824  0.00  0.00    +0.178 C 
BRANCH  60  61
ATOM     61  O   UNL     1       1.982   6.031  23.847  0.00  0.00    -0.386 OA
ATOM     62  H   UNL     1       1.719   6.268  24.754  0.00  0.00    +0.210 HD
ENDBRANCH  60  61
BRANCH  58  63
ATOM     63  O   UNL     1       5.445   2.819  22.812  0.00  0.00    -0.384 OA
ATOM     64  H   UNL     1       5.888   2.070  23.245  0.00  0.00    +0.210 HD
ENDBRANCH  58  63
BRANCH  59  65
ATOM     65  O   UNL     1       3.568   4.743  21.778  0.00  0.00    -0.386 OA
ATOM     66  H   UNL     1       3.253   3.961  21.291  0.00  0.00    +0.210 HD
ENDBRANCH  59  65
BRANCH  55  67
ATOM     67  C   UNL     1       2.786   4.962  26.335  0.00  0.00    +0.266 C 
BRANCH  67  68
ATOM     68  O   UNL     1       3.863   5.749  25.788  0.00  0.00    -0.459 OA
BRANCH  68  69
ATOM     69  C   UNL     1       5.021   5.755  26.496  0.00  0.00    +0.332 C 
ATOM     70  O   UNL     1       5.137   6.061  27.673  0.00  0.00    -0.246 OA
BRANCH  69  72
ATOM     71  C   UNL     1       7.400   5.947  25.831  0.00  0.00    +0.015 C 
ATOM     72  C   UNL     1       6.181   5.423  25.638  0.00  0.00    +0.092 C 
BRANCH  71  77
ATOM     73  C   UNL     1       9.788   3.872  23.767  0.00  0.00    +0.166 A 
ATOM     74  C   UNL     1      10.884   4.745  23.682  0.00  0.00    +0.201 A 
ATOM     75  C   UNL     1      10.829   6.020  24.273  0.00  0.00    +0.166 A 
ATOM     76  C   UNL     1       9.671   6.421  24.946  0.00  0.00    +0.057 A 
ATOM     77  C   UNL     1       8.584   5.544  25.068  0.00  0.00    -0.018 A 
ATOM     78  C   UNL     1       8.646   4.279  24.472  0.00  0.00    +0.057 A 
BRANCH  73  80
ATOM     79  C   UNL     1       8.792   2.477  22.093  0.00  0.00    +0.277 C 
ATOM     80  O   UNL     1       9.656   2.627  23.210  0.00  0.00    -0.491 OA
ENDBRANCH  73  80
BRANCH  75  81
ATOM     81  O   UNL     1      11.964   6.788  24.401  0.00  0.00    -0.491 OA
ATOM     82  C   UNL     1      12.402   7.040  25.737  0.00  0.00    +0.277 C 
ENDBRANCH  75  81
BRANCH  74  83
ATOM     83  O   UNL     1      12.003   4.379  22.979  0.00  0.00    -0.501 OA
ATOM     84  H   UNL     1      12.492   3.740  23.520  0.00  0.00    +0.292 HD
ENDBRANCH  74  83
ENDBRANCH  71  77
ENDBRANCH  69  72
ENDBRANCH  68  69
ENDBRANCH  67  68
ENDBRANCH  55  67
ENDBRANCH  54  57
ENDBRANCH   1  54
TORSDOF 30
ENDMDL
MODEL 5
REMARK VINA RESULT:      -4.8      2.053      5.828
REMARK  Name = 
REMARK  32 active torsions:
REMARK  status: ('A' for Active; 'I' for Inactive)
REMARK    1  A    between atoms: C_1  and  O_2
REMARK    2  A    between atoms: O_2  and  C_3
REMARK    3  A    between atoms: C_5  and  C_12
REMARK    4  A    between atoms: C_7  and  O_10
REMARK    5  A    between atoms: C_8  and  O_9
REMARK    6  A    between atoms: O_10  and  C_11
REMARK    7  A    between atoms: C_13  and  C_14
REMARK    8  A    between atoms: C_14  and  O_16
REMARK    9  A    between atoms: O_16  and  C_17
REMARK   10  A    between atoms: C_17  and  C_18
REMARK   11  A    between atoms: C_19  and  O_78
REMARK   12  A    between atoms: C_21  and  O_77
REMARK   13  A    between atoms: C_22  and  O_76
REMARK   14  A    between atoms: C_24  and  O_27
REMARK   15  A    between atoms: O_27  and  C_28
REMARK   16  A    between atoms: C_29  and  O_40
REMARK   17  A    between atoms: C_32  and  C_38
REMARK   18  A    between atoms: C_33  and  O_37
REMARK   19  A    between atoms: C_35  and  O_36
REMARK   20  A    between atoms: C_38  and  O_39
REMARK   21  A    between atoms: O_40  and  C_41
REMARK   22  A    between atoms: C_42  and  O_75
REMARK   23  A    between atoms: C_44  and  O_74
REMARK   24  A    between atoms: C_46  and  C_72
REMARK   25  A    between atoms: C_48  and  O_50
REMARK   26  A    between atoms: O_50  and  C_51
REMARK   27  A    between atoms: C_52  and  C_64
REMARK   28  A    between atoms: C_56  and  O_63
REMARK   29  A    between atoms: C_58  and  O_62
REMARK   30  A    between atoms: C_66  and  O_71
REMARK   31  A    between atoms: C_67  and  O_70
REMARK   32  A    between atoms: C_72  and  O_73
REMARK                            x       y       z     vdW  Elec       q    Type
REMARK                         _______ _______ _______ _____ _____    ______ ____
ROOT
ATOM      1  C   UNL     1       6.256   0.524  26.442  0.00  0.00    +0.208 C 
ATOM      2  C   UNL     1       5.371   1.640  25.859  0.00  0.00    +0.179 C 
ATOM      3  C   UNL     1       5.067   2.713  26.916  0.00  0.00    +0.177 C 
ATOM      4  C   UNL     1       4.552   2.133  28.238  0.00  0.00    +0.178 C 
ATOM      5  O   UNL     1       5.406   1.085  28.705  0.00  0.00    -0.341 OA
ATOM      6  C   UNL     1       5.642   0.009  27.779  0.00  0.00    +0.283 C 
ENDROOT
BRANCH   3   7
ATOM      7  O   UNL     1       4.199   3.713  26.390  0.00  0.00    -0.386 OA
ATOM      8  H   UNL     1       3.562   3.277  25.795  0.00  0.00    +0.210 HD
ENDBRANCH   3   7
BRANCH   2   9
ATOM      9  O   UNL     1       4.219   1.070  25.235  0.00  0.00    -0.386 OA
ATOM     10  H   UNL     1       4.455   0.313  24.681  0.00  0.00    +0.210 HD
ENDBRANCH   2   9
BRANCH   6  11
ATOM     11  O   UNL     1       4.441  -0.745  27.666  0.00  0.00    -0.337 OA
BRANCH  11  12
ATOM     12  C   UNL     1       4.251  -1.834  28.581  0.00  0.00    +0.221 C 
ATOM     13  C   UNL     1       3.826  -3.097  27.796  0.00  0.00    +0.340 C 
ATOM     14  O   UNL     1       2.622  -2.835  27.050  0.00  0.00    -0.331 OA
ATOM     15  C   UNL     1       1.470  -2.578  27.883  0.00  0.00    +0.179 C 
ATOM     16  C   UNL     1       1.757  -1.452  28.902  0.00  0.00    +0.177 C 
ATOM     17  C   UNL     1       3.113  -1.626  29.606  0.00  0.00    +0.180 C 
BRANCH  17  18
ATOM     18  O   UNL     1       3.325  -0.511  30.485  0.00  0.00    -0.386 OA
ATOM     19  H   UNL     1       3.397   0.296  29.947  0.00  0.00    +0.210 HD
ENDBRANCH  17  18
BRANCH  16  20
ATOM     20  O   UNL     1       0.744  -1.325  29.899  0.00  0.00    -0.386 OA
ATOM     21  H   UNL     1       0.863  -0.435  30.283  0.00  0.00    +0.210 HD
ENDBRANCH  16  20
BRANCH  13  22
ATOM     22  O   UNL     1       4.868  -3.626  26.944  0.00  0.00    -0.453 OA
BRANCH  22  23
ATOM     23  C   UNL     1       4.416  -4.773  26.269  0.00  0.00    +0.214 A 
ATOM     24  C   UNL     1       3.891  -5.957  27.003  0.00  0.00    +0.238 A 
ATOM     25  O   UNL     1       4.247  -6.245  28.140  0.00  0.00    -0.283 OA
ATOM     26  C   UNL     1       2.959  -6.799  26.255  0.00  0.00    +0.109 A 
ATOM     27  C   UNL     1       3.137  -6.831  24.876  0.00  0.00    +0.147 A 
ATOM     28  C   UNL     1       2.331  -7.638  24.081  0.00  0.00    +0.092 A 
ATOM     29  C   UNL     1       1.300  -8.352  24.682  0.00  0.00    +0.124 A 
ATOM     30  C   UNL     1       1.093  -8.305  26.059  0.00  0.00    +0.091 A 
ATOM     31  O   UNL     1       4.091  -6.068  24.253  0.00  0.00    -0.451 OA
ATOM     32  C   UNL     1       1.937  -7.539  26.853  0.00  0.00    +0.135 A 
ATOM     33  C   UNL     1       4.557  -4.945  24.940  0.00  0.00    +0.181 A 
BRANCH  33  34
ATOM     34  C   UNL     1       5.460  -4.148  24.094  0.00  0.00    +0.025 A 
ATOM     35  C   UNL     1       6.319  -4.901  23.294  0.00  0.00    +0.015 A 
ATOM     36  C   UNL     1       7.187  -4.276  22.420  0.00  0.00    +0.050 A 
ATOM     37  C   UNL     1       7.237  -2.904  22.339  0.00  0.00    +0.158 A 
ATOM     38  C   UNL     1       6.355  -2.148  23.089  0.00  0.00    +0.159 A 
ATOM     39  C   UNL     1       5.455  -2.756  23.961  0.00  0.00    +0.060 A 
BRANCH  38  40
ATOM     40  O   UNL     1       6.408  -0.798  22.883  0.00  0.00    -0.503 OA
ATOM     41  H   UNL     1       6.559  -0.646  21.937  0.00  0.00    +0.292 HD
ENDBRANCH  38  40
BRANCH  37  42
ATOM     42  O   UNL     1       8.139  -2.324  21.498  0.00  0.00    -0.503 OA
ATOM     43  H   UNL     1       7.733  -1.477  21.234  0.00  0.00    +0.292 HD
ENDBRANCH  37  42
ENDBRANCH  33  34
BRANCH  32  44
ATOM     44  O   UNL     1       1.719  -7.487  28.201  0.00  0.00    -0.506 OA
ATOM     45  H   UNL     1       2.276  -6.793  28.592  0.00  0.00    +0.292 HD
ENDBRANCH  32  44
BRANCH  29  46
ATOM     46  O   UNL     1       0.443  -9.115  23.948  0.00  0.00    -0.507 OA
ATOM     47  H   UNL     1      -0.359  -8.600  23.759  0.00  0.00    +0.292 HD
ENDBRANCH  29  46
ENDBRANCH  22  23
ENDBRANCH  13  22
BRANCH  15  48
ATOM     48  C   UNL     1       0.933  -3.910  28.449  0.00  0.00    +0.190 C 
BRANCH  48  49
ATOM     49  O   UNL     1       1.184  -4.084  29.835  0.00  0.00    -0.392 OA
ATOM     50  H   UNL     1       1.001  -5.017  30.036  0.00  0.00    +0.210 HD
ENDBRANCH  48  49
ENDBRANCH  15  48
ENDBRANCH  11  12
ENDBRANCH   6  11
BRANCH   4  51
ATOM     51  C   UNL     1       3.064   1.741  28.267  0.00  0.00    +0.190 C 
BRANCH  51  52
ATOM     52  O   UNL     1       2.479   2.173  29.497  0.00  0.00    -0.392 OA
ATOM     53  H   UNL     1       3.209   2.142  30.148  0.00  0.00    +0.210 HD
ENDBRANCH  51  52
ENDBRANCH   4  51
BRANCH   1  54
ATOM     54  O   UNL     1       7.600   0.939  26.743  0.00  0.00    -0.338 OA
BRANCH  54  57
ATOM     55  C   UNL     1       9.402   0.983  23.556  0.00  0.00    +0.190 C 
ATOM     56  O   UNL     1       8.356   1.221  24.522  0.00  0.00    -0.339 OA
ATOM     57  C   UNL     1       8.598   0.605  25.783  0.00  0.00    +0.282 C 
ATOM     58  C   UNL     1       8.594  -0.926  25.611  0.00  0.00    +0.201 C 
ATOM     59  C   UNL     1       9.727  -1.316  24.654  0.00  0.00    +0.179 C 
ATOM     60  C   UNL     1       9.644  -0.526  23.337  0.00  0.00    +0.178 C 
BRANCH  60  61
ATOM     61  O   UNL     1      10.844  -0.727  22.587  0.00  0.00    -0.386 OA
ATOM     62  H   UNL     1      10.686  -0.414  21.678  0.00  0.00    +0.210 HD
ENDBRANCH  60  61
BRANCH  58  63
ATOM     63  O   UNL     1       8.750  -1.630  26.851  0.00  0.00    -0.384 OA
ATOM     64  H   UNL     1       8.113  -1.279  27.495  0.00  0.00    +0.210 HD
ENDBRANCH  58  63
BRANCH  59  65
ATOM     65  O   UNL     1       9.689  -2.723  24.357  0.00  0.00    -0.386 OA
ATOM     66  H   UNL     1      10.022  -2.858  23.452  0.00  0.00    +0.210 HD
ENDBRANCH  59  65
BRANCH  55  67
ATOM     67  C   UNL     1      10.683   1.774  23.893  0.00  0.00    +0.266 C 
BRANCH  67  68
ATOM     68  O   UNL     1      10.913   2.805  22.912  0.00  0.00    -0.459 OA
BRANCH  68  69
ATOM     69  C   UNL     1      11.197   4.041  23.396  0.00  0.00    +0.332 C 
ATOM     70  O   UNL     1      12.292   4.581  23.379  0.00  0.00    -0.246 OA
BRANCH  69  72
ATOM     71  C   UNL     1       8.870   4.894  23.390  0.00  0.00    +0.015 C 
ATOM     72  C   UNL     1      10.015   4.652  24.045  0.00  0.00    +0.092 C 
BRANCH  71  77
ATOM     73  C   UNL     1       5.305   6.024  23.920  0.00  0.00    +0.166 A 
ATOM     74  C   UNL     1       5.355   6.419  25.266  0.00  0.00    +0.201 A 
ATOM     75  C   UNL     1       6.544   6.286  26.005  0.00  0.00    +0.166 A 
ATOM     76  C   UNL     1       7.683   5.753  25.394  0.00  0.00    +0.057 A 
ATOM     77  C   UNL     1       7.654   5.390  24.040  0.00  0.00    -0.018 A 
ATOM     78  C   UNL     1       6.465   5.521  23.315  0.00  0.00    +0.057 A 
BRANCH  73  80
ATOM     79  C   UNL     1       3.687   4.793  22.652  0.00  0.00    +0.277 C 
ATOM     80  O   UNL     1       4.225   6.037  23.076  0.00  0.00    -0.491 OA
ENDBRANCH  73  80
BRANCH  75  81
ATOM     81  O   UNL     1       6.676   6.878  27.241  0.00  0.00    -0.491 OA
ATOM     82  C   UNL     1       6.272   6.089  28.360  0.00  0.00    +0.277 C 
ENDBRANCH  75  81
BRANCH  74  83
ATOM     83  O   UNL     1       4.228   6.893  25.887  0.00  0.00    -0.501 OA
ATOM     84  H   UNL     1       3.817   6.149  26.354  0.00  0.00    +0.292 HD
ENDBRANCH  74  83
ENDBRANCH  71  77
ENDBRANCH  69  72
ENDBRANCH  68  69
ENDBRANCH  67  68
ENDBRANCH  55  67
ENDBRANCH  54  57
ENDBRANCH   1  54
TORSDOF 30
ENDMDL
MODEL 6
REMARK VINA RESULT:      -4.6      2.269      5.259
REMARK  Name = 
REMARK  32 active torsions:
REMARK  status: ('A' for Active; 'I' for Inactive)
REMARK    1  A    between atoms: C_1  and  O_2
REMARK    2  A    between atoms: O_2  and  C_3
REMARK    3  A    between atoms: C_5  and  C_12
REMARK    4  A    between atoms: C_7  and  O_10
REMARK    5  A    between atoms: C_8  and  O_9
REMARK    6  A    between atoms: O_10  and  C_11
REMARK    7  A    between atoms: C_13  and  C_14
REMARK    8  A    between atoms: C_14  and  O_16
REMARK    9  A    between atoms: O_16  and  C_17
REMARK   10  A    between atoms: C_17  and  C_18
REMARK   11  A    between atoms: C_19  and  O_78
REMARK   12  A    between atoms: C_21  and  O_77
REMARK   13  A    between atoms: C_22  and  O_76
REMARK   14  A    between atoms: C_24  and  O_27
REMARK   15  A    between atoms: O_27  and  C_28
REMARK   16  A    between atoms: C_29  and  O_40
REMARK   17  A    between atoms: C_32  and  C_38
REMARK   18  A    between atoms: C_33  and  O_37
REMARK   19  A    between atoms: C_35  and  O_36
REMARK   20  A    between atoms: C_38  and  O_39
REMARK   21  A    between atoms: O_40  and  C_41
REMARK   22  A    between atoms: C_42  and  O_75
REMARK   23  A    between atoms: C_44  and  O_74
REMARK   24  A    between atoms: C_46  and  C_72
REMARK   25  A    between atoms: C_48  and  O_50
REMARK   26  A    between atoms: O_50  and  C_51
REMARK   27  A    between atoms: C_52  and  C_64
REMARK   28  A    between atoms: C_56  and  O_63
REMARK   29  A    between atoms: C_58  and  O_62
REMARK   30  A    between atoms: C_66  and  O_71
REMARK   31  A    between atoms: C_67  and  O_70
REMARK   32  A    between atoms: C_72  and  O_73
REMARK                            x       y       z     vdW  Elec       q    Type
REMARK                         _______ _______ _______ _____ _____    ______ ____
ROOT
ATOM      1  C   UNL     1       6.935   2.666  23.556  0.00  0.00    +0.208 C 
ATOM      2  C   UNL     1       6.915   3.606  22.338  0.00  0.00    +0.179 C 
ATOM      3  C   UNL     1       7.650   4.921  22.643  0.00  0.00    +0.177 C 
ATOM      4  C   UNL     1       7.196   5.581  23.950  0.00  0.00    +0.178 C 
ATOM      5  O   UNL     1       7.212   4.643  25.031  0.00  0.00    -0.341 OA
ATOM      6  C   UNL     1       6.457   3.436  24.824  0.00  0.00    +0.283 C 
ENDROOT
BRANCH   3   7
ATOM      7  O   UNL     1       7.577   5.812  21.534  0.00  0.00    -0.386 OA
ATOM      8  H   UNL     1       7.993   5.377  20.768  0.00  0.00    +0.210 HD
ENDBRANCH   3   7
BRANCH   2   9
ATOM      9  O   UNL     1       5.575   3.763  21.869  0.00  0.00    -0.386 OA
ATOM     10  H   UNL     1       4.931   3.530  22.552  0.00  0.00    +0.210 HD
ENDBRANCH   2   9
BRANCH   6  11
ATOM     11  O   UNL     1       5.075   3.769  24.870  0.00  0.00    -0.337 OA
BRANCH  11  12
ATOM     12  C   UNL     1       4.438   3.792  26.155  0.00  0.00    +0.221 C 
ATOM     13  C   UNL     1       3.411   2.639  26.240  0.00  0.00    +0.340 C 
ATOM     14  O   UNL     1       2.441   2.760  25.182  0.00  0.00    -0.331 OA
ATOM     15  C   UNL     1       1.607   3.935  25.294  0.00  0.00    +0.179 C 
ATOM     16  C   UNL     1       2.461   5.216  25.423  0.00  0.00    +0.177 C 
ATOM     17  C   UNL     1       3.604   5.062  26.440  0.00  0.00    +0.180 C 
BRANCH  17  18
ATOM     18  O   UNL     1       4.379   6.270  26.453  0.00  0.00    -0.386 OA
ATOM     19  H   UNL     1       5.310   6.037  26.610  0.00  0.00    +0.210 HD
ENDBRANCH  17  18
BRANCH  16  20
ATOM     20  O   UNL     1       1.696   6.368  25.775  0.00  0.00    -0.386 OA
ATOM     21  H   UNL     1       1.262   6.656  24.950  0.00  0.00    +0.210 HD
ENDBRANCH  16  20
BRANCH  13  22
ATOM     22  O   UNL     1       4.016   1.325  26.252  0.00  0.00    -0.453 OA
BRANCH  22  23
ATOM     23  C   UNL     1       3.464   0.538  27.277  0.00  0.00    +0.214 A 
ATOM     24  C   UNL     1       2.177  -0.190  27.099  0.00  0.00    +0.238 A 
ATOM     25  O   UNL     1       1.298   0.195  26.338  0.00  0.00    -0.283 OA
ATOM     26  C   UNL     1       2.000  -1.370  27.942  0.00  0.00    +0.109 A 
ATOM     27  C   UNL     1       2.645  -1.343  29.174  0.00  0.00    +0.147 A 
ATOM     28  C   UNL     1       2.500  -2.399  30.068  0.00  0.00    +0.092 A 
ATOM     29  C   UNL     1       1.761  -3.510  29.676  0.00  0.00    +0.124 A 
ATOM     30  C   UNL     1       1.136  -3.562  28.432  0.00  0.00    +0.091 A 
ATOM     31  O   UNL     1       3.448  -0.296  29.547  0.00  0.00    -0.451 OA
ATOM     32  C   UNL     1       1.240  -2.480  27.566  0.00  0.00    +0.135 A 
ATOM     33  C   UNL     1       3.971   0.499  28.525  0.00  0.00    +0.181 A 
BRANCH  33  34
ATOM     34  C   UNL     1       4.925   1.484  29.061  0.00  0.00    +0.025 A 
ATOM     35  C   UNL     1       6.264   1.108  28.957  0.00  0.00    +0.015 A 
ATOM     36  C   UNL     1       7.264   1.962  29.381  0.00  0.00    +0.050 A 
ATOM     37  C   UNL     1       6.958   3.184  29.932  0.00  0.00    +0.158 A 
ATOM     38  C   UNL     1       5.637   3.590  29.994  0.00  0.00    +0.159 A 
ATOM     39  C   UNL     1       4.614   2.756  29.552  0.00  0.00    +0.060 A 
BRANCH  38  40
ATOM     40  O   UNL     1       5.427   4.853  30.471  0.00  0.00    -0.503 OA
ATOM     41  H   UNL     1       5.828   4.909  31.353  0.00  0.00    +0.292 HD
ENDBRANCH  38  40
BRANCH  37  42
ATOM     42  O   UNL     1       7.971   3.978  30.381  0.00  0.00    -0.503 OA
ATOM     43  H   UNL     1       7.570   4.535  31.074  0.00  0.00    +0.292 HD
ENDBRANCH  37  42
ENDBRANCH  33  34
BRANCH  32  44
ATOM     44  O   UNL     1       0.636  -2.544  26.343  0.00  0.00    -0.506 OA
ATOM     45  H   UNL     1       1.283  -2.829  25.677  0.00  0.00    +0.292 HD
ENDBRANCH  32  44
BRANCH  29  46
ATOM     46  O   UNL     1       1.631  -4.598  30.485  0.00  0.00    -0.507 OA
ATOM     47  H   UNL     1       0.719  -4.928  30.430  0.00  0.00    +0.292 HD
ENDBRANCH  29  46
ENDBRANCH  22  23
ENDBRANCH  13  22
BRANCH  15  48
ATOM     48  C   UNL     1       0.528   3.704  26.373  0.00  0.00    +0.190 C 
BRANCH  48  49
ATOM     49  O   UNL     1       0.688   4.521  27.523  0.00  0.00    -0.392 OA
ATOM     50  H   UNL     1       1.541   4.977  27.424  0.00  0.00    +0.210 HD
ENDBRANCH  48  49
ENDBRANCH  15  48
ENDBRANCH  11  12
ENDBRANCH   6  11
BRANCH   4  51
ATOM     51  C   UNL     1       5.882   6.379  23.880  0.00  0.00    +0.190 C 
BRANCH  51  52
ATOM     52  O   UNL     1       5.179   6.040  22.683  0.00  0.00    -0.392 OA
ATOM     53  H   UNL     1       4.275   6.386  22.815  0.00  0.00    +0.210 HD
ENDBRANCH  51  52
ENDBRANCH   4  51
BRANCH   1  54
ATOM     54  O   UNL     1       8.237   2.137  23.867  0.00  0.00    -0.338 OA
BRANCH  54  57
ATOM     55  C   UNL     1       8.894  -1.316  24.895  0.00  0.00    +0.190 C 
ATOM     56  O   UNL     1       8.819   0.124  24.960  0.00  0.00    -0.339 OA
ATOM     57  C   UNL     1       8.395   0.727  23.741  0.00  0.00    +0.282 C 
ATOM     58  C   UNL     1       9.451   0.466  22.650  0.00  0.00    +0.201 C 
ATOM     59  C   UNL     1       9.567  -1.048  22.431  0.00  0.00    +0.179 C 
ATOM     60  C   UNL     1       9.822  -1.787  23.755  0.00  0.00    +0.178 C 
BRANCH  60  61
ATOM     61  O   UNL     1       9.671  -3.193  23.549  0.00  0.00    -0.386 OA
ATOM     62  H   UNL     1       9.249  -3.569  24.343  0.00  0.00    +0.210 HD
ENDBRANCH  60  61
BRANCH  58  63
ATOM     63  O   UNL     1       9.142   1.108  21.405  0.00  0.00    -0.384 OA
ATOM     64  H   UNL     1       9.957   1.187  20.881  0.00  0.00    +0.210 HD
ENDBRANCH  58  63
BRANCH  59  65
ATOM     65  O   UNL     1      10.631  -1.355  21.512  0.00  0.00    -0.386 OA
ATOM     66  H   UNL     1      11.477  -1.095  21.920  0.00  0.00    +0.210 HD
ENDBRANCH  59  65
BRANCH  55  67
ATOM     67  C   UNL     1       7.493  -1.960  24.861  0.00  0.00    +0.266 C 
BRANCH  67  68
ATOM     68  O   UNL     1       7.581  -3.375  25.126  0.00  0.00    -0.459 OA
BRANCH  68  69
ATOM     69  C   UNL     1       7.687  -3.735  26.429  0.00  0.00    +0.332 C 
ATOM     70  O   UNL     1       8.692  -3.644  27.117  0.00  0.00    -0.246 OA
BRANCH  69  72
ATOM     71  C   UNL     1       5.498  -4.849  26.103  0.00  0.00    +0.015 C 
ATOM     72  C   UNL     1       6.435  -4.352  26.923  0.00  0.00    +0.092 C 
BRANCH  71  77
ATOM     73  C   UNL     1       3.108  -6.728  28.345  0.00  0.00    +0.166 A 
ATOM     74  C   UNL     1       2.070  -7.008  27.443  0.00  0.00    +0.201 A 
ATOM     75  C   UNL     1       2.139  -6.555  26.113  0.00  0.00    +0.166 A 
ATOM     76  C   UNL     1       3.249  -5.818  25.690  0.00  0.00    +0.057 A 
ATOM     77  C   UNL     1       4.308  -5.565  26.573  0.00  0.00    -0.018 A 
ATOM     78  C   UNL     1       4.228  -6.015  27.895  0.00  0.00    +0.057 A 
BRANCH  73  80
ATOM     79  C   UNL     1       4.376  -6.750  30.378  0.00  0.00    +0.277 C 
ATOM     80  O   UNL     1       3.177  -7.047  29.677  0.00  0.00    -0.491 OA
ENDBRANCH  73  80
BRANCH  75  81
ATOM     81  O   UNL     1       1.253  -7.014  25.165  0.00  0.00    -0.491 OA
ATOM     82  C   UNL     1       1.421  -6.494  23.846  0.00  0.00    +0.277 C 
ENDBRANCH  75  81
BRANCH  74  83
ATOM     83  O   UNL     1       0.954  -7.683  27.864  0.00  0.00    -0.501 OA
ATOM     84  H   UNL     1       0.359  -7.037  28.275  0.00  0.00    +0.292 HD
ENDBRANCH  74  83
ENDBRANCH  71  77
ENDBRANCH  69  72
ENDBRANCH  68  69
ENDBRANCH  67  68
ENDBRANCH  55  67
ENDBRANCH  54  57
ENDBRANCH   1  54
TORSDOF 30
ENDMDL
MODEL 7
REMARK VINA RESULT:      -4.5      2.058      6.232
REMARK  Name = 
REMARK  32 active torsions:
REMARK  status: ('A' for Active; 'I' for Inactive)
REMARK    1  A    between atoms: C_1  and  O_2
REMARK    2  A    between atoms: O_2  and  C_3
REMARK    3  A    between atoms: C_5  and  C_12
REMARK    4  A    between atoms: C_7  and  O_10
REMARK    5  A    between atoms: C_8  and  O_9
REMARK    6  A    between atoms: O_10  and  C_11
REMARK    7  A    between atoms: C_13  and  C_14
REMARK    8  A    between atoms: C_14  and  O_16
REMARK    9  A    between atoms: O_16  and  C_17
REMARK   10  A    between atoms: C_17  and  C_18
REMARK   11  A    between atoms: C_19  and  O_78
REMARK   12  A    between atoms: C_21  and  O_77
REMARK   13  A    between atoms: C_22  and  O_76
REMARK   14  A    between atoms: C_24  and  O_27
REMARK   15  A    between atoms: O_27  and  C_28
REMARK   16  A    between atoms: C_29  and  O_40
REMARK   17  A    between atoms: C_32  and  C_38
REMARK   18  A    between atoms: C_33  and  O_37
REMARK   19  A    between atoms: C_35  and  O_36
REMARK   20  A    between atoms: C_38  and  O_39
REMARK   21  A    between atoms: O_40  and  C_41
REMARK   22  A    between atoms: C_42  and  O_75
REMARK   23  A    between atoms: C_44  and  O_74
REMARK   24  A    between atoms: C_46  and  C_72
REMARK   25  A    between atoms: C_48  and  O_50
REMARK   26  A    between atoms: O_50  and  C_51
REMARK   27  A    between atoms: C_52  and  C_64
REMARK   28  A    between atoms: C_56  and  O_63
REMARK   29  A    between atoms: C_58  and  O_62
REMARK   30  A    between atoms: C_66  and  O_71
REMARK   31  A    between atoms: C_67  and  O_70
REMARK   32  A    between atoms: C_72  and  O_73
REMARK                            x       y       z     vdW  Elec       q    Type
REMARK                         _______ _______ _______ _____ _____    ______ ____
ROOT
ATOM      1  C   UNL     1       4.743   0.815  26.940  0.00  0.00    +0.208 C 
ATOM      2  C   UNL     1       6.144   1.448  27.008  0.00  0.00    +0.179 C 
ATOM      3  C   UNL     1       7.023   0.970  25.842  0.00  0.00    +0.177 C 
ATOM      4  C   UNL     1       7.033  -0.553  25.674  0.00  0.00    +0.178 C 
ATOM      5  O   UNL     1       5.701  -1.074  25.647  0.00  0.00    -0.341 OA
ATOM      6  C   UNL     1       4.870  -0.729  26.769  0.00  0.00    +0.283 C 
ENDROOT
BRANCH   3   7
ATOM      7  O   UNL     1       8.338   1.511  25.943  0.00  0.00    -0.386 OA
ATOM      8  H   UNL     1       8.636   1.412  26.865  0.00  0.00    +0.210 HD
ENDBRANCH   3   7
BRANCH   2   9
ATOM      9  O   UNL     1       6.706   1.243  28.305  0.00  0.00    -0.386 OA
ATOM     10  H   UNL     1       6.903   2.084  28.743  0.00  0.00    +0.210 HD
ENDBRANCH   2   9
BRANCH   6  11
ATOM     11  O   UNL     1       5.343  -1.446  27.903  0.00  0.00    -0.337 OA
BRANCH  11  12
ATOM     12  C   UNL     1       4.457  -2.403  28.502  0.00  0.00    +0.221 C 
ATOM     13  C   UNL     1       4.043  -3.453  27.445  0.00  0.00    +0.340 C 
ATOM     14  O   UNL     1       3.416  -2.804  26.322  0.00  0.00    -0.331 OA
ATOM     15  C   UNL     1       2.159  -2.170  26.649  0.00  0.00    +0.179 C 
ATOM     16  C   UNL     1       2.315  -1.203  27.843  0.00  0.00    +0.177 C 
ATOM     17  C   UNL     1       3.116  -1.819  29.001  0.00  0.00    +0.180 C 
BRANCH  17  18
ATOM     18  O   UNL     1       3.264  -0.837  30.037  0.00  0.00    -0.386 OA
ATOM     19  H   UNL     1       4.197  -0.818  30.313  0.00  0.00    +0.210 HD
ENDBRANCH  17  18
BRANCH  16  20
ATOM     20  O   UNL     1       1.067  -0.737  28.356  0.00  0.00    -0.386 OA
ATOM     21  H   UNL     1       0.466  -1.505  28.322  0.00  0.00    +0.210 HD
ENDBRANCH  16  20
BRANCH  13  22
ATOM     22  O   UNL     1       5.130  -4.306  27.019  0.00  0.00    -0.453 OA
BRANCH  22  23
ATOM     23  C   UNL     1       4.653  -5.331  26.184  0.00  0.00    +0.214 A 
ATOM     24  C   UNL     1       3.935  -6.516  26.729  0.00  0.00    +0.238 A 
ATOM     25  O   UNL     1       4.128  -6.945  27.861  0.00  0.00    -0.283 OA
ATOM     26  C   UNL     1       3.021  -7.180  25.802  0.00  0.00    +0.109 A 
ATOM     27  C   UNL     1       3.355  -7.101  24.455  0.00  0.00    +0.147 A 
ATOM     28  C   UNL     1       2.574  -7.741  23.498  0.00  0.00    +0.092 A 
ATOM     29  C   UNL     1       1.417  -8.395  23.907  0.00  0.00    +0.124 A 
ATOM     30  C   UNL     1       1.056  -8.455  25.252  0.00  0.00    +0.091 A 
ATOM     31  O   UNL     1       4.443  -6.390  24.020  0.00  0.00    -0.451 OA
ATOM     32  C   UNL     1       1.871  -7.860  26.208  0.00  0.00    +0.135 A 
ATOM     33  C   UNL     1       4.930  -5.392  24.866  0.00  0.00    +0.181 A 
BRANCH  33  34
ATOM     34  C   UNL     1       5.997  -4.619  24.210  0.00  0.00    +0.025 A 
ATOM     35  C   UNL     1       5.547  -3.704  23.259  0.00  0.00    +0.015 A 
ATOM     36  C   UNL     1       6.444  -2.883  22.601  0.00  0.00    +0.050 A 
ATOM     37  C   UNL     1       7.792  -2.969  22.854  0.00  0.00    +0.158 A 
ATOM     38  C   UNL     1       8.246  -3.836  23.832  0.00  0.00    +0.159 A 
ATOM     39  C   UNL     1       7.359  -4.657  24.524  0.00  0.00    +0.060 A 
BRANCH  38  40
ATOM     40  O   UNL     1       9.588  -3.794  24.084  0.00  0.00    -0.503 OA
ATOM     41  H   UNL     1       9.933  -2.962  23.726  0.00  0.00    +0.292 HD
ENDBRANCH  38  40
BRANCH  37  42
ATOM     42  O   UNL     1       8.648  -2.174  22.152  0.00  0.00    -0.503 OA
ATOM     43  H   UNL     1       8.079  -1.641  21.566  0.00  0.00    +0.292 HD
ENDBRANCH  37  42
ENDBRANCH  33  34
BRANCH  32  44
ATOM     44  O   UNL     1       1.503  -7.912  27.522  0.00  0.00    -0.506 OA
ATOM     45  H   UNL     1       0.784  -8.555  27.632  0.00  0.00    +0.292 HD
ENDBRANCH  32  44
BRANCH  29  46
ATOM     46  O   UNL     1       0.583  -8.990  23.011  0.00  0.00    -0.507 OA
ATOM     47  H   UNL     1       1.111  -9.373  22.290  0.00  0.00    +0.292 HD
ENDBRANCH  29  46
ENDBRANCH  22  23
ENDBRANCH  13  22
BRANCH  15  48
ATOM     48  C   UNL     1       1.052  -3.241  26.759  0.00  0.00    +0.190 C 
BRANCH  48  49
ATOM     49  O   UNL     1       0.943  -4.068  25.611  0.00  0.00    -0.392 OA
ATOM     50  H   UNL     1       0.694  -4.953  25.927  0.00  0.00    +0.210 HD
ENDBRANCH  48  49
ENDBRANCH  15  48
ENDBRANCH  11  12
ENDBRANCH   6  11
BRANCH   4  51
ATOM     51  C   UNL     1       7.953  -1.331  26.632  0.00  0.00    +0.190 C 
BRANCH  51  52
ATOM     52  O   UNL     1       8.731  -0.411  27.399  0.00  0.00    -0.392 OA
ATOM     53  H   UNL     1       8.275   0.449  27.301  0.00  0.00    +0.210 HD
ENDBRANCH  51  52
ENDBRANCH   4  51
BRANCH   1  54
ATOM     54  O   UNL     1       3.942   1.283  25.840  0.00  0.00    -0.338 OA
BRANCH  54  57
ATOM     55  C   UNL     1       2.438   4.482  26.796  0.00  0.00    +0.190 C 
ATOM     56  O   UNL     1       2.667   3.058  26.739  0.00  0.00    -0.339 OA
ATOM     57  C   UNL     1       3.670   2.680  25.802  0.00  0.00    +0.282 C 
ATOM     58  C   UNL     1       3.193   3.029  24.379  0.00  0.00    +0.201 C 
ATOM     59  C   UNL     1       2.987   4.547  24.288  0.00  0.00    +0.179 C 
ATOM     60  C   UNL     1       2.068   5.054  25.412  0.00  0.00    +0.178 C 
BRANCH  60  61
ATOM     61  O   UNL     1       2.106   6.483  25.445  0.00  0.00    -0.386 OA
ATOM     62  H   UNL     1       2.062   6.806  24.528  0.00  0.00    +0.210 HD
ENDBRANCH  60  61
BRANCH  58  63
ATOM     63  O   UNL     1       4.111   2.608  23.360  0.00  0.00    -0.384 OA
ATOM     64  H   UNL     1       3.634   2.060  22.714  0.00  0.00    +0.210 HD
ENDBRANCH  58  63
BRANCH  59  65
ATOM     65  O   UNL     1       2.419   4.914  23.018  0.00  0.00    -0.386 OA
ATOM     66  H   UNL     1       1.731   5.587  23.169  0.00  0.00    +0.210 HD
ENDBRANCH  59  65
BRANCH  55  67
ATOM     67  C   UNL     1       3.605   5.222  27.482  0.00  0.00    +0.266 C 
BRANCH  67  68
ATOM     68  O   UNL     1       4.340   6.006  26.520  0.00  0.00    -0.459 OA
BRANCH  68  69
ATOM     69  C   UNL     1       5.684   6.061  26.692  0.00  0.00    +0.332 C 
ATOM     70  O   UNL     1       6.277   6.805  27.457  0.00  0.00    -0.246 OA
BRANCH  69  72
ATOM     71  C   UNL     1       7.454   5.528  25.042  0.00  0.00    +0.015 C 
ATOM     72  C   UNL     1       6.387   5.150  25.760  0.00  0.00    +0.092 C 
BRANCH  71  77
ATOM     73  C   UNL     1      10.375   3.867  23.314  0.00  0.00    +0.166 A 
ATOM     74  C   UNL     1       9.706   2.912  22.533  0.00  0.00    +0.201 A 
ATOM     75  C   UNL     1       8.306   2.792  22.596  0.00  0.00    +0.166 A 
ATOM     76  C   UNL     1       7.577   3.629  23.447  0.00  0.00    +0.057 A 
ATOM     77  C   UNL     1       8.232   4.611  24.203  0.00  0.00    -0.018 A 
ATOM     78  C   UNL     1       9.625   4.719  24.138  0.00  0.00    +0.057 A 
BRANCH  73  80
ATOM     79  C   UNL     1      12.179   5.402  23.678  0.00  0.00    +0.277 C 
ATOM     80  O   UNL     1      11.725   4.082  23.412  0.00  0.00    -0.491 OA
ENDBRANCH  73  80
BRANCH  75  81
ATOM     81  O   UNL     1       7.621   2.031  21.676  0.00  0.00    -0.491 OA
ATOM     82  C   UNL     1       6.961   0.873  22.187  0.00  0.00    +0.277 C 
ENDBRANCH  75  81
BRANCH  74  83
ATOM     83  O   UNL     1      10.418   2.052  21.737  0.00  0.00    -0.501 OA
ATOM     84  H   UNL     1       9.899   1.903  20.931  0.00  0.00    +0.292 HD
ENDBRANCH  74  83
ENDBRANCH  71  77
ENDBRANCH  69  72
ENDBRANCH  68  69
ENDBRANCH  67  68
ENDBRANCH  55  67
ENDBRANCH  54  57
ENDBRANCH   1  54
TORSDOF 30
ENDMDL
MODEL 8
REMARK VINA RESULT:      -4.3      2.526      8.974
REMARK  Name = 
REMARK  32 active torsions:
REMARK  status: ('A' for Active; 'I' for Inactive)
REMARK    1  A    between atoms: C_1  and  O_2
REMARK    2  A    between atoms: O_2  and  C_3
REMARK    3  A    between atoms: C_5  and  C_12
REMARK    4  A    between atoms: C_7  and  O_10
REMARK    5  A    between atoms: C_8  and  O_9
REMARK    6  A    between atoms: O_10  and  C_11
REMARK    7  A    between atoms: C_13  and  C_14
REMARK    8  A    between atoms: C_14  and  O_16
REMARK    9  A    between atoms: O_16  and  C_17
REMARK   10  A    between atoms: C_17  and  C_18
REMARK   11  A    between atoms: C_19  and  O_78
REMARK   12  A    between atoms: C_21  and  O_77
REMARK   13  A    between atoms: C_22  and  O_76
REMARK   14  A    between atoms: C_24  and  O_27
REMARK   15  A    between atoms: O_27  and  C_28
REMARK   16  A    between atoms: C_29  and  O_40
REMARK   17  A    between atoms: C_32  and  C_38
REMARK   18  A    between atoms: C_33  and  O_37
REMARK   19  A    between atoms: C_35  and  O_36
REMARK   20  A    between atoms: C_38  and  O_39
REMARK   21  A    between atoms: O_40  and  C_41
REMARK   22  A    between atoms: C_42  and  O_75
REMARK   23  A    between atoms: C_44  and  O_74
REMARK   24  A    between atoms: C_46  and  C_72
REMARK   25  A    between atoms: C_48  and  O_50
REMARK   26  A    between atoms: O_50  and  C_51
REMARK   27  A    between atoms: C_52  and  C_64
REMARK   28  A    between atoms: C_56  and  O_63
REMARK   29  A    between atoms: C_58  and  O_62
REMARK   30  A    between atoms: C_66  and  O_71
REMARK   31  A    between atoms: C_67  and  O_70
REMARK   32  A    between atoms: C_72  and  O_73
REMARK                            x       y       z     vdW  Elec       q    Type
REMARK                         _______ _______ _______ _____ _____    ______ ____
ROOT
ATOM      1  C   UNL     1       6.206  -2.679  26.012  0.00  0.00    +0.208 C 
ATOM      2  C   UNL     1       6.843  -3.433  24.832  0.00  0.00    +0.179 C 
ATOM      3  C   UNL     1       8.378  -3.382  24.907  0.00  0.00    +0.177 C 
ATOM      4  C   UNL     1       8.927  -1.967  25.115  0.00  0.00    +0.178 C 
ATOM      5  O   UNL     1       8.272  -1.317  26.208  0.00  0.00    -0.341 OA
ATOM      6  C   UNL     1       6.836  -1.258  26.131  0.00  0.00    +0.283 C 
ENDROOT
BRANCH   3   7
ATOM      7  O   UNL     1       8.962  -4.029  23.780  0.00  0.00    -0.386 OA
ATOM      8  H   UNL     1       8.829  -4.989  23.880  0.00  0.00    +0.210 HD
ENDBRANCH   3   7
BRANCH   2   9
ATOM      9  O   UNL     1       6.288  -2.966  23.601  0.00  0.00    -0.386 OA
ATOM     10  H   UNL     1       6.096  -3.699  22.999  0.00  0.00    +0.210 HD
ENDBRANCH   2   9
BRANCH   6  11
ATOM     11  O   UNL     1       6.488  -0.332  25.110  0.00  0.00    -0.337 OA
BRANCH  11  12
ATOM     12  C   UNL     1       5.604   0.743  25.459  0.00  0.00    +0.221 C 
ATOM     13  C   UNL     1       6.401   2.068  25.510  0.00  0.00    +0.340 C 
ATOM     14  O   UNL     1       7.479   1.960  26.459  0.00  0.00    -0.331 OA
ATOM     15  C   UNL     1       7.034   1.804  27.825  0.00  0.00    +0.179 C 
ATOM     16  C   UNL     1       6.047   0.624  27.960  0.00  0.00    +0.177 C 
ATOM     17  C   UNL     1       4.969   0.629  26.864  0.00  0.00    +0.180 C 
BRANCH  17  18
ATOM     18  O   UNL     1       4.136  -0.528  27.027  0.00  0.00    -0.386 OA
ATOM     19  H   UNL     1       3.219  -0.232  27.159  0.00  0.00    +0.210 HD
ENDBRANCH  17  18
BRANCH  16  20
ATOM     20  O   UNL     1       5.397   0.577  29.230  0.00  0.00    -0.386 OA
ATOM     21  H   UNL     1       5.099   1.490  29.407  0.00  0.00    +0.210 HD
ENDBRANCH  16  20
BRANCH  13  22
ATOM     22  O   UNL     1       6.879   2.506  24.218  0.00  0.00    -0.453 OA
BRANCH  22  23
ATOM     23  C   UNL     1       6.065   3.537  23.717  0.00  0.00    +0.214 A 
ATOM     24  C   UNL     1       4.995   3.274  22.715  0.00  0.00    +0.238 A 
ATOM     25  O   UNL     1       5.050   2.347  21.916  0.00  0.00    -0.283 OA
ATOM     26  C   UNL     1       3.893   4.233  22.705  0.00  0.00    +0.109 A 
ATOM     27  C   UNL     1       4.210   5.531  23.092  0.00  0.00    +0.147 A 
ATOM     28  C   UNL     1       3.241   6.528  23.070  0.00  0.00    +0.092 A 
ATOM     29  C   UNL     1       1.937   6.186  22.727  0.00  0.00    +0.124 A 
ATOM     30  C   UNL     1       1.601   4.883  22.367  0.00  0.00    +0.091 A 
ATOM     31  O   UNL     1       5.468   5.872  23.517  0.00  0.00    -0.451 OA
ATOM     32  C   UNL     1       2.587   3.904  22.337  0.00  0.00    +0.135 A 
ATOM     33  C   UNL     1       6.282   4.840  23.987  0.00  0.00    +0.181 A 
BRANCH  33  34
ATOM     34  C   UNL     1       7.538   5.371  24.543  0.00  0.00    +0.025 A 
ATOM     35  C   UNL     1       8.519   5.648  23.592  0.00  0.00    +0.015 A 
ATOM     36  C   UNL     1       9.729   6.194  23.977  0.00  0.00    +0.050 A 
ATOM     37  C   UNL     1       9.996   6.450  25.301  0.00  0.00    +0.158 A 
ATOM     38  C   UNL     1       9.012   6.227  26.247  0.00  0.00    +0.159 A 
ATOM     39  C   UNL     1       7.777   5.700  25.881  0.00  0.00    +0.060 A 
BRANCH  38  40
ATOM     40  O   UNL     1       9.326   6.593  27.526  0.00  0.00    -0.503 OA
ATOM     41  H   UNL     1       8.834   6.016  28.130  0.00  0.00    +0.292 HD
ENDBRANCH  38  40
BRANCH  37  42
ATOM     42  O   UNL     1      11.218   6.946  25.644  0.00  0.00    -0.503 OA
ATOM     43  H   UNL     1      11.360   6.657  26.565  0.00  0.00    +0.292 HD
ENDBRANCH  37  42
ENDBRANCH  33  34
BRANCH  32  44
ATOM     44  O   UNL     1       2.247   2.626  21.997  0.00  0.00    -0.506 OA
ATOM     45  H   UNL     1       2.631   2.409  21.131  0.00  0.00    +0.292 HD
ENDBRANCH  32  44
BRANCH  29  46
ATOM     46  O   UNL     1       0.934   7.107  22.742  0.00  0.00    -0.507 OA
ATOM     47  H   UNL     1       0.986   7.621  23.566  0.00  0.00    +0.292 HD
ENDBRANCH  29  46
ENDBRANCH  22  23
ENDBRANCH  13  22
BRANCH  15  48
ATOM     48  C   UNL     1       6.570   3.169  28.377  0.00  0.00    +0.190 C 
BRANCH  48  49
ATOM     49  O   UNL     1       6.999   3.421  29.707  0.00  0.00    -0.392 OA
ATOM     50  H   UNL     1       7.829   2.930  29.830  0.00  0.00    +0.210 HD
ENDBRANCH  48  49
ENDBRANCH  15  48
ENDBRANCH  11  12
ENDBRANCH   6  11
BRANCH   4  51
ATOM     51  C   UNL     1       9.000  -1.081  23.858  0.00  0.00    +0.190 C 
BRANCH  51  52
ATOM     52  O   UNL     1       8.979   0.295  24.241  0.00  0.00    -0.392 OA
ATOM     53  H   UNL     1       8.034   0.503  24.384  0.00  0.00    +0.210 HD
ENDBRANCH  51  52
ENDBRANCH   4  51
BRANCH   1  54
ATOM     54  O   UNL     1       6.396  -3.318  27.287  0.00  0.00    -0.338 OA
BRANCH  54  57
ATOM     55  C   UNL     1       3.222  -3.690  29.074  0.00  0.00    +0.190 C 
ATOM     56  O   UNL     1       4.433  -3.079  28.580  0.00  0.00    -0.339 OA
ATOM     57  C   UNL     1       5.261  -3.974  27.844  0.00  0.00    +0.282 C 
ATOM     58  C   UNL     1       5.771  -5.083  28.784  0.00  0.00    +0.201 C 
ATOM     59  C   UNL     1       4.565  -5.865  29.320  0.00  0.00    +0.179 C 
ATOM     60  C   UNL     1       3.524  -4.925  29.950  0.00  0.00    +0.178 C 
BRANCH  60  61
ATOM     61  O   UNL     1       2.321  -5.652  30.203  0.00  0.00    -0.386 OA
ATOM     62  H   UNL     1       2.013  -5.422  31.098  0.00  0.00    +0.210 HD
ENDBRANCH  60  61
BRANCH  58  63
ATOM     63  O   UNL     1       6.682  -5.987  28.143  0.00  0.00    -0.384 OA
ATOM     64  H   UNL     1       7.015  -5.574  27.328  0.00  0.00    +0.210 HD
ENDBRANCH  58  63
BRANCH  59  65
ATOM     65  O   UNL     1       4.975  -6.833  30.303  0.00  0.00    -0.386 OA
ATOM     66  H   UNL     1       5.687  -7.378  29.922  0.00  0.00    +0.210 HD
ENDBRANCH  59  65
BRANCH  55  67
ATOM     67  C   UNL     1       2.216  -3.966  27.938  0.00  0.00    +0.266 C 
BRANCH  67  68
ATOM     68  O   UNL     1       1.990  -2.771  27.163  0.00  0.00    -0.459 OA
BRANCH  68  69
ATOM     69  C   UNL     1       1.223  -2.913  26.052  0.00  0.00    +0.332 C 
ATOM     70  O   UNL     1       0.752  -2.003  25.388  0.00  0.00    -0.246 OA
BRANCH  69  72
ATOM     71  C   UNL     1       1.143  -4.895  24.568  0.00  0.00    +0.015 C 
ATOM     72  C   UNL     1       0.938  -4.338  25.771  0.00  0.00    +0.092 C 
BRANCH  71  77
ATOM     73  C   UNL     1       0.745  -8.613  25.112  0.00  0.00    +0.166 A 
ATOM     74  C   UNL     1       0.745  -9.071  23.785  0.00  0.00    +0.201 A 
ATOM     75  C   UNL     1       0.844  -8.162  22.716  0.00  0.00    +0.166 A 
ATOM     76  C   UNL     1       0.939  -6.792  22.979  0.00  0.00    +0.057 A 
ATOM     77  C   UNL     1       0.977  -6.327  24.301  0.00  0.00    -0.018 A 
ATOM     78  C   UNL     1       0.873  -7.238  25.357  0.00  0.00    +0.057 A 
BRANCH  73  80
ATOM     79  C   UNL     1       0.443  -8.657  27.488  0.00  0.00    +0.277 C 
ATOM     80  O   UNL     1       0.607  -9.350  26.259  0.00  0.00    -0.491 OA
ENDBRANCH  73  80
BRANCH  75  81
ATOM     81  O   UNL     1       1.079  -8.605  21.434  0.00  0.00    -0.491 OA
ATOM     82  C   UNL     1       0.446  -7.865  20.390  0.00  0.00    +0.277 C 
ENDBRANCH  75  81
BRANCH  74  83
ATOM     83  O   UNL     1       0.599 -10.407  23.518  0.00  0.00    -0.501 OA
ATOM     84  H   UNL     1       1.086 -10.897  24.199  0.00  0.00    +0.292 HD
ENDBRANCH  74  83
ENDBRANCH  71  77
ENDBRANCH  69  72
ENDBRANCH  68  69
ENDBRANCH  67  68
ENDBRANCH  55  67
ENDBRANCH  54  57
ENDBRANCH   1  54
TORSDOF 30
ENDMDL
MODEL 9
REMARK VINA RESULT:      -4.2      1.853      8.386
REMARK  Name = 
REMARK  32 active torsions:
REMARK  status: ('A' for Active; 'I' for Inactive)
REMARK    1  A    between atoms: C_1  and  O_2
REMARK    2  A    between atoms: O_2  and  C_3
REMARK    3  A    between atoms: C_5  and  C_12
REMARK    4  A    between atoms: C_7  and  O_10
REMARK    5  A    between atoms: C_8  and  O_9
REMARK    6  A    between atoms: O_10  and  C_11
REMARK    7  A    between atoms: C_13  and  C_14
REMARK    8  A    between atoms: C_14  and  O_16
REMARK    9  A    between atoms: O_16  and  C_17
REMARK   10  A    between atoms: C_17  and  C_18
REMARK   11  A    between atoms: C_19  and  O_78
REMARK   12  A    between atoms: C_21  and  O_77
REMARK   13  A    between atoms: C_22  and  O_76
REMARK   14  A    between atoms: C_24  and  O_27
REMARK   15  A    between atoms: O_27  and  C_28
REMARK   16  A    between atoms: C_29  and  O_40
REMARK   17  A    between atoms: C_32  and  C_38
REMARK   18  A    between atoms: C_33  and  O_37
REMARK   19  A    between atoms: C_35  and  O_36
REMARK   20  A    between atoms: C_38  and  O_39
REMARK   21  A    between atoms: O_40  and  C_41
REMARK   22  A    between atoms: C_42  and  O_75
REMARK   23  A    between atoms: C_44  and  O_74
REMARK   24  A    between atoms: C_46  and  C_72
REMARK   25  A    between atoms: C_48  and  O_50
REMARK   26  A    between atoms: O_50  and  C_51
REMARK   27  A    between atoms: C_52  and  C_64
REMARK   28  A    between atoms: C_56  and  O_63
REMARK   29  A    between atoms: C_58  and  O_62
REMARK   30  A    between atoms: C_66  and  O_71
REMARK   31  A    between atoms: C_67  and  O_70
REMARK   32  A    between atoms: C_72  and  O_73
REMARK                            x       y       z     vdW  Elec       q    Type
REMARK                         _______ _______ _______ _____ _____    ______ ____
ROOT
ATOM      1  C   UNL     1       3.424  -2.041  27.661  0.00  0.00    +0.208 C 
ATOM      2  C   UNL     1       2.979  -2.679  28.988  0.00  0.00    +0.179 C 
ATOM      3  C   UNL     1       1.461  -2.923  29.002  0.00  0.00    +0.177 C 
ATOM      4  C   UNL     1       0.645  -1.691  28.596  0.00  0.00    +0.178 C 
ATOM      5  O   UNL     1       1.132  -1.135  27.371  0.00  0.00    -0.341 OA
ATOM      6  C   UNL     1       2.531  -0.803  27.346  0.00  0.00    +0.283 C 
ENDROOT
BRANCH   3   7
ATOM      7  O   UNL     1       1.045  -3.458  30.255  0.00  0.00    -0.386 OA
ATOM      8  H   UNL     1       1.172  -2.772  30.935  0.00  0.00    +0.210 HD
ENDBRANCH   3   7
BRANCH   2   9
ATOM      9  O   UNL     1       3.472  -1.910  30.086  0.00  0.00    -0.386 OA
ATOM     10  H   UNL     1       4.235  -2.337  30.503  0.00  0.00    +0.210 HD
ENDBRANCH   2   9
BRANCH   6  11
ATOM     11  O   UNL     1       2.727   0.337  28.175  0.00  0.00    -0.337 OA
BRANCH  11  12
ATOM     12  C   UNL     1       2.829   1.616  27.535  0.00  0.00    +0.221 C 
ATOM     13  C   UNL     1       4.317   1.941  27.266  0.00  0.00    +0.340 C 
ATOM     14  O   UNL     1       5.058   1.923  28.501  0.00  0.00    -0.331 OA
ATOM     15  C   UNL     1       4.669   2.964  29.424  0.00  0.00    +0.179 C 
ATOM     16  C   UNL     1       3.146   2.941  29.681  0.00  0.00    +0.177 C 
ATOM     17  C   UNL     1       2.330   2.807  28.386  0.00  0.00    +0.180 C 
BRANCH  17  18
ATOM     18  O   UNL     1       0.937   2.733  28.720  0.00  0.00    -0.386 OA
ATOM     19  H   UNL     1       0.720   1.809  28.938  0.00  0.00    +0.210 HD
ENDBRANCH  17  18
BRANCH  16  20
ATOM     20  O   UNL     1       2.679   4.089  30.391  0.00  0.00    -0.386 OA
ATOM     21  H   UNL     1       2.341   3.751  31.242  0.00  0.00    +0.210 HD
ENDBRANCH  16  20
BRANCH  13  22
ATOM     22  O   UNL     1       4.926   1.083  26.274  0.00  0.00    -0.453 OA
BRANCH  22  23
ATOM     23  C   UNL     1       5.976   1.752  25.623  0.00  0.00    +0.214 A 
ATOM     24  C   UNL     1       7.402   1.505  25.976  0.00  0.00    +0.238 A 
ATOM     25  O   UNL     1       7.755   1.144  27.092  0.00  0.00    -0.283 OA
ATOM     26  C   UNL     1       8.369   1.780  24.916  0.00  0.00    +0.109 A 
ATOM     27  C   UNL     1       8.017   2.775  24.011  0.00  0.00    +0.147 A 
ATOM     28  C   UNL     1       8.892   3.143  22.994  0.00  0.00    +0.092 A 
ATOM     29  C   UNL     1      10.088   2.448  22.856  0.00  0.00    +0.124 A 
ATOM     30  C   UNL     1      10.439   1.429  23.739  0.00  0.00    +0.091 A 
ATOM     31  O   UNL     1       6.806   3.415  24.075  0.00  0.00    -0.451 OA
ATOM     32  C   UNL     1       9.584   1.104  24.786  0.00  0.00    +0.135 A 
ATOM     33  C   UNL     1       5.774   2.757  24.747  0.00  0.00    +0.181 A 
BRANCH  33  34
ATOM     34  C   UNL     1       4.504   3.489  24.608  0.00  0.00    +0.025 A 
ATOM     35  C   UNL     1       4.409   4.636  25.395  0.00  0.00    +0.015 A 
ATOM     36  C   UNL     1       3.286   5.439  25.325  0.00  0.00    +0.050 A 
ATOM     37  C   UNL     1       2.237   5.111  24.499  0.00  0.00    +0.158 A 
ATOM     38  C   UNL     1       2.342   4.005  23.676  0.00  0.00    +0.159 A 
ATOM     39  C   UNL     1       3.473   3.193  23.712  0.00  0.00    +0.060 A 
BRANCH  38  40
ATOM     40  O   UNL     1       1.295   3.801  22.821  0.00  0.00    -0.503 OA
ATOM     41  H   UNL     1       0.965   2.900  22.964  0.00  0.00    +0.292 HD
ENDBRANCH  38  40
BRANCH  37  42
ATOM     42  O   UNL     1       1.129   5.904  24.492  0.00  0.00    -0.503 OA
ATOM     43  H   UNL     1       0.874   5.977  23.553  0.00  0.00    +0.292 HD
ENDBRANCH  37  42
ENDBRANCH  33  34
BRANCH  32  44
ATOM     44  O   UNL     1       9.929   0.094  25.639  0.00  0.00    -0.506 OA
ATOM     45  H   UNL     1       9.126  -0.280  26.038  0.00  0.00    +0.292 HD
ENDBRANCH  32  44
BRANCH  29  46
ATOM     46  O   UNL     1      10.958   2.725  21.846  0.00  0.00    -0.507 OA
ATOM     47  H   UNL     1      10.725   2.190  21.069  0.00  0.00    +0.292 HD
ENDBRANCH  29  46
ENDBRANCH  22  23
ENDBRANCH  13  22
BRANCH  15  48
ATOM     48  C   UNL     1       5.281   4.309  28.976  0.00  0.00    +0.190 C 
BRANCH  48  49
ATOM     49  O   UNL     1       5.945   5.008  30.017  0.00  0.00    -0.392 OA
ATOM     50  H   UNL     1       6.817   5.261  29.671  0.00  0.00    +0.210 HD
ENDBRANCH  48  49
ENDBRANCH  15  48
ENDBRANCH  11  12
ENDBRANCH   6  11
BRANCH   4  51
ATOM     51  C   UNL     1       0.443  -0.627  29.689  0.00  0.00    +0.190 C 
BRANCH  51  52
ATOM     52  O   UNL     1       1.626  -0.528  30.485  0.00  0.00    -0.392 OA
ATOM     53  H   UNL     1       1.339  -0.756  31.392  0.00  0.00    +0.210 HD
ENDBRANCH  51  52
ENDBRANCH   4  51
BRANCH   1  54
ATOM     54  O   UNL     1       3.321  -2.918  26.525  0.00  0.00    -0.338 OA
BRANCH  54  57
ATOM     55  C   UNL     1       3.450  -6.513  27.211  0.00  0.00    +0.190 C 
ATOM     56  O   UNL     1       2.936  -5.165  27.147  0.00  0.00    -0.339 OA
ATOM     57  C   UNL     1       3.886  -4.217  26.672  0.00  0.00    +0.282 C 
ATOM     58  C   UNL     1       5.049  -4.114  27.677  0.00  0.00    +0.201 C 
ATOM     59  C   UNL     1       5.734  -5.483  27.777  0.00  0.00    +0.179 C 
ATOM     60  C   UNL     1       4.719  -6.596  28.086  0.00  0.00    +0.178 C 
BRANCH  60  61
ATOM     61  O   UNL     1       5.346  -7.869  27.920  0.00  0.00    -0.386 OA
ATOM     62  H   UNL     1       4.787  -8.539  28.353  0.00  0.00    +0.210 HD
ENDBRANCH  60  61
BRANCH  58  63
ATOM     63  O   UNL     1       6.017  -3.119  27.317  0.00  0.00    -0.384 OA
ATOM     64  H   UNL     1       6.497  -3.418  26.527  0.00  0.00    +0.210 HD
ENDBRANCH  58  63
BRANCH  59  65
ATOM     65  O   UNL     1       6.748  -5.478  28.798  0.00  0.00    -0.386 OA
ATOM     66  H   UNL     1       6.761  -4.599  29.217  0.00  0.00    +0.210 HD
ENDBRANCH  59  65
BRANCH  55  67
ATOM     67  C   UNL     1       3.623  -7.127  25.807  0.00  0.00    +0.266 C 
BRANCH  67  68
ATOM     68  O   UNL     1       2.593  -6.650  24.917  0.00  0.00    -0.459 OA
BRANCH  68  69
ATOM     69  C   UNL     1       3.009  -6.189  23.711  0.00  0.00    +0.332 C 
ATOM     70  O   UNL     1       2.360  -6.205  22.677  0.00  0.00    -0.246 OA
BRANCH  69  72
ATOM     71  C   UNL     1       4.835  -4.611  23.147  0.00  0.00    +0.015 C 
ATOM     72  C   UNL     1       4.414  -5.725  23.765  0.00  0.00    +0.092 C 
BRANCH  71  77
ATOM     73  C   UNL     1       8.412  -4.175  24.282  0.00  0.00    +0.166 A 
ATOM     74  C   UNL     1       8.757  -2.995  23.605  0.00  0.00    +0.201 A 
ATOM     75  C   UNL     1       7.831  -2.362  22.755  0.00  0.00    +0.166 A 
ATOM     76  C   UNL     1       6.559  -2.916  22.583  0.00  0.00    +0.057 A 
ATOM     77  C   UNL     1       6.192  -4.074  23.283  0.00  0.00    -0.018 A 
ATOM     78  C   UNL     1       7.121  -4.699  24.121  0.00  0.00    +0.057 A 
BRANCH  73  80
ATOM     79  C   UNL     1       9.274  -4.600  26.476  0.00  0.00    +0.277 C 
ATOM     80  O   UNL     1       9.201  -4.941  25.099  0.00  0.00    -0.491 OA
ENDBRANCH  73  80
BRANCH  75  81
ATOM     81  O   UNL     1       8.068  -1.094  22.274  0.00  0.00    -0.491 OA
ATOM     82  C   UNL     1       7.022  -0.143  22.474  0.00  0.00    +0.277 C 
ENDBRANCH  75  81
BRANCH  74  83
ATOM     83  O   UNL     1      10.019  -2.474  23.727  0.00  0.00    -0.501 OA
ATOM     84  H   UNL     1      10.603  -3.190  24.023  0.00  0.00    +0.292 HD
ENDBRANCH  74  83
ENDBRANCH  71  77
ENDBRANCH  69  72
ENDBRANCH  68  69
ENDBRANCH  67  68
ENDBRANCH  55  67
ENDBRANCH  54  57
ENDBRANCH   1  54
TORSDOF 30
ENDMDL
