MODEL 1
REMARK VINA RESULT:      -7.3      0.000      0.000
REMARK  Name = 
REMARK  16 active torsions:
REMARK  status: ('A' for Active; 'I' for Inactive)
REMARK    1  A    between atoms: C_1  and  C_2
REMARK    2  A    between atoms: C_2  and  C_3
REMARK    3  A    between atoms: C_3  and  C_4
REMARK    4  A    between atoms: C_4  and  O_5
REMARK    5  A    between atoms: O_5  and  C_6
REMARK    6  A    between atoms: C_6  and  C_8
REMARK    7  A    between atoms: C_9  and  O_41
REMARK    8  A    between atoms: C_11  and  O_40
REMARK    9  A    between atoms: C_13  and  O_39
REMARK   10  A    between atoms: C_14  and  O_17
REMARK   11  A    between atoms: O_17  and  C_18
REMARK   12  A    between atoms: C_19  and  C_31
REMARK   13  A    between atoms: C_23  and  O_30
REMARK   14  A    between atoms: C_25  and  O_29
REMARK   15  A    between atoms: C_33  and  O_38
REMARK   16  A    between atoms: C_34  and  O_37
REMARK                            x       y       z     vdW  Elec       q    Type
REMARK                         _______ _______ _______ _____ _____    ______ ____
ROOT
ATOM      1  C   UNL     1       7.347   3.633  24.199  0.00  0.00    +0.214 A 
ATOM      2  C   UNL     1       5.924   3.227  23.946  0.00  0.00    +0.238 A 
ATOM      3  O   UNL     1       5.525   2.101  24.229  0.00  0.00    -0.283 OA
ATOM      4  C   UNL     1       5.023   4.209  23.314  0.00  0.00    +0.109 A 
ATOM      5  C   UNL     1       5.449   5.527  23.242  0.00  0.00    +0.147 A 
ATOM      6  C   UNL     1       4.665   6.520  22.647  0.00  0.00    +0.092 A 
ATOM      7  C   UNL     1       3.417   6.185  22.140  0.00  0.00    +0.124 A 
ATOM      8  C   UNL     1       2.953   4.878  22.222  0.00  0.00    +0.091 A 
ATOM      9  O   UNL     1       6.641   5.920  23.758  0.00  0.00    -0.451 OA
ATOM     10  C   UNL     1       3.758   3.890  22.798  0.00  0.00    +0.135 A 
ATOM     11  C   UNL     1       7.595   4.972  24.111  0.00  0.00    +0.181 A 
ENDROOT
BRANCH  11  12
ATOM     12  C   UNL     1       8.913   5.669  24.273  0.00  0.00    +0.025 A 
ATOM     13  C   UNL     1       9.221   6.335  25.459  0.00  0.00    +0.015 A 
ATOM     14  C   UNL     1      10.521   6.772  25.722  0.00  0.00    +0.050 A 
ATOM     15  C   UNL     1      11.546   6.490  24.824  0.00  0.00    +0.158 A 
ATOM     16  C   UNL     1      11.263   5.862  23.617  0.00  0.00    +0.159 A 
ATOM     17  C   UNL     1       9.948   5.471  23.327  0.00  0.00    +0.060 A 
BRANCH  15  18
ATOM     18  O   UNL     1      12.836   6.793  25.153  0.00  0.00    -0.503 OA
ATOM     19  H   UNL     1      13.409   6.435  24.456  0.00  0.00    +0.292 HD
ENDBRANCH  15  18
BRANCH  16  20
ATOM     20  O   UNL     1      12.296   5.586  22.759  0.00  0.00    -0.503 OA
ATOM     21  H   UNL     1      12.539   4.652  22.830  0.00  0.00    +0.292 HD
ENDBRANCH  16  20
ENDBRANCH  11  12
BRANCH   7  22
ATOM     22  O   UNL     1       2.606   7.107  21.551  0.00  0.00    -0.507 OA
ATOM     23  H   UNL     1       1.834   6.662  21.162  0.00  0.00    +0.292 HD
ENDBRANCH   7  22
BRANCH  10  24
ATOM     24  O   UNL     1       3.298   2.606  22.823  0.00  0.00    -0.506 OA
ATOM     25  H   UNL     1       2.694   2.484  23.572  0.00  0.00    +0.292 HD
ENDBRANCH  10  24
BRANCH   1  26
ATOM     26  O   UNL     1       8.324   2.690  24.532  0.00  0.00    -0.453 OA
BRANCH  26  29
ATOM     27  C   UNL     1       9.820  -0.676  24.058  0.00  0.00    +0.261 C 
ATOM     28  O   UNL     1       9.317   0.516  24.658  0.00  0.00    -0.322 OA
ATOM     29  C   UNL     1       8.316   1.319  23.999  0.00  0.00    +0.340 C 
ATOM     30  C   UNL     1       8.554   1.441  22.455  0.00  0.00    +0.214 C 
ATOM     31  C   UNL     1       8.918   0.064  21.886  0.00  0.00    +0.180 C 
ATOM     32  C   UNL     1      10.188  -0.430  22.577  0.00  0.00    +0.185 C 
BRANCH  27  33
ATOM     33  C   UNL     1       9.315  -2.167  24.150  0.00  0.00    +0.339 C 
ATOM     34  O   UNL     1      10.133  -3.097  24.070  0.00  0.00    -0.248 OA
BRANCH  33  35
ATOM     35  O   UNL     1       7.974  -2.356  24.140  0.00  0.00    -0.463 OA
BRANCH  35  36
ATOM     36  C   UNL     1       7.482  -3.607  23.561  0.00  0.00    +0.232 C 
BRANCH  36  37
ATOM     37  C   UNL     1       6.642  -3.509  22.272  0.00  0.00    +0.041 C 
BRANCH  37  39
ATOM     38  C   UNL     1       7.105  -5.979  21.645  0.00  0.00    +0.004 C 
ATOM     39  C   UNL     1       6.085  -4.857  21.764  0.00  0.00    -0.000 C 
ENDBRANCH  37  39
ENDBRANCH  36  37
ENDBRANCH  35  36
ENDBRANCH  33  35
ENDBRANCH  27  33
BRANCH  30  40
ATOM     40  O   UNL     1       9.590   2.392  22.129  0.00  0.00    -0.383 OA
ATOM     41  H   UNL     1       9.237   3.289  22.253  0.00  0.00    +0.210 HD
ENDBRANCH  30  40
BRANCH  31  42
ATOM     42  O   UNL     1       9.114   0.082  20.468  0.00  0.00    -0.386 OA
ATOM     43  H   UNL     1       8.384  -0.467  20.109  0.00  0.00    +0.210 HD
ENDBRANCH  31  42
BRANCH  32  44
ATOM     44  O   UNL     1      10.698  -1.550  21.838  0.00  0.00    -0.386 OA
ATOM     45  H   UNL     1      10.183  -1.653  21.011  0.00  0.00    +0.210 HD
ENDBRANCH  32  44
ENDBRANCH  26  29
ENDBRANCH   1  26
TORSDOF 15
ENDMDL
MODEL 2
REMARK VINA RESULT:      -7.3      4.245      8.048
REMARK  Name = 
REMARK  16 active torsions:
REMARK  status: ('A' for Active; 'I' for Inactive)
REMARK    1  A    between atoms: C_1  and  C_2
REMARK    2  A    between atoms: C_2  and  C_3
REMARK    3  A    between atoms: C_3  and  C_4
REMARK    4  A    between atoms: C_4  and  O_5
REMARK    5  A    between atoms: O_5  and  C_6
REMARK    6  A    between atoms: C_6  and  C_8
REMARK    7  A    between atoms: C_9  and  O_41
REMARK    8  A    between atoms: C_11  and  O_40
REMARK    9  A    between atoms: C_13  and  O_39
REMARK   10  A    between atoms: C_14  and  O_17
REMARK   11  A    between atoms: O_17  and  C_18
REMARK   12  A    between atoms: C_19  and  C_31
REMARK   13  A    between atoms: C_23  and  O_30
REMARK   14  A    between atoms: C_25  and  O_29
REMARK   15  A    between atoms: C_33  and  O_38
REMARK   16  A    between atoms: C_34  and  O_37
REMARK                            x       y       z     vdW  Elec       q    Type
REMARK                         _______ _______ _______ _____ _____    ______ ____
ROOT
ATOM      1  C   UNL     1       7.551  -2.445  25.529  0.00  0.00    +0.214 A 
ATOM      2  C   UNL     1       8.543  -2.547  24.407  0.00  0.00    +0.238 A 
ATOM      3  O   UNL     1       9.088  -3.613  24.135  0.00  0.00    -0.283 OA
ATOM      4  C   UNL     1       8.873  -1.319  23.658  0.00  0.00    +0.109 A 
ATOM      5  C   UNL     1       8.059  -0.211  23.839  0.00  0.00    +0.147 A 
ATOM      6  C   UNL     1       8.306   0.997  23.180  0.00  0.00    +0.092 A 
ATOM      7  C   UNL     1       9.377   1.082  22.300  0.00  0.00    +0.124 A 
ATOM      8  C   UNL     1      10.193  -0.020  22.079  0.00  0.00    +0.091 A 
ATOM      9  O   UNL     1       6.974  -0.249  24.654  0.00  0.00    -0.451 OA
ATOM     10  C   UNL     1       9.949  -1.215  22.764  0.00  0.00    +0.135 A 
ATOM     11  C   UNL     1       6.812  -1.298  25.551  0.00  0.00    +0.181 A 
ENDROOT
BRANCH  11  12
ATOM     12  C   UNL     1       5.779  -0.897  26.562  0.00  0.00    +0.025 A 
ATOM     13  C   UNL     1       6.109  -0.033  27.606  0.00  0.00    +0.015 A 
ATOM     14  C   UNL     1       5.117   0.543  28.403  0.00  0.00    +0.050 A 
ATOM     15  C   UNL     1       3.775   0.310  28.123  0.00  0.00    +0.158 A 
ATOM     16  C   UNL     1       3.416  -0.576  27.113  0.00  0.00    +0.159 A 
ATOM     17  C   UNL     1       4.413  -1.198  26.347  0.00  0.00    +0.060 A 
BRANCH  15  18
ATOM     18  O   UNL     1       2.811   0.988  28.813  0.00  0.00    -0.503 OA
ATOM     19  H   UNL     1       3.183   1.845  29.074  0.00  0.00    +0.292 HD
ENDBRANCH  15  18
BRANCH  16  20
ATOM     20  O   UNL     1       2.086  -0.775  26.852  0.00  0.00    -0.503 OA
ATOM     21  H   UNL     1       1.791  -0.156  26.168  0.00  0.00    +0.292 HD
ENDBRANCH  16  20
ENDBRANCH  11  12
BRANCH   7  22
ATOM     22  O   UNL     1       9.669   2.229  21.626  0.00  0.00    -0.507 OA
ATOM     23  H   UNL     1       9.634   2.063  20.669  0.00  0.00    +0.292 HD
ENDBRANCH   7  22
BRANCH  10  24
ATOM     24  O   UNL     1      10.794  -2.266  22.563  0.00  0.00    -0.506 OA
ATOM     25  H   UNL     1      10.598  -2.695  21.715  0.00  0.00    +0.292 HD
ENDBRANCH  10  24
BRANCH   1  26
ATOM     26  O   UNL     1       7.392  -3.481  26.455  0.00  0.00    -0.453 OA
BRANCH  26  29
ATOM     27  C   UNL     1       4.333  -5.412  25.614  0.00  0.00    +0.261 C 
ATOM     28  O   UNL     1       5.374  -4.437  25.594  0.00  0.00    -0.322 OA
ATOM     29  C   UNL     1       6.680  -4.727  26.136  0.00  0.00    +0.340 C 
ATOM     30  C   UNL     1       6.616  -5.556  27.463  0.00  0.00    +0.214 C 
ATOM     31  C   UNL     1       5.590  -6.687  27.309  0.00  0.00    +0.180 C 
ATOM     32  C   UNL     1       4.225  -6.069  27.008  0.00  0.00    +0.185 C 
BRANCH  27  33
ATOM     33  C   UNL     1       3.945  -6.524  24.565  0.00  0.00    +0.339 C 
ATOM     34  O   UNL     1       2.789  -6.975  24.552  0.00  0.00    -0.248 OA
BRANCH  33  35
ATOM     35  O   UNL     1       4.957  -7.055  23.840  0.00  0.00    -0.463 OA
BRANCH  35  36
ATOM     36  C   UNL     1       5.294  -6.390  22.580  0.00  0.00    +0.232 C 
BRANCH  36  37
ATOM     37  C   UNL     1       6.632  -5.627  22.516  0.00  0.00    +0.041 C 
BRANCH  37  39
ATOM     38  C   UNL     1       5.693  -3.220  22.331  0.00  0.00    +0.004 C 
ATOM     39  C   UNL     1       6.580  -4.300  21.728  0.00  0.00    -0.000 C 
ENDBRANCH  37  39
ENDBRANCH  36  37
ENDBRANCH  35  36
ENDBRANCH  33  35
ENDBRANCH  27  33
BRANCH  30  40
ATOM     40  O   UNL     1       6.278  -4.744  28.607  0.00  0.00    -0.383 OA
ATOM     41  H   UNL     1       6.111  -3.836  28.304  0.00  0.00    +0.210 HD
ENDBRANCH  30  40
BRANCH  31  42
ATOM     42  O   UNL     1       5.500  -7.518  28.470  0.00  0.00    -0.386 OA
ATOM     43  H   UNL     1       6.307  -7.310  28.989  0.00  0.00    +0.210 HD
ENDBRANCH  31  42
BRANCH  32  44
ATOM     44  O   UNL     1       3.224  -7.084  27.175  0.00  0.00    -0.386 OA
ATOM     45  H   UNL     1       2.401  -6.803  26.723  0.00  0.00    +0.210 HD
ENDBRANCH  32  44
ENDBRANCH  26  29
ENDBRANCH   1  26
TORSDOF 15
ENDMDL
MODEL 3
REMARK VINA RESULT:      -7.1      3.968      8.335
REMARK  Name = 
REMARK  16 active torsions:
REMARK  status: ('A' for Active; 'I' for Inactive)
REMARK    1  A    between atoms: C_1  and  C_2
REMARK    2  A    between atoms: C_2  and  C_3
REMARK    3  A    between atoms: C_3  and  C_4
REMARK    4  A    between atoms: C_4  and  O_5
REMARK    5  A    between atoms: O_5  and  C_6
REMARK    6  A    between atoms: C_6  and  C_8
REMARK    7  A    between atoms: C_9  and  O_41
REMARK    8  A    between atoms: C_11  and  O_40
REMARK    9  A    between atoms: C_13  and  O_39
REMARK   10  A    between atoms: C_14  and  O_17
REMARK   11  A    between atoms: O_17  and  C_18
REMARK   12  A    between atoms: C_19  and  C_31
REMARK   13  A    between atoms: C_23  and  O_30
REMARK   14  A    between atoms: C_25  and  O_29
REMARK   15  A    between atoms: C_33  and  O_38
REMARK   16  A    between atoms: C_34  and  O_37
REMARK                            x       y       z     vdW  Elec       q    Type
REMARK                         _______ _______ _______ _____ _____    ______ ____
ROOT
ATOM      1  C   UNL     1       6.186  -0.807  24.591  0.00  0.00    +0.214 A 
ATOM      2  C   UNL     1       6.728   0.545  24.955  0.00  0.00    +0.238 A 
ATOM      3  O   UNL     1       6.291   1.166  25.920  0.00  0.00    -0.283 OA
ATOM      4  C   UNL     1       7.782   1.123  24.101  0.00  0.00    +0.109 A 
ATOM      5  C   UNL     1       8.405   0.289  23.185  0.00  0.00    +0.147 A 
ATOM      6  C   UNL     1       9.404   0.757  22.326  0.00  0.00    +0.092 A 
ATOM      7  C   UNL     1       9.802   2.084  22.410  0.00  0.00    +0.124 A 
ATOM      8  C   UNL     1       9.214   2.936  23.336  0.00  0.00    +0.091 A 
ATOM      9  O   UNL     1       8.086  -1.027  23.087  0.00  0.00    -0.451 OA
ATOM     10  C   UNL     1       8.199   2.460  24.172  0.00  0.00    +0.135 A 
ATOM     11  C   UNL     1       6.931  -1.511  23.692  0.00  0.00    +0.181 A 
ENDROOT
BRANCH  11  12
ATOM     12  C   UNL     1       6.628  -2.861  23.112  0.00  0.00    +0.025 A 
ATOM     13  C   UNL     1       7.652  -3.782  22.890  0.00  0.00    +0.015 A 
ATOM     14  C   UNL     1       7.366  -5.115  22.588  0.00  0.00    +0.050 A 
ATOM     15  C   UNL     1       6.047  -5.558  22.568  0.00  0.00    +0.158 A 
ATOM     16  C   UNL     1       5.005  -4.656  22.748  0.00  0.00    +0.159 A 
ATOM     17  C   UNL     1       5.289  -3.306  22.997  0.00  0.00    +0.060 A 
BRANCH  15  18
ATOM     18  O   UNL     1       5.782  -6.889  22.415  0.00  0.00    -0.503 OA
ATOM     19  H   UNL     1       6.404  -7.380  22.976  0.00  0.00    +0.292 HD
ENDBRANCH  15  18
BRANCH  16  20
ATOM     20  O   UNL     1       3.718  -5.126  22.737  0.00  0.00    -0.503 OA
ATOM     21  H   UNL     1       3.632  -5.831  22.079  0.00  0.00    +0.292 HD
ENDBRANCH  16  20
ENDBRANCH  11  12
BRANCH   7  22
ATOM     22  O   UNL     1      10.771   2.600  21.603  0.00  0.00    -0.507 OA
ATOM     23  H   UNL     1      10.543   3.514  21.363  0.00  0.00    +0.292 HD
ENDBRANCH   7  22
BRANCH  10  24
ATOM     24  O   UNL     1       7.607   3.331  25.039  0.00  0.00    -0.506 OA
ATOM     25  H   UNL     1       7.211   2.846  25.780  0.00  0.00    +0.292 HD
ENDBRANCH  10  24
BRANCH   1  26
ATOM     26  O   UNL     1       5.012  -1.300  25.172  0.00  0.00    -0.453 OA
BRANCH  26  29
ATOM     27  C   UNL     1       3.850  -4.020  27.417  0.00  0.00    +0.261 C 
ATOM     28  O   UNL     1       4.379  -3.316  26.295  0.00  0.00    -0.322 OA
ATOM     29  C   UNL     1       5.005  -2.025  26.451  0.00  0.00    +0.340 C 
ATOM     30  C   UNL     1       4.260  -1.108  27.479  0.00  0.00    +0.214 C 
ATOM     31  C   UNL     1       3.894  -1.928  28.722  0.00  0.00    +0.180 C 
ATOM     32  C   UNL     1       2.989  -3.084  28.295  0.00  0.00    +0.185 C 
BRANCH  27  33
ATOM     33  C   UNL     1       4.529  -5.052  28.398  0.00  0.00    +0.339 C 
ATOM     34  O   UNL     1       3.826  -5.880  28.998  0.00  0.00    -0.248 OA
BRANCH  33  35
ATOM     35  O   UNL     1       5.843  -4.861  28.665  0.00  0.00    -0.463 OA
BRANCH  35  36
ATOM     36  C   UNL     1       6.795  -5.734  27.976  0.00  0.00    +0.232 C 
BRANCH  36  37
ATOM     37  C   UNL     1       7.218  -5.336  26.547  0.00  0.00    +0.041 C 
BRANCH  37  39
ATOM     38  C   UNL     1       9.663  -5.011  25.756  0.00  0.00    +0.004 C 
ATOM     39  C   UNL     1       8.459  -4.420  26.475  0.00  0.00    -0.000 C 
ENDBRANCH  37  39
ENDBRANCH  36  37
ENDBRANCH  35  36
ENDBRANCH  33  35
ENDBRANCH  27  33
BRANCH  30  40
ATOM     40  O   UNL     1       3.071  -0.508  26.924  0.00  0.00    -0.383 OA
ATOM     41  H   UNL     1       2.682   0.083  27.590  0.00  0.00    +0.210 HD
ENDBRANCH  30  40
BRANCH  31  42
ATOM     42  O   UNL     1       3.242  -1.150  29.730  0.00  0.00    -0.386 OA
ATOM     43  H   UNL     1       3.090  -0.275  29.311  0.00  0.00    +0.210 HD
ENDBRANCH  31  42
BRANCH  32  44
ATOM     44  O   UNL     1       2.400  -3.655  29.473  0.00  0.00    -0.386 OA
ATOM     45  H   UNL     1       2.760  -3.204  30.265  0.00  0.00    +0.210 HD
ENDBRANCH  32  44
ENDBRANCH  26  29
ENDBRANCH   1  26
TORSDOF 15
ENDMDL
MODEL 4
REMARK VINA RESULT:      -7.0      3.622      7.840
REMARK  Name = 
REMARK  16 active torsions:
REMARK  status: ('A' for Active; 'I' for Inactive)
REMARK    1  A    between atoms: C_1  and  C_2
REMARK    2  A    between atoms: C_2  and  C_3
REMARK    3  A    between atoms: C_3  and  C_4
REMARK    4  A    between atoms: C_4  and  O_5
REMARK    5  A    between atoms: O_5  and  C_6
REMARK    6  A    between atoms: C_6  and  C_8
REMARK    7  A    between atoms: C_9  and  O_41
REMARK    8  A    between atoms: C_11  and  O_40
REMARK    9  A    between atoms: C_13  and  O_39
REMARK   10  A    between atoms: C_14  and  O_17
REMARK   11  A    between atoms: O_17  and  C_18
REMARK   12  A    between atoms: C_19  and  C_31
REMARK   13  A    between atoms: C_23  and  O_30
REMARK   14  A    between atoms: C_25  and  O_29
REMARK   15  A    between atoms: C_33  and  O_38
REMARK   16  A    between atoms: C_34  and  O_37
REMARK                            x       y       z     vdW  Elec       q    Type
REMARK                         _______ _______ _______ _____ _____    ______ ____
ROOT
ATOM      1  C   UNL     1       6.847  -0.473  24.938  0.00  0.00    +0.214 A 
ATOM      2  C   UNL     1       7.159   0.914  25.419  0.00  0.00    +0.238 A 
ATOM      3  O   UNL     1       6.527   1.426  26.339  0.00  0.00    -0.283 OA
ATOM      4  C   UNL     1       8.229   1.663  24.731  0.00  0.00    +0.109 A 
ATOM      5  C   UNL     1       9.065   0.961  23.876  0.00  0.00    +0.147 A 
ATOM      6  C   UNL     1      10.095   1.594  23.173  0.00  0.00    +0.092 A 
ATOM      7  C   UNL     1      10.304   2.953  23.357  0.00  0.00    +0.124 A 
ATOM      8  C   UNL     1       9.498   3.677  24.227  0.00  0.00    +0.091 A 
ATOM      9  O   UNL     1       8.934  -0.377  23.691  0.00  0.00    -0.451 OA
ATOM     10  C   UNL     1       8.457   3.036  24.904  0.00  0.00    +0.135 A 
ATOM     11  C   UNL     1       7.785  -1.032  24.120  0.00  0.00    +0.181 A 
ENDROOT
BRANCH  11  12
ATOM     12  C   UNL     1       7.735  -2.377  23.458  0.00  0.00    +0.025 A 
ATOM     13  C   UNL     1       8.350  -3.480  24.050  0.00  0.00    +0.015 A 
ATOM     14  C   UNL     1       8.107  -4.774  23.583  0.00  0.00    +0.050 A 
ATOM     15  C   UNL     1       7.193  -4.985  22.556  0.00  0.00    +0.158 A 
ATOM     16  C   UNL     1       6.594  -3.903  21.922  0.00  0.00    +0.159 A 
ATOM     17  C   UNL     1       6.878  -2.599  22.353  0.00  0.00    +0.060 A 
BRANCH  15  18
ATOM     18  O   UNL     1       6.853  -6.259  22.202  0.00  0.00    -0.503 OA
ATOM     19  H   UNL     1       7.675  -6.767  22.105  0.00  0.00    +0.292 HD
ENDBRANCH  15  18
BRANCH  16  20
ATOM     20  O   UNL     1       5.687  -4.143  20.922  0.00  0.00    -0.503 OA
ATOM     21  H   UNL     1       5.825  -5.031  20.563  0.00  0.00    +0.292 HD
ENDBRANCH  16  20
ENDBRANCH  11  12
BRANCH   7  22
ATOM     22  O   UNL     1      11.292   3.627  22.703  0.00  0.00    -0.507 OA
ATOM     23  H   UNL     1      12.151   3.217  22.900  0.00  0.00    +0.292 HD
ENDBRANCH   7  22
BRANCH  10  24
ATOM     24  O   UNL     1       7.652   3.780  25.717  0.00  0.00    -0.506 OA
ATOM     25  H   UNL     1       6.740   3.768  25.384  0.00  0.00    +0.292 HD
ENDBRANCH  10  24
BRANCH   1  26
ATOM     26  O   UNL     1       5.684  -1.137  25.341  0.00  0.00    -0.453 OA
BRANCH  26  29
ATOM     27  C   UNL     1       4.652  -4.664  25.884  0.00  0.00    +0.261 C 
ATOM     28  O   UNL     1       5.146  -3.469  25.282  0.00  0.00    -0.322 OA
ATOM     29  C   UNL     1       5.713  -2.409  26.080  0.00  0.00    +0.340 C 
ATOM     30  C   UNL     1       4.928  -2.166  27.414  0.00  0.00    +0.214 C 
ATOM     31  C   UNL     1       4.602  -3.516  28.066  0.00  0.00    +0.180 C 
ATOM     32  C   UNL     1       3.751  -4.334  27.095  0.00  0.00    +0.185 C 
BRANCH  27  33
ATOM     33  C   UNL     1       5.380  -6.021  26.225  0.00  0.00    +0.339 C 
ATOM     34  O   UNL     1       6.549  -6.000  26.643  0.00  0.00    -0.248 OA
BRANCH  33  35
ATOM     35  O   UNL     1       4.737  -7.159  25.875  0.00  0.00    -0.463 OA
BRANCH  35  36
ATOM     36  C   UNL     1       4.118  -7.192  24.548  0.00  0.00    +0.232 C 
BRANCH  36  37
ATOM     37  C   UNL     1       2.627  -7.575  24.470  0.00  0.00    +0.041 C 
BRANCH  37  39
ATOM     38  C   UNL     1       1.913  -5.346  23.360  0.00  0.00    +0.004 C 
ATOM     39  C   UNL     1       1.654  -6.376  24.450  0.00  0.00    -0.000 C 
ENDBRANCH  37  39
ENDBRANCH  36  37
ENDBRANCH  35  36
ENDBRANCH  33  35
ENDBRANCH  27  33
BRANCH  30  40
ATOM     40  O   UNL     1       3.711  -1.417  27.211  0.00  0.00    -0.383 OA
ATOM     41  H   UNL     1       3.775  -0.583  27.706  0.00  0.00    +0.210 HD
ENDBRANCH  30  40
BRANCH  31  42
ATOM     42  O   UNL     1       3.917  -3.380  29.314  0.00  0.00    -0.386 OA
ATOM     43  H   UNL     1       4.192  -4.165  29.837  0.00  0.00    +0.210 HD
ENDBRANCH  31  42
BRANCH  32  44
ATOM     44  O   UNL     1       3.191  -5.445  27.812  0.00  0.00    -0.386 OA
ATOM     45  H   UNL     1       2.477  -5.848  27.275  0.00  0.00    +0.210 HD
ENDBRANCH  32  44
ENDBRANCH  26  29
ENDBRANCH   1  26
TORSDOF 15
ENDMDL
MODEL 5
REMARK VINA RESULT:      -7.0      3.626      8.219
REMARK  Name = 
REMARK  16 active torsions:
REMARK  status: ('A' for Active; 'I' for Inactive)
REMARK    1  A    between atoms: C_1  and  C_2
REMARK    2  A    between atoms: C_2  and  C_3
REMARK    3  A    between atoms: C_3  and  C_4
REMARK    4  A    between atoms: C_4  and  O_5
REMARK    5  A    between atoms: O_5  and  C_6
REMARK    6  A    between atoms: C_6  and  C_8
REMARK    7  A    between atoms: C_9  and  O_41
REMARK    8  A    between atoms: C_11  and  O_40
REMARK    9  A    between atoms: C_13  and  O_39
REMARK   10  A    between atoms: C_14  and  O_17
REMARK   11  A    between atoms: O_17  and  C_18
REMARK   12  A    between atoms: C_19  and  C_31
REMARK   13  A    between atoms: C_23  and  O_30
REMARK   14  A    between atoms: C_25  and  O_29
REMARK   15  A    between atoms: C_33  and  O_38
REMARK   16  A    between atoms: C_34  and  O_37
REMARK                            x       y       z     vdW  Elec       q    Type
REMARK                         _______ _______ _______ _____ _____    ______ ____
ROOT
ATOM      1  C   UNL     1       6.492  -1.607  26.135  0.00  0.00    +0.214 A 
ATOM      2  C   UNL     1       5.943  -0.656  27.158  0.00  0.00    +0.238 A 
ATOM      3  O   UNL     1       6.645   0.222  27.652  0.00  0.00    -0.283 OA
ATOM      4  C   UNL     1       4.540  -0.826  27.582  0.00  0.00    +0.109 A 
ATOM      5  C   UNL     1       3.731  -1.661  26.825  0.00  0.00    +0.147 A 
ATOM      6  C   UNL     1       2.394  -1.890  27.162  0.00  0.00    +0.092 A 
ATOM      7  C   UNL     1       1.853  -1.245  28.266  0.00  0.00    +0.124 A 
ATOM      8  C   UNL     1       2.632  -0.382  29.027  0.00  0.00    +0.091 A 
ATOM      9  O   UNL     1       4.194  -2.285  25.712  0.00  0.00    -0.451 OA
ATOM     10  C   UNL     1       3.975  -0.182  28.692  0.00  0.00    +0.135 A 
ATOM     11  C   UNL     1       5.560  -2.341  25.461  0.00  0.00    +0.181 A 
ENDROOT
BRANCH  11  12
ATOM     12  C   UNL     1       5.804  -3.390  24.417  0.00  0.00    +0.025 A 
ATOM     13  C   UNL     1       5.809  -4.742  24.761  0.00  0.00    +0.015 A 
ATOM     14  C   UNL     1       5.786  -5.734  23.778  0.00  0.00    +0.050 A 
ATOM     15  C   UNL     1       5.694  -5.382  22.435  0.00  0.00    +0.158 A 
ATOM     16  C   UNL     1       5.725  -4.044  22.061  0.00  0.00    +0.159 A 
ATOM     17  C   UNL     1       5.803  -3.047  23.044  0.00  0.00    +0.060 A 
BRANCH  15  18
ATOM     18  O   UNL     1       5.527  -6.354  21.491  0.00  0.00    -0.503 OA
ATOM     19  H   UNL     1       4.603  -6.647  21.529  0.00  0.00    +0.292 HD
ENDBRANCH  15  18
BRANCH  16  20
ATOM     20  O   UNL     1       5.618  -3.729  20.731  0.00  0.00    -0.503 OA
ATOM     21  H   UNL     1       6.204  -2.987  20.523  0.00  0.00    +0.292 HD
ENDBRANCH  16  20
ENDBRANCH  11  12
BRANCH   7  22
ATOM     22  O   UNL     1       0.557  -1.425  28.645  0.00  0.00    -0.507 OA
ATOM     23  H   UNL     1       0.243  -2.291  28.334  0.00  0.00    +0.292 HD
ENDBRANCH   7  22
BRANCH  10  24
ATOM     24  O   UNL     1       4.730   0.634  29.484  0.00  0.00    -0.506 OA
ATOM     25  H   UNL     1       4.365   1.533  29.480  0.00  0.00    +0.292 HD
ENDBRANCH  10  24
BRANCH   1  26
ATOM     26  O   UNL     1       7.866  -1.693  25.886  0.00  0.00    -0.453 OA
BRANCH  26  29
ATOM     27  C   UNL     1       7.982   0.196  22.691  0.00  0.00    +0.261 C 
ATOM     28  O   UNL     1       7.586  -0.278  23.976  0.00  0.00    -0.322 OA
ATOM     29  C   UNL     1       8.545  -0.853  24.889  0.00  0.00    +0.340 C 
ATOM     30  C   UNL     1       9.591  -1.771  24.171  0.00  0.00    +0.214 C 
ATOM     31  C   UNL     1      10.080  -1.083  22.890  0.00  0.00    +0.180 C 
ATOM     32  C   UNL     1       8.878  -0.841  21.977  0.00  0.00    +0.185 C 
BRANCH  27  33
ATOM     33  C   UNL     1       8.487   1.617  22.229  0.00  0.00    +0.339 C 
ATOM     34  O   UNL     1       7.764   2.316  21.502  0.00  0.00    -0.248 OA
BRANCH  33  35
ATOM     35  O   UNL     1       9.773   1.926  22.516  0.00  0.00    -0.463 OA
BRANCH  35  36
ATOM     36  C   UNL     1      10.029   2.581  23.800  0.00  0.00    +0.232 C 
BRANCH  36  37
ATOM     37  C   UNL     1       9.537   4.033  23.966  0.00  0.00    +0.041 C 
BRANCH  37  39
ATOM     38  C   UNL     1      11.991   4.580  23.344  0.00  0.00    +0.004 C 
ATOM     39  C   UNL     1      10.621   5.110  23.740  0.00  0.00    -0.000 C 
ENDBRANCH  37  39
ENDBRANCH  36  37
ENDBRANCH  35  36
ENDBRANCH  33  35
ENDBRANCH  27  33
BRANCH  30  40
ATOM     40  O   UNL     1       9.056  -3.073  23.850  0.00  0.00    -0.383 OA
ATOM     41  H   UNL     1       8.086  -3.015  23.837  0.00  0.00    +0.210 HD
ENDBRANCH  30  40
BRANCH  31  42
ATOM     42  O   UNL     1      11.071  -1.844  22.193  0.00  0.00    -0.386 OA
ATOM     43  H   UNL     1      10.620  -2.684  21.956  0.00  0.00    +0.210 HD
ENDBRANCH  31  42
BRANCH  32  44
ATOM     44  O   UNL     1       9.365  -0.492  20.673  0.00  0.00    -0.386 OA
ATOM     45  H   UNL     1       9.880   0.339  20.732  0.00  0.00    +0.210 HD
ENDBRANCH  32  44
ENDBRANCH  26  29
ENDBRANCH   1  26
TORSDOF 15
ENDMDL
MODEL 6
REMARK VINA RESULT:      -7.0      3.840      7.676
REMARK  Name = 
REMARK  16 active torsions:
REMARK  status: ('A' for Active; 'I' for Inactive)
REMARK    1  A    between atoms: C_1  and  C_2
REMARK    2  A    between atoms: C_2  and  C_3
REMARK    3  A    between atoms: C_3  and  C_4
REMARK    4  A    between atoms: C_4  and  O_5
REMARK    5  A    between atoms: O_5  and  C_6
REMARK    6  A    between atoms: C_6  and  C_8
REMARK    7  A    between atoms: C_9  and  O_41
REMARK    8  A    between atoms: C_11  and  O_40
REMARK    9  A    between atoms: C_13  and  O_39
REMARK   10  A    between atoms: C_14  and  O_17
REMARK   11  A    between atoms: O_17  and  C_18
REMARK   12  A    between atoms: C_19  and  C_31
REMARK   13  A    between atoms: C_23  and  O_30
REMARK   14  A    between atoms: C_25  and  O_29
REMARK   15  A    between atoms: C_33  and  O_38
REMARK   16  A    between atoms: C_34  and  O_37
REMARK                            x       y       z     vdW  Elec       q    Type
REMARK                         _______ _______ _______ _____ _____    ______ ____
ROOT
ATOM      1  C   UNL     1       6.523   0.033  24.800  0.00  0.00    +0.214 A 
ATOM      2  C   UNL     1       6.619   1.530  24.742  0.00  0.00    +0.238 A 
ATOM      3  O   UNL     1       5.641   2.239  24.962  0.00  0.00    -0.283 OA
ATOM      4  C   UNL     1       7.917   2.129  24.378  0.00  0.00    +0.109 A 
ATOM      5  C   UNL     1       9.034   1.307  24.382  0.00  0.00    +0.147 A 
ATOM      6  C   UNL     1      10.301   1.788  24.037  0.00  0.00    +0.092 A 
ATOM      7  C   UNL     1      10.450   3.129  23.710  0.00  0.00    +0.124 A 
ATOM      8  C   UNL     1       9.353   3.982  23.723  0.00  0.00    +0.091 A 
ATOM      9  O   UNL     1       8.955  -0.001  24.734  0.00  0.00    -0.451 OA
ATOM     10  C   UNL     1       8.088   3.481  24.046  0.00  0.00    +0.135 A 
ATOM     11  C   UNL     1       7.716  -0.627  24.819  0.00  0.00    +0.181 A 
ENDROOT
BRANCH  11  12
ATOM     12  C   UNL     1       7.940  -2.110  24.837  0.00  0.00    +0.025 A 
ATOM     13  C   UNL     1       7.910  -2.844  23.651  0.00  0.00    +0.015 A 
ATOM     14  C   UNL     1       8.356  -4.168  23.614  0.00  0.00    +0.050 A 
ATOM     15  C   UNL     1       8.897  -4.753  24.754  0.00  0.00    +0.158 A 
ATOM     16  C   UNL     1       8.904  -4.060  25.959  0.00  0.00    +0.159 A 
ATOM     17  C   UNL     1       8.407  -2.749  26.011  0.00  0.00    +0.060 A 
BRANCH  15  18
ATOM     18  O   UNL     1       9.461  -5.994  24.675  0.00  0.00    -0.503 OA
ATOM     19  H   UNL     1       9.426  -6.391  25.560  0.00  0.00    +0.292 HD
ENDBRANCH  15  18
BRANCH  16  20
ATOM     20  O   UNL     1       9.456  -4.658  27.061  0.00  0.00    -0.503 OA
ATOM     21  H   UNL     1      10.185  -5.235  26.789  0.00  0.00    +0.292 HD
ENDBRANCH  16  20
ENDBRANCH  11  12
BRANCH   7  22
ATOM     22  O   UNL     1      11.658   3.659  23.367  0.00  0.00    -0.507 OA
ATOM     23  H   UNL     1      12.011   4.175  24.111  0.00  0.00    +0.292 HD
ENDBRANCH   7  22
BRANCH  10  24
ATOM     24  O   UNL     1       7.021   4.330  24.006  0.00  0.00    -0.506 OA
ATOM     25  H   UNL     1       6.962   4.750  23.133  0.00  0.00    +0.292 HD
ENDBRANCH  10  24
BRANCH   1  26
ATOM     26  O   UNL     1       5.284  -0.614  24.862  0.00  0.00    -0.453 OA
BRANCH  26  29
ATOM     27  C   UNL     1       3.004  -2.965  26.612  0.00  0.00    +0.261 C 
ATOM     28  O   UNL     1       3.899  -2.395  25.659  0.00  0.00    -0.322 OA
ATOM     29  C   UNL     1       4.846  -1.375  26.041  0.00  0.00    +0.340 C 
ATOM     30  C   UNL     1       4.245  -0.334  27.045  0.00  0.00    +0.214 C 
ATOM     31  C   UNL     1       3.447  -1.071  28.127  0.00  0.00    +0.180 C 
ATOM     32  C   UNL     1       2.325  -1.861  27.453  0.00  0.00    +0.185 C 
BRANCH  27  33
ATOM     33  C   UNL     1       3.170  -4.213  27.562  0.00  0.00    +0.339 C 
ATOM     34  O   UNL     1       2.233  -5.018  27.684  0.00  0.00    -0.248 OA
BRANCH  33  35
ATOM     35  O   UNL     1       4.280  -4.243  28.336  0.00  0.00    -0.463 OA
BRANCH  35  36
ATOM     36  C   UNL     1       5.550  -4.528  27.666  0.00  0.00    +0.232 C 
BRANCH  36  37
ATOM     37  C   UNL     1       5.711  -5.915  27.011  0.00  0.00    +0.041 C 
BRANCH  37  39
ATOM     38  C   UNL     1       4.394  -6.770  24.951  0.00  0.00    +0.004 C 
ATOM     39  C   UNL     1       5.544  -5.924  25.476  0.00  0.00    -0.000 C 
ENDBRANCH  37  39
ENDBRANCH  36  37
ENDBRANCH  35  36
ENDBRANCH  33  35
ENDBRANCH  27  33
BRANCH  30  40
ATOM     40  O   UNL     1       3.400   0.638  26.394  0.00  0.00    -0.383 OA
ATOM     41  H   UNL     1       3.926   1.110  25.726  0.00  0.00    +0.210 HD
ENDBRANCH  30  40
BRANCH  31  42
ATOM     42  O   UNL     1       2.895  -0.190  29.110  0.00  0.00    -0.386 OA
ATOM     43  H   UNL     1       2.001   0.033  28.771  0.00  0.00    +0.210 HD
ENDBRANCH  31  42
BRANCH  32  44
ATOM     44  O   UNL     1       1.403  -2.289  28.466  0.00  0.00    -0.386 OA
ATOM     45  H   UNL     1       1.900  -2.519  29.279  0.00  0.00    +0.210 HD
ENDBRANCH  32  44
ENDBRANCH  26  29
ENDBRANCH   1  26
TORSDOF 15
ENDMDL
MODEL 7
REMARK VINA RESULT:      -7.0      3.380      7.383
REMARK  Name = 
REMARK  16 active torsions:
REMARK  status: ('A' for Active; 'I' for Inactive)
REMARK    1  A    between atoms: C_1  and  C_2
REMARK    2  A    between atoms: C_2  and  C_3
REMARK    3  A    between atoms: C_3  and  C_4
REMARK    4  A    between atoms: C_4  and  O_5
REMARK    5  A    between atoms: O_5  and  C_6
REMARK    6  A    between atoms: C_6  and  C_8
REMARK    7  A    between atoms: C_9  and  O_41
REMARK    8  A    between atoms: C_11  and  O_40
REMARK    9  A    between atoms: C_13  and  O_39
REMARK   10  A    between atoms: C_14  and  O_17
REMARK   11  A    between atoms: O_17  and  C_18
REMARK   12  A    between atoms: C_19  and  C_31
REMARK   13  A    between atoms: C_23  and  O_30
REMARK   14  A    between atoms: C_25  and  O_29
REMARK   15  A    between atoms: C_33  and  O_38
REMARK   16  A    between atoms: C_34  and  O_37
REMARK                            x       y       z     vdW  Elec       q    Type
REMARK                         _______ _______ _______ _____ _____    ______ ____
ROOT
ATOM      1  C   UNL     1       5.768  -1.257  24.841  0.00  0.00    +0.214 A 
ATOM      2  C   UNL     1       5.697  -2.583  24.140  0.00  0.00    +0.238 A 
ATOM      3  O   UNL     1       5.708  -2.655  22.914  0.00  0.00    -0.283 OA
ATOM      4  C   UNL     1       5.580  -3.800  24.966  0.00  0.00    +0.109 A 
ATOM      5  C   UNL     1       5.818  -3.684  26.327  0.00  0.00    +0.147 A 
ATOM      6  C   UNL     1       5.715  -4.783  27.186  0.00  0.00    +0.092 A 
ATOM      7  C   UNL     1       5.394  -6.027  26.659  0.00  0.00    +0.124 A 
ATOM      8  C   UNL     1       5.176  -6.177  25.295  0.00  0.00    +0.091 A 
ATOM      9  O   UNL     1       6.176  -2.503  26.891  0.00  0.00    -0.451 OA
ATOM     10  C   UNL     1       5.258  -5.064  24.452  0.00  0.00    +0.135 A 
ATOM     11  C   UNL     1       6.033  -1.318  26.178  0.00  0.00    +0.181 A 
ENDROOT
BRANCH  11  12
ATOM     12  C   UNL     1       6.125  -0.174  27.144  0.00  0.00    +0.025 A 
ATOM     13  C   UNL     1       4.974   0.492  27.564  0.00  0.00    +0.015 A 
ATOM     14  C   UNL     1       5.011   1.385  28.638  0.00  0.00    +0.050 A 
ATOM     15  C   UNL     1       6.193   1.573  29.347  0.00  0.00    +0.158 A 
ATOM     16  C   UNL     1       7.365   0.952  28.928  0.00  0.00    +0.159 A 
ATOM     17  C   UNL     1       7.341   0.098  27.816  0.00  0.00    +0.060 A 
BRANCH  15  18
ATOM     18  O   UNL     1       6.189   2.334  30.481  0.00  0.00    -0.503 OA
ATOM     19  H   UNL     1       5.520   1.966  31.080  0.00  0.00    +0.292 HD
ENDBRANCH  15  18
BRANCH  16  20
ATOM     20  O   UNL     1       8.510   1.146  29.655  0.00  0.00    -0.503 OA
ATOM     21  H   UNL     1       8.283   1.387  30.565  0.00  0.00    +0.292 HD
ENDBRANCH  16  20
ENDBRANCH  11  12
BRANCH   7  22
ATOM     22  O   UNL     1       5.280  -7.135  27.443  0.00  0.00    -0.507 OA
ATOM     23  H   UNL     1       4.342  -7.307  27.631  0.00  0.00    +0.292 HD
ENDBRANCH   7  22
BRANCH  10  24
ATOM     24  O   UNL     1       4.993  -5.232  23.124  0.00  0.00    -0.506 OA
ATOM     25  H   UNL     1       4.489  -4.474  22.787  0.00  0.00    +0.292 HD
ENDBRANCH  10  24
BRANCH   1  26
ATOM     26  O   UNL     1       5.602  -0.056  24.143  0.00  0.00    -0.453 OA
BRANCH  26  29
ATOM     27  C   UNL     1       8.716   1.961  23.977  0.00  0.00    +0.261 C 
ATOM     28  O   UNL     1       7.764   0.956  24.320  0.00  0.00    -0.322 OA
ATOM     29  C   UNL     1       6.701   0.594  23.414  0.00  0.00    +0.340 C 
ATOM     30  C   UNL     1       6.078   1.832  22.683  0.00  0.00    +0.214 C 
ATOM     31  C   UNL     1       7.202   2.759  22.203  0.00  0.00    +0.180 C 
ATOM     32  C   UNL     1       8.009   3.216  23.417  0.00  0.00    +0.185 C 
BRANCH  27  33
ATOM     33  C   UNL     1      10.100   1.855  23.227  0.00  0.00    +0.339 C 
ATOM     34  O   UNL     1      10.991   2.684  23.468  0.00  0.00    -0.248 OA
BRANCH  33  35
ATOM     35  O   UNL     1      10.177   0.953  22.221  0.00  0.00    -0.463 OA
BRANCH  35  36
ATOM     36  C   UNL     1      10.519  -0.423  22.585  0.00  0.00    +0.232 C 
BRANCH  36  37
ATOM     37  C   UNL     1       9.550  -1.536  22.139  0.00  0.00    +0.041 C 
BRANCH  37  39
ATOM     38  C   UNL     1       9.338  -2.009  24.677  0.00  0.00    +0.004 C 
ATOM     39  C   UNL     1       9.142  -2.520  23.257  0.00  0.00    -0.000 C 
ENDBRANCH  37  39
ENDBRANCH  36  37
ENDBRANCH  35  36
ENDBRANCH  33  35
ENDBRANCH  27  33
BRANCH  30  40
ATOM     40  O   UNL     1       5.165   2.569  23.523  0.00  0.00    -0.383 OA
ATOM     41  H   UNL     1       4.365   2.772  23.009  0.00  0.00    +0.210 HD
ENDBRANCH  30  40
BRANCH  31  42
ATOM     42  O   UNL     1       6.715   3.899  21.488  0.00  0.00    -0.386 OA
ATOM     43  H   UNL     1       5.771   3.698  21.311  0.00  0.00    +0.210 HD
ENDBRANCH  31  42
BRANCH  32  44
ATOM     44  O   UNL     1       8.847   4.310  23.016  0.00  0.00    -0.386 OA
ATOM     45  H   UNL     1       9.626   3.962  22.533  0.00  0.00    +0.210 HD
ENDBRANCH  32  44
ENDBRANCH  26  29
ENDBRANCH   1  26
TORSDOF 15
ENDMDL
MODEL 8
REMARK VINA RESULT:      -6.9      3.541      6.405
REMARK  Name = 
REMARK  16 active torsions:
REMARK  status: ('A' for Active; 'I' for Inactive)
REMARK    1  A    between atoms: C_1  and  C_2
REMARK    2  A    between atoms: C_2  and  C_3
REMARK    3  A    between atoms: C_3  and  C_4
REMARK    4  A    between atoms: C_4  and  O_5
REMARK    5  A    between atoms: O_5  and  C_6
REMARK    6  A    between atoms: C_6  and  C_8
REMARK    7  A    between atoms: C_9  and  O_41
REMARK    8  A    between atoms: C_11  and  O_40
REMARK    9  A    between atoms: C_13  and  O_39
REMARK   10  A    between atoms: C_14  and  O_17
REMARK   11  A    between atoms: O_17  and  C_18
REMARK   12  A    between atoms: C_19  and  C_31
REMARK   13  A    between atoms: C_23  and  O_30
REMARK   14  A    between atoms: C_25  and  O_29
REMARK   15  A    between atoms: C_33  and  O_38
REMARK   16  A    between atoms: C_34  and  O_37
REMARK                            x       y       z     vdW  Elec       q    Type
REMARK                         _______ _______ _______ _____ _____    ______ ____
ROOT
ATOM      1  C   UNL     1       6.401  -0.332  24.438  0.00  0.00    +0.214 A 
ATOM      2  C   UNL     1       7.173  -0.143  23.164  0.00  0.00    +0.238 A 
ATOM      3  O   UNL     1       6.937  -0.825  22.171  0.00  0.00    -0.283 OA
ATOM      4  C   UNL     1       8.249   0.867  23.148  0.00  0.00    +0.109 A 
ATOM      5  C   UNL     1       8.308   1.768  24.201  0.00  0.00    +0.147 A 
ATOM      6  C   UNL     1       9.303   2.748  24.272  0.00  0.00    +0.092 A 
ATOM      7  C   UNL     1      10.238   2.840  23.251  0.00  0.00    +0.124 A 
ATOM      8  C   UNL     1      10.187   1.968  22.171  0.00  0.00    +0.091 A 
ATOM      9  O   UNL     1       7.396   1.752  25.205  0.00  0.00    -0.451 OA
ATOM     10  C   UNL     1       9.201   0.977  22.125  0.00  0.00    +0.135 A 
ATOM     11  C   UNL     1       6.553   0.658  25.365  0.00  0.00    +0.181 A 
ENDROOT
BRANCH  11  12
ATOM     12  C   UNL     1       5.945   0.728  26.734  0.00  0.00    +0.025 A 
ATOM     13  C   UNL     1       6.758   0.790  27.866  0.00  0.00    +0.015 A 
ATOM     14  C   UNL     1       6.224   1.102  29.118  0.00  0.00    +0.050 A 
ATOM     15  C   UNL     1       4.875   1.420  29.241  0.00  0.00    +0.158 A 
ATOM     16  C   UNL     1       4.034   1.329  28.138  0.00  0.00    +0.159 A 
ATOM     17  C   UNL     1       4.558   0.963  26.890  0.00  0.00    +0.060 A 
BRANCH  15  18
ATOM     18  O   UNL     1       4.390   1.863  30.438  0.00  0.00    -0.503 OA
ATOM     19  H   UNL     1       4.933   2.618  30.715  0.00  0.00    +0.292 HD
ENDBRANCH  15  18
BRANCH  16  20
ATOM     20  O   UNL     1       2.712   1.662  28.288  0.00  0.00    -0.503 OA
ATOM     21  H   UNL     1       2.550   1.956  29.196  0.00  0.00    +0.292 HD
ENDBRANCH  16  20
ENDBRANCH  11  12
BRANCH   7  22
ATOM     22  O   UNL     1      11.230   3.774  23.262  0.00  0.00    -0.507 OA
ATOM     23  H   UNL     1      11.741   3.716  22.437  0.00  0.00    +0.292 HD
ENDBRANCH   7  22
BRANCH  10  24
ATOM     24  O   UNL     1       9.203   0.104  21.076  0.00  0.00    -0.506 OA
ATOM     25  H   UNL     1       8.717  -0.702  21.312  0.00  0.00    +0.292 HD
ENDBRANCH  10  24
BRANCH   1  26
ATOM     26  O   UNL     1       5.567  -1.439  24.625  0.00  0.00    -0.453 OA
BRANCH  26  29
ATOM     27  C   UNL     1       8.231  -4.015  24.380  0.00  0.00    +0.261 C 
ATOM     28  O   UNL     1       7.526  -2.813  24.683  0.00  0.00    -0.322 OA
ATOM     29  C   UNL     1       6.088  -2.802  24.808  0.00  0.00    +0.340 C 
ATOM     30  C   UNL     1       5.378  -3.698  23.738  0.00  0.00    +0.214 C 
ATOM     31  C   UNL     1       6.119  -5.036  23.621  0.00  0.00    +0.180 C 
ATOM     32  C   UNL     1       7.562  -4.759  23.202  0.00  0.00    +0.185 C 
BRANCH  27  33
ATOM     33  C   UNL     1       8.829  -5.125  25.328  0.00  0.00    +0.339 C 
ATOM     34  O   UNL     1      10.042  -5.382  25.279  0.00  0.00    -0.248 OA
BRANCH  33  35
ATOM     35  O   UNL     1       7.940  -5.865  26.031  0.00  0.00    -0.463 OA
BRANCH  35  36
ATOM     36  C   UNL     1       7.412  -5.278  27.263  0.00  0.00    +0.232 C 
BRANCH  36  37
ATOM     37  C   UNL     1       5.887  -5.347  27.485  0.00  0.00    +0.041 C 
BRANCH  37  39
ATOM     38  C   UNL     1       3.848  -6.342  26.235  0.00  0.00    +0.004 C 
ATOM     39  C   UNL     1       5.205  -6.592  26.877  0.00  0.00    -0.000 C 
ENDBRANCH  37  39
ENDBRANCH  36  37
ENDBRANCH  35  36
ENDBRANCH  33  35
ENDBRANCH  27  33
BRANCH  30  40
ATOM     40  O   UNL     1       5.310  -3.064  22.443  0.00  0.00    -0.383 OA
ATOM     41  H   UNL     1       5.722  -2.186  22.505  0.00  0.00    +0.210 HD
ENDBRANCH  30  40
BRANCH  31  42
ATOM     42  O   UNL     1       5.507  -5.932  22.688  0.00  0.00    -0.386 OA
ATOM     43  H   UNL     1       4.665  -6.201  23.116  0.00  0.00    +0.210 HD
ENDBRANCH  31  42
BRANCH  32  44
ATOM     44  O   UNL     1       8.159  -5.999  22.793  0.00  0.00    -0.386 OA
ATOM     45  H   UNL     1       7.552  -6.463  22.179  0.00  0.00    +0.210 HD
ENDBRANCH  32  44
ENDBRANCH  26  29
ENDBRANCH   1  26
TORSDOF 15
ENDMDL
MODEL 9
REMARK VINA RESULT:      -6.9      3.928      8.254
REMARK  Name = 
REMARK  16 active torsions:
REMARK  status: ('A' for Active; 'I' for Inactive)
REMARK    1  A    between atoms: C_1  and  C_2
REMARK    2  A    between atoms: C_2  and  C_3
REMARK    3  A    between atoms: C_3  and  C_4
REMARK    4  A    between atoms: C_4  and  O_5
REMARK    5  A    between atoms: O_5  and  C_6
REMARK    6  A    between atoms: C_6  and  C_8
REMARK    7  A    between atoms: C_9  and  O_41
REMARK    8  A    between atoms: C_11  and  O_40
REMARK    9  A    between atoms: C_13  and  O_39
REMARK   10  A    between atoms: C_14  and  O_17
REMARK   11  A    between atoms: O_17  and  C_18
REMARK   12  A    between atoms: C_19  and  C_31
REMARK   13  A    between atoms: C_23  and  O_30
REMARK   14  A    between atoms: C_25  and  O_29
REMARK   15  A    between atoms: C_33  and  O_38
REMARK   16  A    between atoms: C_34  and  O_37
REMARK                            x       y       z     vdW  Elec       q    Type
REMARK                         _______ _______ _______ _____ _____    ______ ____
ROOT
ATOM      1  C   UNL     1       7.685  -1.779  25.709  0.00  0.00    +0.214 A 
ATOM      2  C   UNL     1       7.850  -0.385  26.242  0.00  0.00    +0.238 A 
ATOM      3  O   UNL     1       7.918  -0.170  27.449  0.00  0.00    -0.283 OA
ATOM      4  C   UNL     1       7.895   0.727  25.274  0.00  0.00    +0.109 A 
ATOM      5  C   UNL     1       8.060   0.414  23.934  0.00  0.00    +0.147 A 
ATOM      6  C   UNL     1       8.100   1.405  22.948  0.00  0.00    +0.092 A 
ATOM      7  C   UNL     1       7.998   2.738  23.322  0.00  0.00    +0.124 A 
ATOM      8  C   UNL     1       7.858   3.082  24.661  0.00  0.00    +0.091 A 
ATOM      9  O   UNL     1       8.207  -0.868  23.514  0.00  0.00    -0.451 OA
ATOM     10  C   UNL     1       7.796   2.080  25.633  0.00  0.00    +0.135 A 
ATOM     11  C   UNL     1       7.905  -1.921  24.370  0.00  0.00    +0.181 A 
ENDROOT
BRANCH  11  12
ATOM     12  C   UNL     1       7.780  -3.172  23.552  0.00  0.00    +0.025 A 
ATOM     13  C   UNL     1       8.317  -4.375  24.011  0.00  0.00    +0.015 A 
ATOM     14  C   UNL     1       8.000  -5.586  23.392  0.00  0.00    +0.050 A 
ATOM     15  C   UNL     1       7.089  -5.614  22.341  0.00  0.00    +0.158 A 
ATOM     16  C   UNL     1       6.567  -4.428  21.837  0.00  0.00    +0.159 A 
ATOM     17  C   UNL     1       6.926  -3.206  22.423  0.00  0.00    +0.060 A 
BRANCH  15  18
ATOM     18  O   UNL     1       6.675  -6.813  21.835  0.00  0.00    -0.503 OA
ATOM     19  H   UNL     1       5.740  -6.926  22.071  0.00  0.00    +0.292 HD
ENDBRANCH  15  18
BRANCH  16  20
ATOM     20  O   UNL     1       5.661  -4.489  20.811  0.00  0.00    -0.503 OA
ATOM     21  H   UNL     1       5.881  -3.826  20.140  0.00  0.00    +0.292 HD
ENDBRANCH  16  20
ENDBRANCH  11  12
BRANCH   7  22
ATOM     22  O   UNL     1       8.032   3.749  22.410  0.00  0.00    -0.507 OA
ATOM     23  H   UNL     1       8.954   3.944  22.172  0.00  0.00    +0.292 HD
ENDBRANCH   7  22
BRANCH  10  24
ATOM     24  O   UNL     1       7.611   2.444  26.935  0.00  0.00    -0.506 OA
ATOM     25  H   UNL     1       8.395   2.909  27.266  0.00  0.00    +0.292 HD
ENDBRANCH  10  24
BRANCH   1  26
ATOM     26  O   UNL     1       7.358  -2.846  26.553  0.00  0.00    -0.453 OA
BRANCH  26  29
ATOM     27  C   UNL     1       4.041  -3.583  28.052  0.00  0.00    +0.261 C 
ATOM     28  O   UNL     1       5.182  -2.891  27.548  0.00  0.00    -0.322 OA
ATOM     29  C   UNL     1       6.034  -3.484  26.546  0.00  0.00    +0.340 C 
ATOM     30  C   UNL     1       6.276  -5.014  26.782  0.00  0.00    +0.214 C 
ATOM     31  C   UNL     1       4.948  -5.690  27.146  0.00  0.00    +0.180 C 
ATOM     32  C   UNL     1       4.403  -5.041  28.418  0.00  0.00    +0.185 C 
BRANCH  27  33
ATOM     33  C   UNL     1       2.547  -3.607  27.548  0.00  0.00    +0.339 C 
ATOM     34  O   UNL     1       1.632  -3.826  28.357  0.00  0.00    -0.248 OA
BRANCH  33  35
ATOM     35  O   UNL     1       2.357  -3.556  26.209  0.00  0.00    -0.463 OA
BRANCH  35  36
ATOM     36  C   UNL     1       1.583  -4.642  25.604  0.00  0.00    +0.232 C 
BRANCH  36  37
ATOM     37  C   UNL     1       1.740  -4.865  24.087  0.00  0.00    +0.041 C 
BRANCH  37  39
ATOM     38  C   UNL     1       3.802  -6.403  23.781  0.00  0.00    +0.004 C 
ATOM     39  C   UNL     1       3.199  -5.016  23.606  0.00  0.00    -0.000 C 
ENDBRANCH  37  39
ENDBRANCH  36  37
ENDBRANCH  35  36
ENDBRANCH  33  35
ENDBRANCH  27  33
BRANCH  30  40
ATOM     40  O   UNL     1       7.250  -5.267  27.816  0.00  0.00    -0.383 OA
ATOM     41  H   UNL     1       7.756  -4.451  27.972  0.00  0.00    +0.210 HD
ENDBRANCH  30  40
BRANCH  31  42
ATOM     42  O   UNL     1       5.076  -7.102  27.340  0.00  0.00    -0.386 OA
ATOM     43  H   UNL     1       5.469  -7.195  28.236  0.00  0.00    +0.210 HD
ENDBRANCH  31  42
BRANCH  32  44
ATOM     44  O   UNL     1       3.344  -5.865  28.928  0.00  0.00    -0.386 OA
ATOM     45  H   UNL     1       3.659  -6.791  28.993  0.00  0.00    +0.210 HD
ENDBRANCH  32  44
ENDBRANCH  26  29
ENDBRANCH   1  26
TORSDOF 15
ENDMDL
