MODEL 1
REMARK VINA RESULT:      -7.2      0.000      0.000
REMARK  Name = 
REMARK  14 active torsions:
REMARK  status: ('A' for Active; 'I' for Inactive)
REMARK    1  A    between atoms: C_1  and  C_2
REMARK    2  A    between atoms: C_2  and  C_33
REMARK    3  A    between atoms: C_3  and  C_4
REMARK    4  A    between atoms: C_4  and  C_5
REMARK    5  A    between atoms: C_5  and  C_6
REMARK    6  A    between atoms: C_6  and  C_32
REMARK    7  A    between atoms: C_7  and  C_8
REMARK    8  A    between atoms: C_8  and  C_10
REMARK    9  A    between atoms: C_11  and  O_31
REMARK   10  A    between atoms: C_13  and  O_30
REMARK   11  A    between atoms: C_17  and  C_22
REMARK   12  A    between atoms: C_18  and  O_21
REMARK   13  A    between atoms: C_24  and  O_29
REMARK   14  A    between atoms: C_25  and  O_28
REMARK                            x       y       z     vdW  Elec       q    Type
REMARK                         _______ _______ _______ _____ _____    ______ ____
ROOT
ATOM      1  C   UNL     1       5.841  -2.366  26.758  0.00  0.00    +0.106 A 
ATOM      2  C   UNL     1       7.046  -2.588  26.041  0.00  0.00    +0.157 A 
ATOM      3  O   UNL     1       7.602  -1.518  25.372  0.00  0.00    -0.450 OA
ATOM      4  C   UNL     1       8.749  -1.700  24.627  0.00  0.00    +0.181 A 
ATOM      5  C   UNL     1       9.403  -2.861  24.498  0.00  0.00    +0.208 A 
ATOM      6  C   UNL     1       8.872  -4.065  25.205  0.00  0.00    +0.238 A 
ATOM      7  O   UNL     1       9.381  -5.152  24.981  0.00  0.00    -0.283 OA
ATOM      8  C   UNL     1       7.680  -3.834  26.070  0.00  0.00    +0.110 A 
ATOM      9  C   UNL     1       7.141  -4.855  26.873  0.00  0.00    +0.135 A 
ATOM     10  C   UNL     1       5.967  -4.649  27.599  0.00  0.00    +0.092 A 
ATOM     11  C   UNL     1       5.333  -3.415  27.540  0.00  0.00    +0.135 A 
ENDROOT
BRANCH   4  12
ATOM     12  C   UNL     1       9.197  -0.509  23.892  0.00  0.00    +0.025 A 
ATOM     13  C   UNL     1      10.200   0.314  24.434  0.00  0.00    +0.015 A 
ATOM     14  C   UNL     1      10.688   1.406  23.711  0.00  0.00    +0.050 A 
ATOM     15  C   UNL     1      10.165   1.670  22.455  0.00  0.00    +0.158 A 
ATOM     16  C   UNL     1       9.121   0.904  21.941  0.00  0.00    +0.159 A 
ATOM     17  C   UNL     1       8.619  -0.178  22.658  0.00  0.00    +0.060 A 
BRANCH  15  18
ATOM     18  O   UNL     1      10.699   2.682  21.712  0.00  0.00    -0.503 OA
ATOM     19  H   UNL     1      11.464   2.993  22.236  0.00  0.00    +0.292 HD
ENDBRANCH  15  18
BRANCH  16  20
ATOM     20  O   UNL     1       8.635   1.244  20.708  0.00  0.00    -0.503 OA
ATOM     21  H   UNL     1       7.666   1.304  20.768  0.00  0.00    +0.292 HD
ENDBRANCH  16  20
ENDBRANCH   4  12
BRANCH   1  22
ATOM     22  C   UNL     1       5.065  -1.084  26.776  0.00  0.00    +0.193 C 
ATOM     23  O   UNL     1       3.879  -1.128  26.449  0.00  0.00    -0.287 OA
BRANCH  22  26
ATOM     24  C   UNL     1       6.010   1.164  26.115  0.00  0.00    -0.069 C 
ATOM     25  C   UNL     1       5.605   1.042  24.666  0.00  0.00    +0.039 C 
ATOM     26  C   UNL     1       5.758   0.205  27.032  0.00  0.00    +0.050 C 
BRANCH  24  27
ATOM     27  C   UNL     1       6.736   2.467  26.451  0.00  0.00    +0.034 C 
BRANCH  27  28
ATOM     28  C   UNL     1       7.941   2.787  25.558  0.00  0.00    +0.031 C 
BRANCH  28  32
ATOM     29  C   UNL     1       7.184   3.899  22.775  0.00  0.00    +0.038 C 
ATOM     30  C   UNL     1       7.816   4.693  23.889  0.00  0.00    -0.080 C 
ATOM     31  C   UNL     1       8.197   6.108  23.543  0.00  0.00    +0.038 C 
ATOM     32  C   UNL     1       8.074   4.213  25.118  0.00  0.00    -0.028 C 
ENDBRANCH  28  32
ENDBRANCH  27  28
ENDBRANCH  24  27
ENDBRANCH  22  26
ENDBRANCH   1  22
BRANCH   5  33
ATOM     33  O   UNL     1      10.510  -2.976  23.675  0.00  0.00    -0.501 OA
ATOM     34  H   UNL     1      10.172  -2.933  22.760  0.00  0.00    +0.292 HD
ENDBRANCH   5  33
BRANCH   9  35
ATOM     35  O   UNL     1       7.757  -6.073  26.980  0.00  0.00    -0.506 OA
ATOM     36  H   UNL     1       7.336  -6.608  27.673  0.00  0.00    +0.292 HD
ENDBRANCH   9  35
BRANCH  11  37
ATOM     37  O   UNL     1       4.175  -3.326  28.282  0.00  0.00    -0.506 OA
ATOM     38  H   UNL     1       4.394  -2.926  29.152  0.00  0.00    +0.292 HD
ENDBRANCH  11  37
TORSDOF 11
ENDMDL
MODEL 2
REMARK VINA RESULT:      -6.7      2.608      6.790
REMARK  Name = 
REMARK  14 active torsions:
REMARK  status: ('A' for Active; 'I' for Inactive)
REMARK    1  A    between atoms: C_1  and  C_2
REMARK    2  A    between atoms: C_2  and  C_33
REMARK    3  A    between atoms: C_3  and  C_4
REMARK    4  A    between atoms: C_4  and  C_5
REMARK    5  A    between atoms: C_5  and  C_6
REMARK    6  A    between atoms: C_6  and  C_32
REMARK    7  A    between atoms: C_7  and  C_8
REMARK    8  A    between atoms: C_8  and  C_10
REMARK    9  A    between atoms: C_11  and  O_31
REMARK   10  A    between atoms: C_13  and  O_30
REMARK   11  A    between atoms: C_17  and  C_22
REMARK   12  A    between atoms: C_18  and  O_21
REMARK   13  A    between atoms: C_24  and  O_29
REMARK   14  A    between atoms: C_25  and  O_28
REMARK                            x       y       z     vdW  Elec       q    Type
REMARK                         _______ _______ _______ _____ _____    ______ ____
ROOT
ATOM      1  C   UNL     1       7.339   1.259  25.751  0.00  0.00    +0.106 A 
ATOM      2  C   UNL     1       7.893   0.737  24.552  0.00  0.00    +0.157 A 
ATOM      3  O   UNL     1       7.600  -0.570  24.225  0.00  0.00    -0.450 OA
ATOM      4  C   UNL     1       8.153  -1.131  23.092  0.00  0.00    +0.181 A 
ATOM      5  C   UNL     1       8.970  -0.495  22.243  0.00  0.00    +0.208 A 
ATOM      6  C   UNL     1       9.323   0.930  22.519  0.00  0.00    +0.238 A 
ATOM      7  O   UNL     1      10.173   1.471  21.829  0.00  0.00    -0.283 OA
ATOM      8  C   UNL     1       8.655   1.544  23.702  0.00  0.00    +0.110 A 
ATOM      9  C   UNL     1       8.815   2.906  24.017  0.00  0.00    +0.135 A 
ATOM     10  C   UNL     1       8.262   3.440  25.181  0.00  0.00    +0.092 A 
ATOM     11  C   UNL     1       7.531   2.621  26.031  0.00  0.00    +0.135 A 
ENDROOT
BRANCH   4  12
ATOM     12  C   UNL     1       7.836  -2.553  22.895  0.00  0.00    +0.025 A 
ATOM     13  C   UNL     1       8.423  -3.524  23.724  0.00  0.00    +0.015 A 
ATOM     14  C   UNL     1       8.072  -4.870  23.596  0.00  0.00    +0.050 A 
ATOM     15  C   UNL     1       7.142  -5.235  22.635  0.00  0.00    +0.158 A 
ATOM     16  C   UNL     1       6.610  -4.290  21.761  0.00  0.00    +0.159 A 
ATOM     17  C   UNL     1       6.962  -2.948  21.872  0.00  0.00    +0.060 A 
BRANCH  15  18
ATOM     18  O   UNL     1       6.733  -6.535  22.566  0.00  0.00    -0.503 OA
ATOM     19  H   UNL     1       6.890  -6.889  23.463  0.00  0.00    +0.292 HD
ENDBRANCH  15  18
BRANCH  16  20
ATOM     20  O   UNL     1       5.722  -4.730  20.818  0.00  0.00    -0.503 OA
ATOM     21  H   UNL     1       5.440  -3.967  20.284  0.00  0.00    +0.292 HD
ENDBRANCH  16  20
ENDBRANCH   4  12
BRANCH   1  22
ATOM     22  C   UNL     1       6.533   0.480  26.746  0.00  0.00    +0.193 C 
ATOM     23  O   UNL     1       6.910   0.486  27.918  0.00  0.00    -0.287 OA
BRANCH  22  26
ATOM     24  C   UNL     1       5.399  -1.736  26.314  0.00  0.00    -0.069 C 
ATOM     25  C   UNL     1       6.553  -2.562  26.828  0.00  0.00    +0.039 C 
ATOM     26  C   UNL     1       5.415  -0.386  26.288  0.00  0.00    +0.050 C 
BRANCH  24  27
ATOM     27  C   UNL     1       4.213  -2.563  25.819  0.00  0.00    +0.034 C 
BRANCH  27  28
ATOM     28  C   UNL     1       4.498  -3.437  24.591  0.00  0.00    +0.031 C 
BRANCH  28  32
ATOM     29  C   UNL     1       5.597  -5.968  25.983  0.00  0.00    +0.038 C 
ATOM     30  C   UNL     1       4.361  -5.913  25.123  0.00  0.00    -0.080 C 
ATOM     31  C   UNL     1       3.699  -7.238  24.852  0.00  0.00    +0.038 C 
ATOM     32  C   UNL     1       3.855  -4.790  24.583  0.00  0.00    -0.028 C 
ENDBRANCH  28  32
ENDBRANCH  27  28
ENDBRANCH  24  27
ENDBRANCH  22  26
ENDBRANCH   1  22
BRANCH   5  33
ATOM     33  O   UNL     1       9.538  -1.150  21.164  0.00  0.00    -0.501 OA
ATOM     34  H   UNL     1       8.861  -1.773  20.839  0.00  0.00    +0.292 HD
ENDBRANCH   5  33
BRANCH   9  35
ATOM     35  O   UNL     1       9.502   3.749  23.186  0.00  0.00    -0.506 OA
ATOM     36  H   UNL     1       8.931   4.052  22.461  0.00  0.00    +0.292 HD
ENDBRANCH   9  35
BRANCH  11  37
ATOM     37  O   UNL     1       7.045   3.247  27.159  0.00  0.00    -0.506 OA
ATOM     38  H   UNL     1       7.783   3.734  27.585  0.00  0.00    +0.292 HD
ENDBRANCH  11  37
TORSDOF 11
ENDMDL
MODEL 3
REMARK VINA RESULT:      -6.7      2.047      4.681
REMARK  Name = 
REMARK  14 active torsions:
REMARK  status: ('A' for Active; 'I' for Inactive)
REMARK    1  A    between atoms: C_1  and  C_2
REMARK    2  A    between atoms: C_2  and  C_33
REMARK    3  A    between atoms: C_3  and  C_4
REMARK    4  A    between atoms: C_4  and  C_5
REMARK    5  A    between atoms: C_5  and  C_6
REMARK    6  A    between atoms: C_6  and  C_32
REMARK    7  A    between atoms: C_7  and  C_8
REMARK    8  A    between atoms: C_8  and  C_10
REMARK    9  A    between atoms: C_11  and  O_31
REMARK   10  A    between atoms: C_13  and  O_30
REMARK   11  A    between atoms: C_17  and  C_22
REMARK   12  A    between atoms: C_18  and  O_21
REMARK   13  A    between atoms: C_24  and  O_29
REMARK   14  A    between atoms: C_25  and  O_28
REMARK                            x       y       z     vdW  Elec       q    Type
REMARK                         _______ _______ _______ _____ _____    ______ ____
ROOT
ATOM      1  C   UNL     1       8.793  -2.216  24.459  0.00  0.00    +0.106 A 
ATOM      2  C   UNL     1       7.640  -1.465  24.810  0.00  0.00    +0.157 A 
ATOM      3  O   UNL     1       7.481  -0.223  24.232  0.00  0.00    -0.450 OA
ATOM      4  C   UNL     1       6.398   0.557  24.578  0.00  0.00    +0.181 A 
ATOM      5  C   UNL     1       5.444   0.202  25.448  0.00  0.00    +0.208 A 
ATOM      6  C   UNL     1       5.537  -1.136  26.106  0.00  0.00    +0.238 A 
ATOM      7  O   UNL     1       4.751  -1.407  27.000  0.00  0.00    -0.283 OA
ATOM      8  C   UNL     1       6.668  -1.999  25.662  0.00  0.00    +0.110 A 
ATOM      9  C   UNL     1       6.814  -3.320  26.120  0.00  0.00    +0.135 A 
ATOM     10  C   UNL     1       7.932  -4.078  25.771  0.00  0.00    +0.092 A 
ATOM     11  C   UNL     1       8.903  -3.527  24.946  0.00  0.00    +0.135 A 
ENDROOT
BRANCH   4  12
ATOM     12  C   UNL     1       6.382   1.892  23.962  0.00  0.00    +0.025 A 
ATOM     13  C   UNL     1       6.510   2.023  22.568  0.00  0.00    +0.015 A 
ATOM     14  C   UNL     1       6.421   3.279  21.964  0.00  0.00    +0.050 A 
ATOM     15  C   UNL     1       6.211   4.395  22.758  0.00  0.00    +0.158 A 
ATOM     16  C   UNL     1       6.156   4.284  24.145  0.00  0.00    +0.159 A 
ATOM     17  C   UNL     1       6.256   3.039  24.758  0.00  0.00    +0.060 A 
BRANCH  15  18
ATOM     18  O   UNL     1       6.037   5.611  22.163  0.00  0.00    -0.503 OA
ATOM     19  H   UNL     1       6.124   6.256  22.893  0.00  0.00    +0.292 HD
ENDBRANCH  15  18
BRANCH  16  20
ATOM     20  O   UNL     1       5.978   5.434  24.865  0.00  0.00    -0.503 OA
ATOM     21  H   UNL     1       6.715   6.035  24.666  0.00  0.00    +0.292 HD
ENDBRANCH  16  20
ENDBRANCH   4  12
BRANCH   1  22
ATOM     22  C   UNL     1       9.907  -1.735  23.579  0.00  0.00    +0.193 C 
ATOM     23  O   UNL     1      10.637  -2.583  23.065  0.00  0.00    -0.287 OA
BRANCH  22  26
ATOM     24  C   UNL     1       9.928   0.501  22.402  0.00  0.00    -0.069 C 
ATOM     25  C   UNL     1       9.273  -0.020  21.146  0.00  0.00    +0.039 C 
ATOM     26  C   UNL     1      10.199  -0.282  23.469  0.00  0.00    +0.050 C 
BRANCH  24  27
ATOM     27  C   UNL     1      10.265   1.991  22.358  0.00  0.00    +0.034 C 
BRANCH  27  28
ATOM     28  C   UNL     1      10.323   2.684  23.725  0.00  0.00    +0.031 C 
BRANCH  28  32
ATOM     29  C   UNL     1      11.791   5.398  23.549  0.00  0.00    +0.038 C 
ATOM     30  C   UNL     1      10.316   5.219  23.803  0.00  0.00    -0.080 C 
ATOM     31  C   UNL     1       9.552   6.481  24.102  0.00  0.00    +0.038 C 
ATOM     32  C   UNL     1       9.680   4.035  23.806  0.00  0.00    -0.028 C 
ENDBRANCH  28  32
ENDBRANCH  27  28
ENDBRANCH  24  27
ENDBRANCH  22  26
ENDBRANCH   1  22
BRANCH   5  33
ATOM     33  O   UNL     1       4.425   1.073  25.794  0.00  0.00    -0.501 OA
ATOM     34  H   UNL     1       4.812   1.968  25.763  0.00  0.00    +0.292 HD
ENDBRANCH   5  33
BRANCH   9  35
ATOM     35  O   UNL     1       5.861  -3.906  26.908  0.00  0.00    -0.506 OA
ATOM     36  H   UNL     1       5.045  -3.379  26.904  0.00  0.00    +0.292 HD
ENDBRANCH   9  35
BRANCH  11  37
ATOM     37  O   UNL     1       9.971  -4.357  24.678  0.00  0.00    -0.506 OA
ATOM     38  H   UNL     1      10.534  -4.406  25.481  0.00  0.00    +0.292 HD
ENDBRANCH  11  37
TORSDOF 11
ENDMDL
MODEL 4
REMARK VINA RESULT:      -6.6      2.310      5.799
REMARK  Name = 
REMARK  14 active torsions:
REMARK  status: ('A' for Active; 'I' for Inactive)
REMARK    1  A    between atoms: C_1  and  C_2
REMARK    2  A    between atoms: C_2  and  C_33
REMARK    3  A    between atoms: C_3  and  C_4
REMARK    4  A    between atoms: C_4  and  C_5
REMARK    5  A    between atoms: C_5  and  C_6
REMARK    6  A    between atoms: C_6  and  C_32
REMARK    7  A    between atoms: C_7  and  C_8
REMARK    8  A    between atoms: C_8  and  C_10
REMARK    9  A    between atoms: C_11  and  O_31
REMARK   10  A    between atoms: C_13  and  O_30
REMARK   11  A    between atoms: C_17  and  C_22
REMARK   12  A    between atoms: C_18  and  O_21
REMARK   13  A    between atoms: C_24  and  O_29
REMARK   14  A    between atoms: C_25  and  O_28
REMARK                            x       y       z     vdW  Elec       q    Type
REMARK                         _______ _______ _______ _____ _____    ______ ____
ROOT
ATOM      1  C   UNL     1       7.133  -3.789  26.268  0.00  0.00    +0.106 A 
ATOM      2  C   UNL     1       6.797  -2.409  26.245  0.00  0.00    +0.157 A 
ATOM      3  O   UNL     1       7.469  -1.598  25.355  0.00  0.00    -0.450 OA
ATOM      4  C   UNL     1       7.204  -0.244  25.331  0.00  0.00    +0.181 A 
ATOM      5  C   UNL     1       6.314   0.377  26.114  0.00  0.00    +0.208 A 
ATOM      6  C   UNL     1       5.534  -0.435  27.096  0.00  0.00    +0.238 A 
ATOM      7  O   UNL     1       4.825   0.142  27.906  0.00  0.00    -0.283 OA
ATOM      8  C   UNL     1       5.773  -1.906  27.054  0.00  0.00    +0.110 A 
ATOM      9  C   UNL     1       5.031  -2.798  27.849  0.00  0.00    +0.135 A 
ATOM     10  C   UNL     1       5.336  -4.160  27.869  0.00  0.00    +0.092 A 
ATOM     11  C   UNL     1       6.373  -4.642  27.082  0.00  0.00    +0.135 A 
ENDROOT
BRANCH   4  12
ATOM     12  C   UNL     1       8.042   0.527  24.401  0.00  0.00    +0.025 A 
ATOM     13  C   UNL     1       9.260   1.072  24.841  0.00  0.00    +0.015 A 
ATOM     14  C   UNL     1      10.100   1.742  23.948  0.00  0.00    +0.050 A 
ATOM     15  C   UNL     1       9.712   1.866  22.623  0.00  0.00    +0.158 A 
ATOM     16  C   UNL     1       8.475   1.393  22.194  0.00  0.00    +0.159 A 
ATOM     17  C   UNL     1       7.625   0.736  23.079  0.00  0.00    +0.060 A 
BRANCH  15  18
ATOM     18  O   UNL     1      10.569   2.443  21.731  0.00  0.00    -0.503 OA
ATOM     19  H   UNL     1      11.422   2.490  22.207  0.00  0.00    +0.292 HD
ENDBRANCH  15  18
BRANCH  16  20
ATOM     20  O   UNL     1       8.147   1.581  20.879  0.00  0.00    -0.503 OA
ATOM     21  H   UNL     1       7.487   0.911  20.631  0.00  0.00    +0.292 HD
ENDBRANCH  16  20
ENDBRANCH   4  12
BRANCH   1  22
ATOM     22  C   UNL     1       8.225  -4.428  25.467  0.00  0.00    +0.193 C 
ATOM     23  O   UNL     1       9.389  -4.178  25.783  0.00  0.00    -0.287 OA
BRANCH  22  26
ATOM     24  C   UNL     1       7.693  -4.698  23.011  0.00  0.00    -0.069 C 
ATOM     25  C   UNL     1       7.774  -3.222  22.709  0.00  0.00    +0.039 C 
ATOM     26  C   UNL     1       7.899  -5.209  24.245  0.00  0.00    +0.050 C 
BRANCH  24  27
ATOM     27  C   UNL     1       7.353  -5.565  21.799  0.00  0.00    +0.034 C 
BRANCH  27  28
ATOM     28  C   UNL     1       5.973  -6.232  21.845  0.00  0.00    +0.031 C 
BRANCH  28  32
ATOM     29  C   UNL     1       4.519  -6.869  24.497  0.00  0.00    +0.038 C 
ATOM     30  C   UNL     1       4.183  -5.729  23.570  0.00  0.00    -0.080 C 
ATOM     31  C   UNL     1       2.965  -4.927  23.943  0.00  0.00    +0.038 C 
ATOM     32  C   UNL     1       4.871  -5.423  22.456  0.00  0.00    -0.028 C 
ENDBRANCH  28  32
ENDBRANCH  27  28
ENDBRANCH  24  27
ENDBRANCH  22  26
ENDBRANCH   1  22
BRANCH   5  33
ATOM     33  O   UNL     1       6.157   1.751  26.076  0.00  0.00    -0.501 OA
ATOM     34  H   UNL     1       7.035   2.118  25.859  0.00  0.00    +0.292 HD
ENDBRANCH   5  33
BRANCH   9  35
ATOM     35  O   UNL     1       3.982  -2.363  28.612  0.00  0.00    -0.506 OA
ATOM     36  H   UNL     1       3.719  -1.466  28.349  0.00  0.00    +0.292 HD
ENDBRANCH   9  35
BRANCH  11  37
ATOM     37  O   UNL     1       6.597  -5.998  27.191  0.00  0.00    -0.506 OA
ATOM     38  H   UNL     1       6.404  -6.414  26.323  0.00  0.00    +0.292 HD
ENDBRANCH  11  37
TORSDOF 11
ENDMDL
MODEL 5
REMARK VINA RESULT:      -6.6      2.770      8.205
REMARK  Name = 
REMARK  14 active torsions:
REMARK  status: ('A' for Active; 'I' for Inactive)
REMARK    1  A    between atoms: C_1  and  C_2
REMARK    2  A    between atoms: C_2  and  C_33
REMARK    3  A    between atoms: C_3  and  C_4
REMARK    4  A    between atoms: C_4  and  C_5
REMARK    5  A    between atoms: C_5  and  C_6
REMARK    6  A    between atoms: C_6  and  C_32
REMARK    7  A    between atoms: C_7  and  C_8
REMARK    8  A    between atoms: C_8  and  C_10
REMARK    9  A    between atoms: C_11  and  O_31
REMARK   10  A    between atoms: C_13  and  O_30
REMARK   11  A    between atoms: C_17  and  C_22
REMARK   12  A    between atoms: C_18  and  O_21
REMARK   13  A    between atoms: C_24  and  O_29
REMARK   14  A    between atoms: C_25  and  O_28
REMARK                            x       y       z     vdW  Elec       q    Type
REMARK                         _______ _______ _______ _____ _____    ______ ____
ROOT
ATOM      1  C   UNL     1       7.543  -0.763  23.111  0.00  0.00    +0.106 A 
ATOM      2  C   UNL     1       6.651  -0.803  24.216  0.00  0.00    +0.157 A 
ATOM      3  O   UNL     1       6.493  -2.006  24.871  0.00  0.00    -0.450 OA
ATOM      4  C   UNL     1       5.604  -2.099  25.922  0.00  0.00    +0.181 A 
ATOM      5  C   UNL     1       4.861  -1.089  26.389  0.00  0.00    +0.208 A 
ATOM      6  C   UNL     1       4.986   0.252  25.742  0.00  0.00    +0.238 A 
ATOM      7  O   UNL     1       4.213   1.139  26.070  0.00  0.00    -0.283 OA
ATOM      8  C   UNL     1       6.008   0.356  24.662  0.00  0.00    +0.110 A 
ATOM      9  C   UNL     1       6.305   1.583  24.040  0.00  0.00    +0.135 A 
ATOM     10  C   UNL     1       7.192   1.643  22.965  0.00  0.00    +0.092 A 
ATOM     11  C   UNL     1       7.803   0.480  22.515  0.00  0.00    +0.135 A 
ENDROOT
BRANCH   4  12
ATOM     12  C   UNL     1       5.460  -3.450  26.484  0.00  0.00    +0.025 A 
ATOM     13  C   UNL     1       4.211  -4.094  26.452  0.00  0.00    +0.015 A 
ATOM     14  C   UNL     1       4.079  -5.406  26.915  0.00  0.00    +0.050 A 
ATOM     15  C   UNL     1       5.195  -6.061  27.411  0.00  0.00    +0.158 A 
ATOM     16  C   UNL     1       6.420  -5.406  27.513  0.00  0.00    +0.159 A 
ATOM     17  C   UNL     1       6.560  -4.095  27.067  0.00  0.00    +0.060 A 
BRANCH  15  18
ATOM     18  O   UNL     1       5.087  -7.370  27.782  0.00  0.00    -0.503 OA
ATOM     19  H   UNL     1       5.744  -7.477  28.497  0.00  0.00    +0.292 HD
ENDBRANCH  15  18
BRANCH  16  20
ATOM     20  O   UNL     1       7.469  -6.107  28.043  0.00  0.00    -0.503 OA
ATOM     21  H   UNL     1       7.969  -6.506  27.311  0.00  0.00    +0.292 HD
ENDBRANCH  16  20
ENDBRANCH   4  12
BRANCH   1  22
ATOM     22  C   UNL     1       8.262  -1.944  22.534  0.00  0.00    +0.193 C 
ATOM     23  O   UNL     1       9.483  -1.860  22.397  0.00  0.00    -0.287 OA
BRANCH  22  26
ATOM     24  C   UNL     1       7.420  -4.327  22.576  0.00  0.00    -0.069 C 
ATOM     25  C   UNL     1       8.130  -4.680  23.859  0.00  0.00    +0.039 C 
ATOM     26  C   UNL     1       7.495  -3.103  22.008  0.00  0.00    +0.050 C 
BRANCH  24  27
ATOM     27  C   UNL     1       6.614  -5.476  21.972  0.00  0.00    +0.034 C 
BRANCH  27  28
ATOM     28  C   UNL     1       5.605  -6.131  22.924  0.00  0.00    +0.031 C 
BRANCH  28  32
ATOM     29  C   UNL     1       3.057  -7.420  24.105  0.00  0.00    +0.038 C 
ATOM     30  C   UNL     1       3.120  -6.074  23.430  0.00  0.00    -0.080 C 
ATOM     31  C   UNL     1       1.798  -5.383  23.234  0.00  0.00    +0.038 C 
ATOM     32  C   UNL     1       4.250  -5.496  22.984  0.00  0.00    -0.028 C 
ENDBRANCH  28  32
ENDBRANCH  27  28
ENDBRANCH  24  27
ENDBRANCH  22  26
ENDBRANCH   1  22
BRANCH   5  33
ATOM     33  O   UNL     1       3.940  -1.281  27.404  0.00  0.00    -0.501 OA
ATOM     34  H   UNL     1       4.171  -2.134  27.820  0.00  0.00    +0.292 HD
ENDBRANCH   5  33
BRANCH   9  35
ATOM     35  O   UNL     1       5.746   2.752  24.479  0.00  0.00    -0.506 OA
ATOM     36  H   UNL     1       6.202   3.070  25.275  0.00  0.00    +0.292 HD
ENDBRANCH   9  35
BRANCH  11  37
ATOM     37  O   UNL     1       8.647   0.652  21.438  0.00  0.00    -0.506 OA
ATOM     38  H   UNL     1       8.372   1.463  20.957  0.00  0.00    +0.292 HD
ENDBRANCH  11  37
TORSDOF 11
ENDMDL
MODEL 6
REMARK VINA RESULT:      -6.4      2.625      7.298
REMARK  Name = 
REMARK  14 active torsions:
REMARK  status: ('A' for Active; 'I' for Inactive)
REMARK    1  A    between atoms: C_1  and  C_2
REMARK    2  A    between atoms: C_2  and  C_33
REMARK    3  A    between atoms: C_3  and  C_4
REMARK    4  A    between atoms: C_4  and  C_5
REMARK    5  A    between atoms: C_5  and  C_6
REMARK    6  A    between atoms: C_6  and  C_32
REMARK    7  A    between atoms: C_7  and  C_8
REMARK    8  A    between atoms: C_8  and  C_10
REMARK    9  A    between atoms: C_11  and  O_31
REMARK   10  A    between atoms: C_13  and  O_30
REMARK   11  A    between atoms: C_17  and  C_22
REMARK   12  A    between atoms: C_18  and  O_21
REMARK   13  A    between atoms: C_24  and  O_29
REMARK   14  A    between atoms: C_25  and  O_28
REMARK                            x       y       z     vdW  Elec       q    Type
REMARK                         _______ _______ _______ _____ _____    ______ ____
ROOT
ATOM      1  C   UNL     1       6.731  -0.380  25.582  0.00  0.00    +0.106 A 
ATOM      2  C   UNL     1       7.278  -1.599  25.100  0.00  0.00    +0.157 A 
ATOM      3  O   UNL     1       6.464  -2.712  25.098  0.00  0.00    -0.450 OA
ATOM      4  C   UNL     1       6.969  -3.925  24.678  0.00  0.00    +0.181 A 
ATOM      5  C   UNL     1       8.220  -4.127  24.246  0.00  0.00    +0.208 A 
ATOM      6  C   UNL     1       9.160  -2.967  24.204  0.00  0.00    +0.238 A 
ATOM      7  O   UNL     1      10.336  -3.170  23.945  0.00  0.00    -0.283 OA
ATOM      8  C   UNL     1       8.577  -1.648  24.583  0.00  0.00    +0.110 A 
ATOM      9  C   UNL     1       9.319  -0.457  24.488  0.00  0.00    +0.135 A 
ATOM     10  C   UNL     1       8.790   0.752  24.941  0.00  0.00    +0.092 A 
ATOM     11  C   UNL     1       7.510   0.783  25.476  0.00  0.00    +0.135 A 
ENDROOT
BRANCH   4  12
ATOM     12  C   UNL     1       6.034  -5.053  24.801  0.00  0.00    +0.025 A 
ATOM     13  C   UNL     1       5.926  -5.746  26.019  0.00  0.00    +0.015 A 
ATOM     14  C   UNL     1       4.987  -6.769  26.171  0.00  0.00    +0.050 A 
ATOM     15  C   UNL     1       4.169  -7.096  25.102  0.00  0.00    +0.158 A 
ATOM     16  C   UNL     1       4.318  -6.465  23.869  0.00  0.00    +0.159 A 
ATOM     17  C   UNL     1       5.259  -5.453  23.703  0.00  0.00    +0.060 A 
BRANCH  15  18
ATOM     18  O   UNL     1       3.193  -8.035  25.274  0.00  0.00    -0.503 OA
ATOM     19  H   UNL     1       2.557  -7.863  24.552  0.00  0.00    +0.292 HD
ENDBRANCH  15  18
BRANCH  16  20
ATOM     20  O   UNL     1       3.496  -6.864  22.851  0.00  0.00    -0.503 OA
ATOM     21  H   UNL     1       3.731  -7.776  22.608  0.00  0.00    +0.292 HD
ENDBRANCH  16  20
ENDBRANCH   4  12
BRANCH   1  22
ATOM     22  C   UNL     1       5.367  -0.218  26.179  0.00  0.00    +0.193 C 
ATOM     23  O   UNL     1       4.557   0.484  25.572  0.00  0.00    -0.287 OA
BRANCH  22  26
ATOM     24  C   UNL     1       4.216  -1.772  27.806  0.00  0.00    -0.069 C 
ATOM     25  C   UNL     1       3.429  -2.496  26.741  0.00  0.00    +0.039 C 
ATOM     26  C   UNL     1       5.071  -0.763  27.529  0.00  0.00    +0.050 C 
BRANCH  24  27
ATOM     27  C   UNL     1       3.957  -2.277  29.225  0.00  0.00    +0.034 C 
BRANCH  27  28
ATOM     28  C   UNL     1       3.707  -3.785  29.342  0.00  0.00    +0.031 C 
BRANCH  28  32
ATOM     29  C   UNL     1       3.737  -6.837  29.833  0.00  0.00    +0.038 C 
ATOM     30  C   UNL     1       4.958  -5.967  29.672  0.00  0.00    -0.080 C 
ATOM     31  C   UNL     1       6.278  -6.656  29.886  0.00  0.00    +0.038 C 
ATOM     32  C   UNL     1       4.927  -4.653  29.387  0.00  0.00    -0.028 C 
ENDBRANCH  28  32
ENDBRANCH  27  28
ENDBRANCH  24  27
ENDBRANCH  22  26
ENDBRANCH   1  22
BRANCH   5  33
ATOM     33  O   UNL     1       8.669  -5.392  23.907  0.00  0.00    -0.501 OA
ATOM     34  H   UNL     1       9.620  -5.408  24.126  0.00  0.00    +0.292 HD
ENDBRANCH   5  33
BRANCH   9  35
ATOM     35  O   UNL     1      10.571  -0.445  23.937  0.00  0.00    -0.506 OA
ATOM     36  H   UNL     1      10.519  -0.324  22.974  0.00  0.00    +0.292 HD
ENDBRANCH   9  35
BRANCH  11  37
ATOM     37  O   UNL     1       7.094   2.025  25.906  0.00  0.00    -0.506 OA
ATOM     38  H   UNL     1       6.546   1.905  26.712  0.00  0.00    +0.292 HD
ENDBRANCH  11  37
TORSDOF 11
ENDMDL
MODEL 7
REMARK VINA RESULT:      -6.4      2.558      7.928
REMARK  Name = 
REMARK  14 active torsions:
REMARK  status: ('A' for Active; 'I' for Inactive)
REMARK    1  A    between atoms: C_1  and  C_2
REMARK    2  A    between atoms: C_2  and  C_33
REMARK    3  A    between atoms: C_3  and  C_4
REMARK    4  A    between atoms: C_4  and  C_5
REMARK    5  A    between atoms: C_5  and  C_6
REMARK    6  A    between atoms: C_6  and  C_32
REMARK    7  A    between atoms: C_7  and  C_8
REMARK    8  A    between atoms: C_8  and  C_10
REMARK    9  A    between atoms: C_11  and  O_31
REMARK   10  A    between atoms: C_13  and  O_30
REMARK   11  A    between atoms: C_17  and  C_22
REMARK   12  A    between atoms: C_18  and  O_21
REMARK   13  A    between atoms: C_24  and  O_29
REMARK   14  A    between atoms: C_25  and  O_28
REMARK                            x       y       z     vdW  Elec       q    Type
REMARK                         _______ _______ _______ _____ _____    ______ ____
ROOT
ATOM      1  C   UNL     1       9.538   4.096  24.042  0.00  0.00    +0.106 A 
ATOM      2  C   UNL     1       8.429   3.699  24.835  0.00  0.00    +0.157 A 
ATOM      3  O   UNL     1       8.233   2.349  25.036  0.00  0.00    -0.450 OA
ATOM      4  C   UNL     1       7.142   1.918  25.763  0.00  0.00    +0.181 A 
ATOM      5  C   UNL     1       6.228   2.721  26.321  0.00  0.00    +0.208 A 
ATOM      6  C   UNL     1       6.379   4.198  26.162  0.00  0.00    +0.238 A 
ATOM      7  O   UNL     1       5.478   4.927  26.548  0.00  0.00    -0.283 OA
ATOM      8  C   UNL     1       7.604   4.650  25.443  0.00  0.00    +0.110 A 
ATOM      9  C   UNL     1       7.924   6.014  25.313  0.00  0.00    +0.135 A 
ATOM     10  C   UNL     1       9.021   6.420  24.553  0.00  0.00    +0.092 A 
ATOM     11  C   UNL     1       9.817   5.467  23.932  0.00  0.00    +0.135 A 
ENDROOT
BRANCH   4  12
ATOM     12  C   UNL     1       6.994   0.457  25.837  0.00  0.00    +0.025 A 
ATOM     13  C   UNL     1       7.984  -0.318  26.464  0.00  0.00    +0.015 A 
ATOM     14  C   UNL     1       7.818  -1.698  26.607  0.00  0.00    +0.050 A 
ATOM     15  C   UNL     1       6.666  -2.292  26.117  0.00  0.00    +0.158 A 
ATOM     16  C   UNL     1       5.714  -1.543  25.431  0.00  0.00    +0.159 A 
ATOM     17  C   UNL     1       5.875  -0.170  25.271  0.00  0.00    +0.060 A 
BRANCH  15  18
ATOM     18  O   UNL     1       6.462  -3.624  26.333  0.00  0.00    -0.503 OA
ATOM     19  H   UNL     1       7.346  -3.973  26.563  0.00  0.00    +0.292 HD
ENDBRANCH  15  18
BRANCH  16  20
ATOM     20  O   UNL     1       4.617  -2.205  24.948  0.00  0.00    -0.503 OA
ATOM     21  H   UNL     1       4.676  -3.135  25.225  0.00  0.00    +0.292 HD
ENDBRANCH  16  20
ENDBRANCH   4  12
BRANCH   1  22
ATOM     22  C   UNL     1      10.469   3.166  23.325  0.00  0.00    +0.193 C 
ATOM     23  O   UNL     1      11.672   3.428  23.350  0.00  0.00    -0.287 OA
BRANCH  22  26
ATOM     24  C   UNL     1      10.027   0.743  22.759  0.00  0.00    -0.069 C 
ATOM     25  C   UNL     1      10.725   0.206  23.984  0.00  0.00    +0.039 C 
ATOM     26  C   UNL     1       9.927   2.063  22.489  0.00  0.00    +0.050 C 
BRANCH  24  27
ATOM     27  C   UNL     1       9.448  -0.338  21.847  0.00  0.00    +0.034 C 
BRANCH  27  28
ATOM     28  C   UNL     1       8.193  -1.037  22.384  0.00  0.00    +0.031 C 
BRANCH  28  32
ATOM     29  C   UNL     1       6.082  -3.257  21.971  0.00  0.00    +0.038 C 
ATOM     30  C   UNL     1       7.416  -3.437  22.650  0.00  0.00    -0.080 C 
ATOM     31  C   UNL     1       7.655  -4.792  23.261  0.00  0.00    +0.038 C 
ATOM     32  C   UNL     1       8.353  -2.479  22.758  0.00  0.00    -0.028 C 
ENDBRANCH  28  32
ENDBRANCH  27  28
ENDBRANCH  24  27
ENDBRANCH  22  26
ENDBRANCH   1  22
BRANCH   5  33
ATOM     33  O   UNL     1       5.124   2.206  26.978  0.00  0.00    -0.501 OA
ATOM     34  H   UNL     1       4.743   2.947  27.488  0.00  0.00    +0.292 HD
ENDBRANCH   5  33
BRANCH   9  35
ATOM     35  O   UNL     1       7.182   6.978  25.938  0.00  0.00    -0.506 OA
ATOM     36  H   UNL     1       6.386   7.184  25.421  0.00  0.00    +0.292 HD
ENDBRANCH   9  35
BRANCH  11  37
ATOM     37  O   UNL     1      10.862   5.980  23.195  0.00  0.00    -0.506 OA
ATOM     38  H   UNL     1      11.474   5.244  22.973  0.00  0.00    +0.292 HD
ENDBRANCH  11  37
TORSDOF 11
ENDMDL
MODEL 8
REMARK VINA RESULT:      -6.2      1.745      4.621
REMARK  Name = 
REMARK  14 active torsions:
REMARK  status: ('A' for Active; 'I' for Inactive)
REMARK    1  A    between atoms: C_1  and  C_2
REMARK    2  A    between atoms: C_2  and  C_33
REMARK    3  A    between atoms: C_3  and  C_4
REMARK    4  A    between atoms: C_4  and  C_5
REMARK    5  A    between atoms: C_5  and  C_6
REMARK    6  A    between atoms: C_6  and  C_32
REMARK    7  A    between atoms: C_7  and  C_8
REMARK    8  A    between atoms: C_8  and  C_10
REMARK    9  A    between atoms: C_11  and  O_31
REMARK   10  A    between atoms: C_13  and  O_30
REMARK   11  A    between atoms: C_17  and  C_22
REMARK   12  A    between atoms: C_18  and  O_21
REMARK   13  A    between atoms: C_24  and  O_29
REMARK   14  A    between atoms: C_25  and  O_28
REMARK                            x       y       z     vdW  Elec       q    Type
REMARK                         _______ _______ _______ _____ _____    ______ ____
ROOT
ATOM      1  C   UNL     1       8.085  -3.916  25.770  0.00  0.00    +0.106 A 
ATOM      2  C   UNL     1       7.144  -2.950  26.215  0.00  0.00    +0.157 A 
ATOM      3  O   UNL     1       7.213  -1.686  25.668  0.00  0.00    -0.450 OA
ATOM      4  C   UNL     1       6.346  -0.706  26.104  0.00  0.00    +0.181 A 
ATOM      5  C   UNL     1       5.400  -0.878  27.037  0.00  0.00    +0.208 A 
ATOM      6  C   UNL     1       5.252  -2.224  27.667  0.00  0.00    +0.238 A 
ATOM      7  O   UNL     1       4.490  -2.351  28.612  0.00  0.00    -0.283 OA
ATOM      8  C   UNL     1       6.141  -3.292  27.128  0.00  0.00    +0.110 A 
ATOM      9  C   UNL     1       6.035  -4.628  27.556  0.00  0.00    +0.135 A 
ATOM     10  C   UNL     1       6.941  -5.594  27.114  0.00  0.00    +0.092 A 
ATOM     11  C   UNL     1       7.948  -5.235  26.228  0.00  0.00    +0.135 A 
ENDROOT
BRANCH   4  12
ATOM     12  C   UNL     1       6.571   0.620  25.510  0.00  0.00    +0.025 A 
ATOM     13  C   UNL     1       6.154   0.878  24.193  0.00  0.00    +0.015 A 
ATOM     14  C   UNL     1       6.293   2.155  23.644  0.00  0.00    +0.050 A 
ATOM     15  C   UNL     1       6.855   3.162  24.413  0.00  0.00    +0.158 A 
ATOM     16  C   UNL     1       7.338   2.897  25.693  0.00  0.00    +0.159 A 
ATOM     17  C   UNL     1       7.214   1.626  26.245  0.00  0.00    +0.060 A 
BRANCH  15  18
ATOM     18  O   UNL     1       6.913   4.429  23.910  0.00  0.00    -0.503 OA
ATOM     19  H   UNL     1       6.243   4.926  24.420  0.00  0.00    +0.292 HD
ENDBRANCH  15  18
BRANCH  16  20
ATOM     20  O   UNL     1       7.908   3.933  26.380  0.00  0.00    -0.503 OA
ATOM     21  H   UNL     1       7.402   4.741  26.189  0.00  0.00    +0.292 HD
ENDBRANCH  16  20
ENDBRANCH   4  12
BRANCH   1  22
ATOM     22  C   UNL     1       9.212  -3.654  24.818  0.00  0.00    +0.193 C 
ATOM     23  O   UNL     1      10.182  -4.413  24.857  0.00  0.00    -0.287 OA
BRANCH  22  26
ATOM     24  C   UNL     1       8.459  -2.231  22.870  0.00  0.00    -0.069 C 
ATOM     25  C   UNL     1       7.494  -3.261  22.337  0.00  0.00    +0.039 C 
ATOM     26  C   UNL     1       9.211  -2.430  23.975  0.00  0.00    +0.050 C 
BRANCH  24  27
ATOM     27  C   UNL     1       8.516  -0.944  22.047  0.00  0.00    +0.034 C 
BRANCH  27  28
ATOM     28  C   UNL     1       9.922  -0.365  21.844  0.00  0.00    +0.031 C 
BRANCH  28  32
ATOM     29  C   UNL     1      10.642   0.882  24.578  0.00  0.00    +0.038 C 
ATOM     30  C   UNL     1      10.320   1.655  23.325  0.00  0.00    -0.080 C 
ATOM     31  C   UNL     1      10.242   3.149  23.486  0.00  0.00    +0.038 C 
ATOM     32  C   UNL     1      10.078   1.097  22.126  0.00  0.00    -0.028 C 
ENDBRANCH  28  32
ENDBRANCH  27  28
ENDBRANCH  24  27
ENDBRANCH  22  26
ENDBRANCH   1  22
BRANCH   5  33
ATOM     33  O   UNL     1       4.615   0.177  27.469  0.00  0.00    -0.501 OA
ATOM     34  H   UNL     1       3.742  -0.205  27.679  0.00  0.00    +0.292 HD
ENDBRANCH   5  33
BRANCH   9  35
ATOM     35  O   UNL     1       5.036  -5.023  28.403  0.00  0.00    -0.506 OA
ATOM     36  H   UNL     1       5.156  -5.951  28.662  0.00  0.00    +0.292 HD
ENDBRANCH   9  35
BRANCH  11  37
ATOM     37  O   UNL     1       8.794  -6.263  25.871  0.00  0.00    -0.506 OA
ATOM     38  H   UNL     1       8.808  -6.919  26.601  0.00  0.00    +0.292 HD
ENDBRANCH  11  37
TORSDOF 11
ENDMDL
MODEL 9
REMARK VINA RESULT:      -6.2      2.501      7.614
REMARK  Name = 
REMARK  14 active torsions:
REMARK  status: ('A' for Active; 'I' for Inactive)
REMARK    1  A    between atoms: C_1  and  C_2
REMARK    2  A    between atoms: C_2  and  C_33
REMARK    3  A    between atoms: C_3  and  C_4
REMARK    4  A    between atoms: C_4  and  C_5
REMARK    5  A    between atoms: C_5  and  C_6
REMARK    6  A    between atoms: C_6  and  C_32
REMARK    7  A    between atoms: C_7  and  C_8
REMARK    8  A    between atoms: C_8  and  C_10
REMARK    9  A    between atoms: C_11  and  O_31
REMARK   10  A    between atoms: C_13  and  O_30
REMARK   11  A    between atoms: C_17  and  C_22
REMARK   12  A    between atoms: C_18  and  O_21
REMARK   13  A    between atoms: C_24  and  O_29
REMARK   14  A    between atoms: C_25  and  O_28
REMARK                            x       y       z     vdW  Elec       q    Type
REMARK                         _______ _______ _______ _____ _____    ______ ____
ROOT
ATOM      1  C   UNL     1       8.736   1.368  23.859  0.00  0.00    +0.106 A 
ATOM      2  C   UNL     1       8.007   1.015  25.025  0.00  0.00    +0.157 A 
ATOM      3  O   UNL     1       7.780  -0.325  25.260  0.00  0.00    -0.450 OA
ATOM      4  C   UNL     1       7.038  -0.710  26.358  0.00  0.00    +0.181 A 
ATOM      5  C   UNL     1       6.509   0.129  27.257  0.00  0.00    +0.208 A 
ATOM      6  C   UNL     1       6.724   1.597  27.082  0.00  0.00    +0.238 A 
ATOM      7  O   UNL     1       6.129   2.371  27.816  0.00  0.00    -0.283 OA
ATOM      8  C   UNL     1       7.593   1.991  25.937  0.00  0.00    +0.110 A 
ATOM      9  C   UNL     1       7.964   3.330  25.717  0.00  0.00    +0.135 A 
ATOM     10  C   UNL     1       8.695   3.692  24.585  0.00  0.00    +0.092 A 
ATOM     11  C   UNL     1       9.077   2.716  23.674  0.00  0.00    +0.135 A 
ENDROOT
BRANCH   4  12
ATOM     12  C   UNL     1       6.792  -2.156  26.455  0.00  0.00    +0.025 A 
ATOM     13  C   UNL     1       5.480  -2.652  26.361  0.00  0.00    +0.015 A 
ATOM     14  C   UNL     1       5.242  -4.029  26.376  0.00  0.00    +0.050 A 
ATOM     15  C   UNL     1       6.316  -4.897  26.490  0.00  0.00    +0.158 A 
ATOM     16  C   UNL     1       7.611  -4.413  26.657  0.00  0.00    +0.159 A 
ATOM     17  C   UNL     1       7.858  -3.044  26.656  0.00  0.00    +0.060 A 
BRANCH  15  18
ATOM     18  O   UNL     1       6.093  -6.242  26.418  0.00  0.00    -0.503 OA
ATOM     19  H   UNL     1       5.135  -6.341  26.585  0.00  0.00    +0.292 HD
ENDBRANCH  15  18
BRANCH  16  20
ATOM     20  O   UNL     1       8.616  -5.331  26.795  0.00  0.00    -0.503 OA
ATOM     21  H   UNL     1       8.232  -6.220  26.703  0.00  0.00    +0.292 HD
ENDBRANCH  16  20
ENDBRANCH   4  12
BRANCH   1  22
ATOM     22  C   UNL     1       9.204   0.411  22.805  0.00  0.00    +0.193 C 
ATOM     23  O   UNL     1      10.179   0.738  22.128  0.00  0.00    -0.287 OA
BRANCH  22  26
ATOM     24  C   UNL     1       8.732  -2.071  22.867  0.00  0.00    -0.069 C 
ATOM     25  C   UNL     1       9.971  -2.408  23.660  0.00  0.00    +0.039 C 
ATOM     26  C   UNL     1       8.414  -0.810  22.500  0.00  0.00    +0.050 C 
BRANCH  24  27
ATOM     27  C   UNL     1       7.872  -3.283  22.510  0.00  0.00    +0.034 C 
BRANCH  27  28
ATOM     28  C   UNL     1       6.404  -2.967  22.199  0.00  0.00    +0.031 C 
BRANCH  28  32
ATOM     29  C   UNL     1       5.961  -5.970  21.616  0.00  0.00    +0.038 C 
ATOM     30  C   UNL     1       5.137  -5.135  22.563  0.00  0.00    -0.080 C 
ATOM     31  C   UNL     1       3.944  -5.825  23.168  0.00  0.00    +0.038 C 
ATOM     32  C   UNL     1       5.387  -3.847  22.859  0.00  0.00    -0.028 C 
ENDBRANCH  28  32
ENDBRANCH  27  28
ENDBRANCH  24  27
ENDBRANCH  22  26
ENDBRANCH   1  22
BRANCH   5  33
ATOM     33  O   UNL     1       5.718  -0.334  28.295  0.00  0.00    -0.501 OA
ATOM     34  H   UNL     1       5.254   0.448  28.650  0.00  0.00    +0.292 HD
ENDBRANCH   5  33
BRANCH   9  35
ATOM     35  O   UNL     1       7.632   4.313  26.610  0.00  0.00    -0.506 OA
ATOM     36  H   UNL     1       8.116   5.131  26.411  0.00  0.00    +0.292 HD
ENDBRANCH   9  35
BRANCH  11  37
ATOM     37  O   UNL     1       9.781   3.187  22.587  0.00  0.00    -0.506 OA
ATOM     38  H   UNL     1       9.258   3.003  21.776  0.00  0.00    +0.292 HD
ENDBRANCH  11  37
TORSDOF 11
ENDMDL
