MODEL 1
REMARK VINA RESULT:      -7.4      0.000      0.000
REMARK  Name = 
REMARK  14 active torsions:
REMARK  status: ('A' for Active; 'I' for Inactive)
REMARK    1  A    between atoms: C_1  and  C_2
REMARK    2  A    between atoms: C_2  and  O_4
REMARK    3  A    between atoms: O_4  and  C_5
REMARK    4  A    between atoms: C_6  and  O_31
REMARK    5  A    between atoms: C_8  and  C_11
REMARK    6  A    between atoms: C_12  and  O_27
REMARK    7  A    between atoms: C_16  and  O_26
REMARK    8  A    between atoms: C_18  and  O_22
REMARK    9  A    between atoms: O_22  and  C_23
REMARK   10  A    between atoms: C_23  and  C_25
REMARK   11  A    between atoms: O_27  and  C_28
REMARK   12  A    between atoms: C_28  and  C_30
REMARK   13  A    between atoms: O_31  and  C_32
REMARK   14  A    between atoms: C_32  and  C_34
REMARK                            x       y       z     vdW  Elec       q    Type
REMARK                         _______ _______ _______ _____ _____    ______ ____
ROOT
ATOM      1  C   UNL     1       8.083  -0.534  24.701  0.00  0.00    +0.182 A 
ATOM      2  O   UNL     1       7.291  -1.266  25.574  0.00  0.00    -0.451 OA
ATOM      3  C   UNL     1       7.656  -2.553  25.865  0.00  0.00    +0.147 A 
ATOM      4  C   UNL     1       8.727  -3.186  25.237  0.00  0.00    +0.109 A 
ATOM      5  C   UNL     1       9.044  -4.507  25.571  0.00  0.00    +0.135 A 
ATOM      6  C   UNL     1       8.304  -5.193  26.533  0.00  0.00    +0.092 A 
ATOM      7  C   UNL     1       7.254  -4.545  27.180  0.00  0.00    +0.139 A 
ATOM      8  C   UNL     1       9.510  -2.435  24.245  0.00  0.00    +0.239 A 
ATOM      9  O   UNL     1      10.446  -2.969  23.656  0.00  0.00    -0.283 OA
ATOM     10  C   UNL     1       6.915  -3.231  26.836  0.00  0.00    +0.093 A 
ATOM     11  C   UNL     1       9.139  -1.019  24.022  0.00  0.00    +0.221 A 
ENDROOT
BRANCH   1  15
ATOM     12  C   UNL     1       6.822   3.516  24.303  0.00  0.00    +0.174 A 
ATOM     13  C   UNL     1       6.013   2.470  23.838  0.00  0.00    +0.051 A 
ATOM     14  C   UNL     1       6.430   1.152  23.975  0.00  0.00    +0.015 A 
ATOM     15  C   UNL     1       7.658   0.864  24.573  0.00  0.00    +0.025 A 
ATOM     16  C   UNL     1       8.488   1.909  25.002  0.00  0.00    +0.061 A 
ATOM     17  C   UNL     1       8.095   3.238  24.813  0.00  0.00    +0.174 A 
BRANCH  12  18
ATOM     18  O   UNL     1       6.374   4.836  24.143  0.00  0.00    -0.422 OA
BRANCH  18  20
ATOM     19  C   UNL     1       4.867   5.833  22.608  0.00  0.00    +0.136 C 
ATOM     20  C   UNL     1       6.224   5.230  22.811  0.00  0.00    +0.309 C 
ATOM     21  O   UNL     1       7.059   5.127  21.921  0.00  0.00    -0.251 OA
ENDBRANCH  18  20
ENDBRANCH  12  18
BRANCH  17  22
ATOM     22  O   UNL     1       8.957   4.313  25.130  0.00  0.00    -0.422 OA
BRANCH  22  23
ATOM     23  C   UNL     1       9.856   4.756  24.150  0.00  0.00    +0.309 C 
ATOM     24  C   UNL     1       9.662   6.219  23.888  0.00  0.00    +0.136 C 
ATOM     25  O   UNL     1      10.707   4.085  23.580  0.00  0.00    -0.251 OA
ENDBRANCH  22  23
ENDBRANCH  17  22
ENDBRANCH   1  15
BRANCH   5  26
ATOM     26  O   UNL     1      10.079  -5.195  24.993  0.00  0.00    -0.506 OA
ATOM     27  H   UNL     1      10.573  -5.663  25.703  0.00  0.00    +0.292 HD
ENDBRANCH   5  26
BRANCH   7  28
ATOM     28  O   UNL     1       6.438  -5.178  28.147  0.00  0.00    -0.426 OA
BRANCH  28  29
ATOM     29  C   UNL     1       5.773  -6.377  27.877  0.00  0.00    +0.309 C 
ATOM     30  C   UNL     1       4.893  -6.220  26.671  0.00  0.00    +0.136 C 
ATOM     31  O   UNL     1       5.859  -7.420  28.511  0.00  0.00    -0.251 OA
ENDBRANCH  28  29
ENDBRANCH   7  28
BRANCH  11  32
ATOM     32  O   UNL     1      10.003  -0.245  23.227  0.00  0.00    -0.418 OA
BRANCH  32  33
ATOM     33  C   UNL     1       9.603  -0.059  21.932  0.00  0.00    +0.309 C 
ATOM     34  C   UNL     1       9.605   1.410  21.619  0.00  0.00    +0.136 C 
ATOM     35  O   UNL     1       9.310  -0.932  21.123  0.00  0.00    -0.251 OA
ENDBRANCH  32  33
ENDBRANCH  11  32
TORSDOF 10
ENDMDL
MODEL 2
REMARK VINA RESULT:      -7.3      1.031      2.408
REMARK  Name = 
REMARK  14 active torsions:
REMARK  status: ('A' for Active; 'I' for Inactive)
REMARK    1  A    between atoms: C_1  and  C_2
REMARK    2  A    between atoms: C_2  and  O_4
REMARK    3  A    between atoms: O_4  and  C_5
REMARK    4  A    between atoms: C_6  and  O_31
REMARK    5  A    between atoms: C_8  and  C_11
REMARK    6  A    between atoms: C_12  and  O_27
REMARK    7  A    between atoms: C_16  and  O_26
REMARK    8  A    between atoms: C_18  and  O_22
REMARK    9  A    between atoms: O_22  and  C_23
REMARK   10  A    between atoms: C_23  and  C_25
REMARK   11  A    between atoms: O_27  and  C_28
REMARK   12  A    between atoms: C_28  and  C_30
REMARK   13  A    between atoms: O_31  and  C_32
REMARK   14  A    between atoms: C_32  and  C_34
REMARK                            x       y       z     vdW  Elec       q    Type
REMARK                         _______ _______ _______ _____ _____    ______ ____
ROOT
ATOM      1  C   UNL     1       8.120  -0.581  24.635  0.00  0.00    +0.182 A 
ATOM      2  O   UNL     1       7.247  -1.275  25.459  0.00  0.00    -0.451 OA
ATOM      3  C   UNL     1       7.546  -2.572  25.783  0.00  0.00    +0.147 A 
ATOM      4  C   UNL     1       8.631  -3.249  25.230  0.00  0.00    +0.109 A 
ATOM      5  C   UNL     1       8.877  -4.578  25.594  0.00  0.00    +0.135 A 
ATOM      6  C   UNL     1       8.052  -5.227  26.511  0.00  0.00    +0.092 A 
ATOM      7  C   UNL     1       6.986  -4.535  27.083  0.00  0.00    +0.139 A 
ATOM      8  C   UNL     1       9.503  -2.537  24.285  0.00  0.00    +0.239 A 
ATOM      9  O   UNL     1      10.456  -3.110  23.763  0.00  0.00    -0.283 OA
ATOM     10  C   UNL     1       6.719  -3.213  26.708  0.00  0.00    +0.093 A 
ATOM     11  C   UNL     1       9.200  -1.110  24.029  0.00  0.00    +0.221 A 
ENDROOT
BRANCH   1  15
ATOM     12  C   UNL     1       7.081   3.527  24.188  0.00  0.00    +0.174 A 
ATOM     13  C   UNL     1       8.065   3.138  25.108  0.00  0.00    +0.051 A 
ATOM     14  C   UNL     1       8.400   1.796  25.245  0.00  0.00    +0.015 A 
ATOM     15  C   UNL     1       7.756   0.830  24.469  0.00  0.00    +0.025 A 
ATOM     16  C   UNL     1       6.744   1.212  23.578  0.00  0.00    +0.061 A 
ATOM     17  C   UNL     1       6.365   2.554  23.481  0.00  0.00    +0.174 A 
BRANCH  12  18
ATOM     18  O   UNL     1       6.762   4.889  24.079  0.00  0.00    -0.422 OA
BRANCH  18  20
ATOM     19  C   UNL     1       8.566   6.390  23.740  0.00  0.00    +0.136 C 
ATOM     20  C   UNL     1       7.489   5.567  23.099  0.00  0.00    +0.309 C 
ATOM     21  O   UNL     1       7.313   5.510  21.888  0.00  0.00    -0.251 OA
ENDBRANCH  18  20
ENDBRANCH  12  18
BRANCH  17  22
ATOM     22  O   UNL     1       5.273   2.955  22.678  0.00  0.00    -0.422 OA
BRANCH  22  23
ATOM     23  C   UNL     1       4.047   3.217  23.304  0.00  0.00    +0.309 C 
ATOM     24  C   UNL     1       3.460   4.495  22.787  0.00  0.00    +0.136 C 
ATOM     25  O   UNL     1       3.490   2.520  24.142  0.00  0.00    -0.251 OA
ENDBRANCH  22  23
ENDBRANCH  17  22
ENDBRANCH   1  15
BRANCH   5  26
ATOM     26  O   UNL     1       9.921  -5.308  25.090  0.00  0.00    -0.506 OA
ATOM     27  H   UNL     1      10.077  -6.075  25.684  0.00  0.00    +0.292 HD
ENDBRANCH   5  26
BRANCH   7  28
ATOM     28  O   UNL     1       6.087  -5.129  27.999  0.00  0.00    -0.426 OA
BRANCH  28  29
ATOM     29  C   UNL     1       5.572  -6.412  27.798  0.00  0.00    +0.309 C 
ATOM     30  C   UNL     1       4.704  -6.434  26.573  0.00  0.00    +0.136 C 
ATOM     31  O   UNL     1       5.766  -7.397  28.498  0.00  0.00    -0.251 OA
ENDBRANCH  28  29
ENDBRANCH   7  28
BRANCH  11  32
ATOM     32  O   UNL     1      10.141  -0.375  23.286  0.00  0.00    -0.418 OA
BRANCH  32  33
ATOM     33  C   UNL     1       9.764  -0.056  22.010  0.00  0.00    +0.309 C 
ATOM     34  C   UNL     1       9.976   1.415  21.785  0.00  0.00    +0.136 C 
ATOM     35  O   UNL     1       9.343  -0.826  21.156  0.00  0.00    -0.251 OA
ENDBRANCH  32  33
ENDBRANCH  11  32
TORSDOF 10
ENDMDL
MODEL 3
REMARK VINA RESULT:      -7.1      2.619      8.840
REMARK  Name = 
REMARK  14 active torsions:
REMARK  status: ('A' for Active; 'I' for Inactive)
REMARK    1  A    between atoms: C_1  and  C_2
REMARK    2  A    between atoms: C_2  and  O_4
REMARK    3  A    between atoms: O_4  and  C_5
REMARK    4  A    between atoms: C_6  and  O_31
REMARK    5  A    between atoms: C_8  and  C_11
REMARK    6  A    between atoms: C_12  and  O_27
REMARK    7  A    between atoms: C_16  and  O_26
REMARK    8  A    between atoms: C_18  and  O_22
REMARK    9  A    between atoms: O_22  and  C_23
REMARK   10  A    between atoms: C_23  and  C_25
REMARK   11  A    between atoms: O_27  and  C_28
REMARK   12  A    between atoms: C_28  and  C_30
REMARK   13  A    between atoms: O_31  and  C_32
REMARK   14  A    between atoms: C_32  and  C_34
REMARK                            x       y       z     vdW  Elec       q    Type
REMARK                         _______ _______ _______ _____ _____    ______ ____
ROOT
ATOM      1  C   UNL     1       7.867   0.780  24.588  0.00  0.00    +0.182 A 
ATOM      2  O   UNL     1       8.661   1.676  23.887  0.00  0.00    -0.451 OA
ATOM      3  C   UNL     1       8.799   2.947  24.375  0.00  0.00    +0.147 A 
ATOM      4  C   UNL     1       8.089   3.403  25.484  0.00  0.00    +0.109 A 
ATOM      5  C   UNL     1       8.267   4.718  25.928  0.00  0.00    +0.135 A 
ATOM      6  C   UNL     1       9.154   5.574  25.277  0.00  0.00    +0.092 A 
ATOM      7  C   UNL     1       9.883   5.103  24.187  0.00  0.00    +0.139 A 
ATOM      8  C   UNL     1       7.179   2.476  26.172  0.00  0.00    +0.239 A 
ATOM      9  O   UNL     1       6.521   2.851  27.139  0.00  0.00    -0.283 OA
ATOM     10  C   UNL     1       9.696   3.796  23.722  0.00  0.00    +0.093 A 
ATOM     11  C   UNL     1       7.123   1.085  25.668  0.00  0.00    +0.221 A 
ENDROOT
BRANCH   1  15
ATOM     12  C   UNL     1       7.938  -3.161  22.971  0.00  0.00    +0.174 A 
ATOM     13  C   UNL     1       6.898  -2.278  22.648  0.00  0.00    +0.051 A 
ATOM     14  C   UNL     1       6.884  -0.994  23.178  0.00  0.00    +0.015 A 
ATOM     15  C   UNL     1       7.905  -0.578  24.035  0.00  0.00    +0.025 A 
ATOM     16  C   UNL     1       8.924  -1.472  24.392  0.00  0.00    +0.061 A 
ATOM     17  C   UNL     1       8.908  -2.784  23.907  0.00  0.00    +0.174 A 
BRANCH  12  18
ATOM     18  O   UNL     1       7.918  -4.454  22.424  0.00  0.00    -0.422 OA
BRANCH  18  20
ATOM     19  C   UNL     1       6.146  -5.664  21.415  0.00  0.00    +0.136 C 
ATOM     20  C   UNL     1       6.749  -5.169  22.695  0.00  0.00    +0.309 C 
ATOM     21  O   UNL     1       6.268  -5.391  23.800  0.00  0.00    -0.251 OA
ENDBRANCH  18  20
ENDBRANCH  12  18
BRANCH  17  22
ATOM     22  O   UNL     1       9.855  -3.740  24.337  0.00  0.00    -0.422 OA
BRANCH  22  23
ATOM     23  C   UNL     1       9.427  -4.762  25.195  0.00  0.00    +0.309 C 
ATOM     24  C   UNL     1       8.847  -4.181  26.449  0.00  0.00    +0.136 C 
ATOM     25  O   UNL     1       9.479  -5.966  24.982  0.00  0.00    -0.251 OA
ENDBRANCH  22  23
ENDBRANCH  17  22
ENDBRANCH   1  15
BRANCH   5  26
ATOM     26  O   UNL     1       7.600   5.237  27.008  0.00  0.00    -0.506 OA
ATOM     27  H   UNL     1       7.225   4.490  27.527  0.00  0.00    +0.292 HD
ENDBRANCH   5  26
BRANCH   7  28
ATOM     28  O   UNL     1      10.782   5.914  23.456  0.00  0.00    -0.426 OA
BRANCH  28  29
ATOM     29  C   UNL     1      12.149   5.944  23.745  0.00  0.00    +0.309 C 
ATOM     30  C   UNL     1      12.935   5.416  22.580  0.00  0.00    +0.136 C 
ATOM     31  O   UNL     1      12.669   6.328  24.784  0.00  0.00    -0.251 OA
ENDBRANCH  28  29
ENDBRANCH   7  28
BRANCH  11  32
ATOM     32  O   UNL     1       6.411   0.149  26.439  0.00  0.00    -0.418 OA
BRANCH  32  33
ATOM     33  C   UNL     1       5.117  -0.071  26.050  0.00  0.00    +0.309 C 
ATOM     34  C   UNL     1       4.816  -1.540  26.140  0.00  0.00    +0.136 C 
ATOM     35  O   UNL     1       4.302   0.776  25.705  0.00  0.00    -0.251 OA
ENDBRANCH  32  33
ENDBRANCH  11  32
TORSDOF 10
ENDMDL
MODEL 4
REMARK VINA RESULT:      -7.1      2.175      8.834
REMARK  Name = 
REMARK  14 active torsions:
REMARK  status: ('A' for Active; 'I' for Inactive)
REMARK    1  A    between atoms: C_1  and  C_2
REMARK    2  A    between atoms: C_2  and  O_4
REMARK    3  A    between atoms: O_4  and  C_5
REMARK    4  A    between atoms: C_6  and  O_31
REMARK    5  A    between atoms: C_8  and  C_11
REMARK    6  A    between atoms: C_12  and  O_27
REMARK    7  A    between atoms: C_16  and  O_26
REMARK    8  A    between atoms: C_18  and  O_22
REMARK    9  A    between atoms: O_22  and  C_23
REMARK   10  A    between atoms: C_23  and  C_25
REMARK   11  A    between atoms: O_27  and  C_28
REMARK   12  A    between atoms: C_28  and  C_30
REMARK   13  A    between atoms: O_31  and  C_32
REMARK   14  A    between atoms: C_32  and  C_34
REMARK                            x       y       z     vdW  Elec       q    Type
REMARK                         _______ _______ _______ _____ _____    ______ ____
ROOT
ATOM      1  C   UNL     1       7.719  -2.397  24.478  0.00  0.00    +0.182 A 
ATOM      2  O   UNL     1       7.753  -1.214  25.200  0.00  0.00    -0.451 OA
ATOM      3  C   UNL     1       8.137  -0.067  24.558  0.00  0.00    +0.147 A 
ATOM      4  C   UNL     1       8.595  -0.064  23.242  0.00  0.00    +0.109 A 
ATOM      5  C   UNL     1       8.982   1.140  22.645  0.00  0.00    +0.135 A 
ATOM      6  C   UNL     1       8.905   2.339  23.352  0.00  0.00    +0.092 A 
ATOM      7  C   UNL     1       8.417   2.335  24.657  0.00  0.00    +0.139 A 
ATOM      8  C   UNL     1       8.644  -1.337  22.508  0.00  0.00    +0.239 A 
ATOM      9  O   UNL     1       9.063  -1.374  21.354  0.00  0.00    -0.283 OA
ATOM     10  C   UNL     1       8.049   1.132  25.270  0.00  0.00    +0.093 A 
ATOM     11  C   UNL     1       8.138  -2.541  23.206  0.00  0.00    +0.221 A 
ENDROOT
BRANCH   1  15
ATOM     12  C   UNL     1       6.165  -5.679  26.705  0.00  0.00    +0.174 A 
ATOM     13  C   UNL     1       7.510  -5.308  26.831  0.00  0.00    +0.051 A 
ATOM     14  C   UNL     1       8.009  -4.235  26.103  0.00  0.00    +0.015 A 
ATOM     15  C   UNL     1       7.171  -3.523  25.242  0.00  0.00    +0.025 A 
ATOM     16  C   UNL     1       5.836  -3.917  25.083  0.00  0.00    +0.061 A 
ATOM     17  C   UNL     1       5.348  -5.033  25.770  0.00  0.00    +0.174 A 
BRANCH  12  18
ATOM     18  O   UNL     1       5.695  -6.773  27.449  0.00  0.00    -0.422 OA
BRANCH  18  20
ATOM     19  C   UNL     1       5.066  -5.538  29.374  0.00  0.00    +0.136 C 
ATOM     20  C   UNL     1       5.902  -6.655  28.826  0.00  0.00    +0.309 C 
ATOM     21  O   UNL     1       6.635  -7.352  29.517  0.00  0.00    -0.251 OA
ENDBRANCH  18  20
ENDBRANCH  12  18
BRANCH  17  22
ATOM     22  O   UNL     1       4.042  -5.524  25.546  0.00  0.00    -0.422 OA
BRANCH  22  23
ATOM     23  C   UNL     1       3.836  -6.401  24.473  0.00  0.00    +0.309 C 
ATOM     24  C   UNL     1       3.064  -5.721  23.383  0.00  0.00    +0.136 C 
ATOM     25  O   UNL     1       4.230  -7.558  24.387  0.00  0.00    -0.251 OA
ENDBRANCH  22  23
ENDBRANCH  17  22
ENDBRANCH   1  15
BRANCH   5  26
ATOM     26  O   UNL     1       9.447   1.219  21.358  0.00  0.00    -0.506 OA
ATOM     27  H   UNL     1       8.728   1.581  20.793  0.00  0.00    +0.292 HD
ENDBRANCH   5  26
BRANCH   7  28
ATOM     28  O   UNL     1       8.333   3.504  25.450  0.00  0.00    -0.426 OA
BRANCH  28  29
ATOM     29  C   UNL     1       8.023   4.748  24.896  0.00  0.00    +0.309 C 
ATOM     30  C   UNL     1       9.201   5.672  25.009  0.00  0.00    +0.136 C 
ATOM     31  O   UNL     1       6.958   5.080  24.392  0.00  0.00    -0.251 OA
ENDBRANCH  28  29
ENDBRANCH   7  28
BRANCH  11  32
ATOM     32  O   UNL     1       7.997  -3.715  22.445  0.00  0.00    -0.418 OA
BRANCH  32  33
ATOM     33  C   UNL     1       6.751  -3.932  21.924  0.00  0.00    +0.309 C 
ATOM     34  C   UNL     1       6.550  -5.407  21.719  0.00  0.00    +0.136 C 
ATOM     35  O   UNL     1       5.901  -3.083  21.678  0.00  0.00    -0.251 OA
ENDBRANCH  32  33
ENDBRANCH  11  32
TORSDOF 10
ENDMDL
MODEL 5
REMARK VINA RESULT:      -7.0      2.378      9.054
REMARK  Name = 
REMARK  14 active torsions:
REMARK  status: ('A' for Active; 'I' for Inactive)
REMARK    1  A    between atoms: C_1  and  C_2
REMARK    2  A    between atoms: C_2  and  O_4
REMARK    3  A    between atoms: O_4  and  C_5
REMARK    4  A    between atoms: C_6  and  O_31
REMARK    5  A    between atoms: C_8  and  C_11
REMARK    6  A    between atoms: C_12  and  O_27
REMARK    7  A    between atoms: C_16  and  O_26
REMARK    8  A    between atoms: C_18  and  O_22
REMARK    9  A    between atoms: O_22  and  C_23
REMARK   10  A    between atoms: C_23  and  C_25
REMARK   11  A    between atoms: O_27  and  C_28
REMARK   12  A    between atoms: C_28  and  C_30
REMARK   13  A    between atoms: O_31  and  C_32
REMARK   14  A    between atoms: C_32  and  C_34
REMARK                            x       y       z     vdW  Elec       q    Type
REMARK                         _______ _______ _______ _____ _____    ______ ____
ROOT
ATOM      1  C   UNL     1       7.633   0.158  24.466  0.00  0.00    +0.182 A 
ATOM      2  O   UNL     1       8.917   0.556  24.124  0.00  0.00    -0.451 OA
ATOM      3  C   UNL     1       9.168   1.893  23.973  0.00  0.00    +0.147 A 
ATOM      4  C   UNL     1       8.163   2.855  24.044  0.00  0.00    +0.109 A 
ATOM      5  C   UNL     1       8.483   4.206  23.871  0.00  0.00    +0.135 A 
ATOM      6  C   UNL     1       9.799   4.599  23.637  0.00  0.00    +0.092 A 
ATOM      7  C   UNL     1      10.805   3.636  23.598  0.00  0.00    +0.139 A 
ATOM      8  C   UNL     1       6.785   2.420  24.317  0.00  0.00    +0.239 A 
ATOM      9  O   UNL     1       5.871   3.239  24.365  0.00  0.00    -0.283 OA
ATOM     10  C   UNL     1      10.492   2.280  23.747  0.00  0.00    +0.093 A 
ATOM     11  C   UNL     1       6.568   0.976  24.561  0.00  0.00    +0.221 A 
ENDROOT
BRANCH   1  15
ATOM     12  C   UNL     1       7.356  -4.025  25.229  0.00  0.00    +0.174 A 
ATOM     13  C   UNL     1       8.271  -3.232  25.935  0.00  0.00    +0.051 A 
ATOM     14  C   UNL     1       8.353  -1.868  25.682  0.00  0.00    +0.015 A 
ATOM     15  C   UNL     1       7.525  -1.283  24.722  0.00  0.00    +0.025 A 
ATOM     16  C   UNL     1       6.638  -2.079  23.986  0.00  0.00    +0.061 A 
ATOM     17  C   UNL     1       6.596  -3.461  24.198  0.00  0.00    +0.174 A 
BRANCH  12  18
ATOM     18  O   UNL     1       7.303  -5.400  25.504  0.00  0.00    -0.422 OA
BRANCH  18  20
ATOM     19  C   UNL     1       5.272  -5.946  26.599  0.00  0.00    +0.136 C 
ATOM     20  C   UNL     1       6.745  -5.711  26.746  0.00  0.00    +0.309 C 
ATOM     21  O   UNL     1       7.341  -5.803  27.813  0.00  0.00    -0.251 OA
ENDBRANCH  18  20
ENDBRANCH  12  18
BRANCH  17  22
ATOM     22  O   UNL     1       5.796  -4.306  23.395  0.00  0.00    -0.422 OA
BRANCH  22  23
ATOM     23  C   UNL     1       6.146  -4.469  22.047  0.00  0.00    +0.309 C 
ATOM     24  C   UNL     1       7.104  -5.611  21.892  0.00  0.00    +0.136 C 
ATOM     25  O   UNL     1       5.736  -3.811  21.100  0.00  0.00    -0.251 OA
ENDBRANCH  22  23
ENDBRANCH  17  22
ENDBRANCH   1  15
BRANCH   5  26
ATOM     26  O   UNL     1       7.547   5.206  23.923  0.00  0.00    -0.506 OA
ATOM     27  H   UNL     1       6.975   5.053  24.708  0.00  0.00    +0.292 HD
ENDBRANCH   5  26
BRANCH   7  28
ATOM     28  O   UNL     1      12.160   3.949  23.339  0.00  0.00    -0.426 OA
BRANCH  28  29
ATOM     29  C   UNL     1      12.644   5.256  23.434  0.00  0.00    +0.309 C 
ATOM     30  C   UNL     1      13.190   5.703  22.109  0.00  0.00    +0.136 C 
ATOM     31  O   UNL     1      12.651   5.963  24.433  0.00  0.00    -0.251 OA
ENDBRANCH  28  29
ENDBRANCH   7  28
BRANCH  11  32
ATOM     32  O   UNL     1       5.296   0.584  25.017  0.00  0.00    -0.418 OA
BRANCH  32  33
ATOM     33  C   UNL     1       5.084   0.724  26.361  0.00  0.00    +0.309 C 
ATOM     34  C   UNL     1       3.841   1.539  26.584  0.00  0.00    +0.136 C 
ATOM     35  O   UNL     1       5.764   0.250  27.264  0.00  0.00    -0.251 OA
ENDBRANCH  32  33
ENDBRANCH  11  32
TORSDOF 10
ENDMDL
MODEL 6
REMARK VINA RESULT:      -6.7      1.147      1.433
REMARK  Name = 
REMARK  14 active torsions:
REMARK  status: ('A' for Active; 'I' for Inactive)
REMARK    1  A    between atoms: C_1  and  C_2
REMARK    2  A    between atoms: C_2  and  O_4
REMARK    3  A    between atoms: O_4  and  C_5
REMARK    4  A    between atoms: C_6  and  O_31
REMARK    5  A    between atoms: C_8  and  C_11
REMARK    6  A    between atoms: C_12  and  O_27
REMARK    7  A    between atoms: C_16  and  O_26
REMARK    8  A    between atoms: C_18  and  O_22
REMARK    9  A    between atoms: O_22  and  C_23
REMARK   10  A    between atoms: C_23  and  C_25
REMARK   11  A    between atoms: O_27  and  C_28
REMARK   12  A    between atoms: C_28  and  C_30
REMARK   13  A    between atoms: O_31  and  C_32
REMARK   14  A    between atoms: C_32  and  C_34
REMARK                            x       y       z     vdW  Elec       q    Type
REMARK                         _______ _______ _______ _____ _____    ______ ____
ROOT
ATOM      1  C   UNL     1       7.853  -0.559  24.254  0.00  0.00    +0.182 A 
ATOM      2  O   UNL     1       7.138  -1.325  25.163  0.00  0.00    -0.451 OA
ATOM      3  C   UNL     1       7.642  -2.543  25.532  0.00  0.00    +0.147 A 
ATOM      4  C   UNL     1       8.786  -3.086  24.949  0.00  0.00    +0.109 A 
ATOM      5  C   UNL     1       9.246  -4.341  25.363  0.00  0.00    +0.135 A 
ATOM      6  C   UNL     1       8.575  -5.049  26.358  0.00  0.00    +0.092 A 
ATOM      7  C   UNL     1       7.450  -4.488  26.959  0.00  0.00    +0.139 A 
ATOM      8  C   UNL     1       9.492  -2.309  23.920  0.00  0.00    +0.239 A 
ATOM      9  O   UNL     1      10.491  -2.767  23.370  0.00  0.00    -0.283 OA
ATOM     10  C   UNL     1       6.969  -3.243  26.536  0.00  0.00    +0.093 A 
ATOM     11  C   UNL     1       8.967  -0.960  23.611  0.00  0.00    +0.221 A 
ENDROOT
BRANCH   1  15
ATOM     12  C   UNL     1       6.173   3.300  23.596  0.00  0.00    +0.174 A 
ATOM     13  C   UNL     1       6.121   2.322  22.594  0.00  0.00    +0.051 A 
ATOM     14  C   UNL     1       6.669   1.064  22.818  0.00  0.00    +0.015 A 
ATOM     15  C   UNL     1       7.275   0.772  24.041  0.00  0.00    +0.025 A 
ATOM     16  C   UNL     1       7.365   1.761  25.030  0.00  0.00    +0.061 A 
ATOM     17  C   UNL     1       6.866   3.044  24.785  0.00  0.00    +0.174 A 
BRANCH  12  18
ATOM     18  O   UNL     1       5.616   4.562  23.336  0.00  0.00    -0.422 OA
BRANCH  18  20
ATOM     19  C   UNL     1       6.211   6.848  23.128  0.00  0.00    +0.136 C 
ATOM     20  C   UNL     1       6.482   5.442  22.683  0.00  0.00    +0.309 C 
ATOM     21  O   UNL     1       7.355   5.145  21.877  0.00  0.00    -0.251 OA
ENDBRANCH  18  20
ENDBRANCH  12  18
BRANCH  17  22
ATOM     22  O   UNL     1       7.042   4.093  25.716  0.00  0.00    -0.422 OA
BRANCH  22  23
ATOM     23  C   UNL     1       8.191   4.889  25.613  0.00  0.00    +0.309 C 
ATOM     24  C   UNL     1       8.107   6.052  26.554  0.00  0.00    +0.136 C 
ATOM     25  O   UNL     1       9.158   4.688  24.888  0.00  0.00    -0.251 OA
ENDBRANCH  22  23
ENDBRANCH  17  22
ENDBRANCH   1  15
BRANCH   5  26
ATOM     26  O   UNL     1      10.359  -4.938  24.833  0.00  0.00    -0.506 OA
ATOM     27  H   UNL     1      10.067  -5.687  24.266  0.00  0.00    +0.292 HD
ENDBRANCH   5  26
BRANCH   7  28
ATOM     28  O   UNL     1       6.698  -5.154  27.956  0.00  0.00    -0.426 OA
BRANCH  28  29
ATOM     29  C   UNL     1       5.791  -6.168  27.639  0.00  0.00    +0.309 C 
ATOM     30  C   UNL     1       5.108  -6.658  28.884  0.00  0.00    +0.136 C 
ATOM     31  O   UNL     1       5.564  -6.626  26.527  0.00  0.00    -0.251 OA
ENDBRANCH  28  29
ENDBRANCH   7  28
BRANCH  11  32
ATOM     32  O   UNL     1       9.748  -0.139  22.778  0.00  0.00    -0.418 OA
BRANCH  32  33
ATOM     33  C   UNL     1      10.514   0.794  23.423  0.00  0.00    +0.309 C 
ATOM     34  C   UNL     1      10.362   2.120  22.733  0.00  0.00    +0.136 C 
ATOM     35  O   UNL     1      11.201   0.615  24.421  0.00  0.00    -0.251 OA
ENDBRANCH  32  33
ENDBRANCH  11  32
TORSDOF 10
ENDMDL
MODEL 7
REMARK VINA RESULT:      -6.7      2.297      8.222
REMARK  Name = 
REMARK  14 active torsions:
REMARK  status: ('A' for Active; 'I' for Inactive)
REMARK    1  A    between atoms: C_1  and  C_2
REMARK    2  A    between atoms: C_2  and  O_4
REMARK    3  A    between atoms: O_4  and  C_5
REMARK    4  A    between atoms: C_6  and  O_31
REMARK    5  A    between atoms: C_8  and  C_11
REMARK    6  A    between atoms: C_12  and  O_27
REMARK    7  A    between atoms: C_16  and  O_26
REMARK    8  A    between atoms: C_18  and  O_22
REMARK    9  A    between atoms: O_22  and  C_23
REMARK   10  A    between atoms: C_23  and  C_25
REMARK   11  A    between atoms: O_27  and  C_28
REMARK   12  A    between atoms: C_28  and  C_30
REMARK   13  A    between atoms: O_31  and  C_32
REMARK   14  A    between atoms: C_32  and  C_34
REMARK                            x       y       z     vdW  Elec       q    Type
REMARK                         _______ _______ _______ _____ _____    ______ ____
ROOT
ATOM      1  C   UNL     1       7.782  -0.224  24.348  0.00  0.00    +0.182 A 
ATOM      2  O   UNL     1       6.560   0.430  24.400  0.00  0.00    -0.451 OA
ATOM      3  C   UNL     1       6.485   1.714  23.931  0.00  0.00    +0.147 A 
ATOM      4  C   UNL     1       7.608   2.422  23.506  0.00  0.00    +0.109 A 
ATOM      5  C   UNL     1       7.467   3.736  23.047  0.00  0.00    +0.135 A 
ATOM      6  C   UNL     1       6.212   4.341  23.002  0.00  0.00    +0.092 A 
ATOM      7  C   UNL     1       5.089   3.618  23.399  0.00  0.00    +0.139 A 
ATOM      8  C   UNL     1       8.918   1.755  23.538  0.00  0.00    +0.239 A 
ATOM      9  O   UNL     1       9.931   2.356  23.191  0.00  0.00    -0.283 OA
ATOM     10  C   UNL     1       5.223   2.311  23.881  0.00  0.00    +0.093 A 
ATOM     11  C   UNL     1       8.945   0.338  23.968  0.00  0.00    +0.221 A 
ENDROOT
BRANCH   1  15
ATOM     12  C   UNL     1       7.576  -4.300  25.568  0.00  0.00    +0.174 A 
ATOM     13  C   UNL     1       8.208  -3.347  26.378  0.00  0.00    +0.051 A 
ATOM     14  C   UNL     1       8.268  -2.019  25.974  0.00  0.00    +0.015 A 
ATOM     15  C   UNL     1       7.701  -1.630  24.759  0.00  0.00    +0.025 A 
ATOM     16  C   UNL     1       7.105  -2.588  23.928  0.00  0.00    +0.061 A 
ATOM     17  C   UNL     1       7.095  -3.934  24.306  0.00  0.00    +0.174 A 
BRANCH  12  18
ATOM     18  O   UNL     1       7.538  -5.635  26.002  0.00  0.00    -0.422 OA
BRANCH  18  20
ATOM     19  C   UNL     1       5.291  -5.836  26.731  0.00  0.00    +0.136 C 
ATOM     20  C   UNL     1       6.737  -5.845  27.127  0.00  0.00    +0.309 C 
ATOM     21  O   UNL     1       7.123  -6.028  28.275  0.00  0.00    -0.251 OA
ENDBRANCH  18  20
ENDBRANCH  12  18
BRANCH  17  22
ATOM     22  O   UNL     1       6.604  -4.938  23.441  0.00  0.00    -0.422 OA
BRANCH  22  23
ATOM     23  C   UNL     1       5.531  -4.622  22.596  0.00  0.00    +0.309 C 
ATOM     24  C   UNL     1       4.238  -4.676  23.353  0.00  0.00    +0.136 C 
ATOM     25  O   UNL     1       5.596  -4.320  21.411  0.00  0.00    -0.251 OA
ENDBRANCH  22  23
ENDBRANCH  17  22
ENDBRANCH   1  15
BRANCH   5  26
ATOM     26  O   UNL     1       8.526   4.493  22.618  0.00  0.00    -0.506 OA
ATOM     27  H   UNL     1       9.219   3.887  22.273  0.00  0.00    +0.292 HD
ENDBRANCH   5  26
BRANCH   7  28
ATOM     28  O   UNL     1       3.785   4.168  23.409  0.00  0.00    -0.426 OA
BRANCH  28  29
ATOM     29  C   UNL     1       2.684   3.460  22.921  0.00  0.00    +0.309 C 
ATOM     30  C   UNL     1       2.622   3.567  21.425  0.00  0.00    +0.136 C 
ATOM     31  O   UNL     1       1.862   2.840  23.583  0.00  0.00    -0.251 OA
ENDBRANCH  28  29
ENDBRANCH   7  28
BRANCH  11  32
ATOM     32  O   UNL     1      10.157  -0.359  23.811  0.00  0.00    -0.418 OA
BRANCH  32  33
ATOM     33  C   UNL     1      10.177  -1.284  22.802  0.00  0.00    +0.309 C 
ATOM     34  C   UNL     1       9.757  -0.625  21.519  0.00  0.00    +0.136 C 
ATOM     35  O   UNL     1      10.506  -2.460  22.894  0.00  0.00    -0.251 OA
ENDBRANCH  32  33
ENDBRANCH  11  32
TORSDOF 10
ENDMDL
MODEL 8
REMARK VINA RESULT:      -6.7      2.667      8.730
REMARK  Name = 
REMARK  14 active torsions:
REMARK  status: ('A' for Active; 'I' for Inactive)
REMARK    1  A    between atoms: C_1  and  C_2
REMARK    2  A    between atoms: C_2  and  O_4
REMARK    3  A    between atoms: O_4  and  C_5
REMARK    4  A    between atoms: C_6  and  O_31
REMARK    5  A    between atoms: C_8  and  C_11
REMARK    6  A    between atoms: C_12  and  O_27
REMARK    7  A    between atoms: C_16  and  O_26
REMARK    8  A    between atoms: C_18  and  O_22
REMARK    9  A    between atoms: O_22  and  C_23
REMARK   10  A    between atoms: C_23  and  C_25
REMARK   11  A    between atoms: O_27  and  C_28
REMARK   12  A    between atoms: C_28  and  C_30
REMARK   13  A    between atoms: O_31  and  C_32
REMARK   14  A    between atoms: C_32  and  C_34
REMARK                            x       y       z     vdW  Elec       q    Type
REMARK                         _______ _______ _______ _____ _____    ______ ____
ROOT
ATOM      1  C   UNL     1       6.395  -2.677  23.972  0.00  0.00    +0.182 A 
ATOM      2  O   UNL     1       6.203  -1.430  24.547  0.00  0.00    -0.451 OA
ATOM      3  C   UNL     1       6.890  -0.361  24.036  0.00  0.00    +0.147 A 
ATOM      4  C   UNL     1       7.851  -0.500  23.036  0.00  0.00    +0.109 A 
ATOM      5  C   UNL     1       8.527   0.630  22.563  0.00  0.00    +0.135 A 
ATOM      6  C   UNL     1       8.241   1.894  23.075  0.00  0.00    +0.092 A 
ATOM      7  C   UNL     1       7.258   2.031  24.053  0.00  0.00    +0.139 A 
ATOM      8  C   UNL     1       8.117  -1.839  22.491  0.00  0.00    +0.239 A 
ATOM      9  O   UNL     1       8.973  -2.001  21.625  0.00  0.00    -0.283 OA
ATOM     10  C   UNL     1       6.593   0.903  24.550  0.00  0.00    +0.093 A 
ATOM     11  C   UNL     1       7.292  -2.955  23.007  0.00  0.00    +0.221 A 
ENDROOT
BRANCH   1  15
ATOM     12  C   UNL     1       3.791  -5.647  25.567  0.00  0.00    +0.174 A 
ATOM     13  C   UNL     1       3.277  -4.579  24.820  0.00  0.00    +0.051 A 
ATOM     14  C   UNL     1       4.134  -3.616  24.301  0.00  0.00    +0.015 A 
ATOM     15  C   UNL     1       5.509  -3.708  24.523  0.00  0.00    +0.025 A 
ATOM     16  C   UNL     1       6.022  -4.753  25.304  0.00  0.00    +0.061 A 
ATOM     17  C   UNL     1       5.155  -5.690  25.877  0.00  0.00    +0.174 A 
BRANCH  12  18
ATOM     18  O   UNL     1       2.897  -6.599  26.083  0.00  0.00    -0.422 OA
BRANCH  18  20
ATOM     19  C   UNL     1       1.219  -8.155  25.464  0.00  0.00    +0.136 C 
ATOM     20  C   UNL     1       2.601  -7.640  25.200  0.00  0.00    +0.309 C 
ATOM     21  O   UNL     1       3.330  -8.080  24.319  0.00  0.00    -0.251 OA
ENDBRANCH  18  20
ENDBRANCH  12  18
BRANCH  17  22
ATOM     22  O   UNL     1       5.628  -6.687  26.760  0.00  0.00    -0.422 OA
BRANCH  22  23
ATOM     23  C   UNL     1       6.013  -6.303  28.052  0.00  0.00    +0.309 C 
ATOM     24  C   UNL     1       4.863  -6.447  29.003  0.00  0.00    +0.136 C 
ATOM     25  O   UNL     1       7.122  -5.919  28.401  0.00  0.00    -0.251 OA
ENDBRANCH  22  23
ENDBRANCH  17  22
ENDBRANCH   1  15
BRANCH   5  26
ATOM     26  O   UNL     1       9.486   0.570  21.585  0.00  0.00    -0.506 OA
ATOM     27  H   UNL     1       9.168  -0.034  20.878  0.00  0.00    +0.292 HD
ENDBRANCH   5  26
BRANCH   7  28
ATOM     28  O   UNL     1       6.929   3.273  24.644  0.00  0.00    -0.426 OA
BRANCH  28  29
ATOM     29  C   UNL     1       7.643   3.784  25.731  0.00  0.00    +0.309 C 
ATOM     30  C   UNL     1       8.598   4.846  25.268  0.00  0.00    +0.136 C 
ATOM     31  O   UNL     1       7.542   3.438  26.900  0.00  0.00    -0.251 OA
ENDBRANCH  28  29
ENDBRANCH   7  28
BRANCH  11  32
ATOM     32  O   UNL     1       7.403  -4.195  22.352  0.00  0.00    -0.418 OA
BRANCH  32  33
ATOM     33  C   UNL     1       6.363  -4.517  21.523  0.00  0.00    +0.309 C 
ATOM     34  C   UNL     1       6.137  -6.002  21.569  0.00  0.00    +0.136 C 
ATOM     35  O   UNL     1       5.687  -3.741  20.859  0.00  0.00    -0.251 OA
ENDBRANCH  32  33
ENDBRANCH  11  32
TORSDOF 10
ENDMDL
MODEL 9
REMARK VINA RESULT:      -6.5      2.647      8.613
REMARK  Name = 
REMARK  14 active torsions:
REMARK  status: ('A' for Active; 'I' for Inactive)
REMARK    1  A    between atoms: C_1  and  C_2
REMARK    2  A    between atoms: C_2  and  O_4
REMARK    3  A    between atoms: O_4  and  C_5
REMARK    4  A    between atoms: C_6  and  O_31
REMARK    5  A    between atoms: C_8  and  C_11
REMARK    6  A    between atoms: C_12  and  O_27
REMARK    7  A    between atoms: C_16  and  O_26
REMARK    8  A    between atoms: C_18  and  O_22
REMARK    9  A    between atoms: O_22  and  C_23
REMARK   10  A    between atoms: C_23  and  C_25
REMARK   11  A    between atoms: O_27  and  C_28
REMARK   12  A    between atoms: C_28  and  C_30
REMARK   13  A    between atoms: O_31  and  C_32
REMARK   14  A    between atoms: C_32  and  C_34
REMARK                            x       y       z     vdW  Elec       q    Type
REMARK                         _______ _______ _______ _____ _____    ______ ____
ROOT
ATOM      1  C   UNL     1       7.137  -0.740  24.317  0.00  0.00    +0.182 A 
ATOM      2  O   UNL     1       6.623   0.411  23.739  0.00  0.00    -0.451 OA
ATOM      3  C   UNL     1       7.469   1.464  23.513  0.00  0.00    +0.147 A 
ATOM      4  C   UNL     1       8.795   1.461  23.940  0.00  0.00    +0.109 A 
ATOM      5  C   UNL     1       9.607   2.573  23.688  0.00  0.00    +0.135 A 
ATOM      6  C   UNL     1       9.103   3.679  23.006  0.00  0.00    +0.092 A 
ATOM      7  C   UNL     1       7.784   3.663  22.556  0.00  0.00    +0.139 A 
ATOM      8  C   UNL     1       9.313   0.273  24.634  0.00  0.00    +0.239 A 
ATOM      9  O   UNL     1      10.471   0.245  25.042  0.00  0.00    -0.283 OA
ATOM     10  C   UNL     1       6.958   2.566  22.823  0.00  0.00    +0.093 A 
ATOM     11  C   UNL     1       8.394  -0.879  24.781  0.00  0.00    +0.221 A 
ENDROOT
BRANCH   1  15
ATOM     12  C   UNL     1       4.309  -3.917  24.559  0.00  0.00    +0.174 A 
ATOM     13  C   UNL     1       4.565  -3.106  25.673  0.00  0.00    +0.051 A 
ATOM     14  C   UNL     1       5.487  -2.070  25.585  0.00  0.00    +0.015 A 
ATOM     15  C   UNL     1       6.163  -1.835  24.387  0.00  0.00    +0.025 A 
ATOM     16  C   UNL     1       5.940  -2.669  23.283  0.00  0.00    +0.061 A 
ATOM     17  C   UNL     1       5.056  -3.748  23.388  0.00  0.00    +0.174 A 
BRANCH  12  18
ATOM     18  O   UNL     1       3.377  -4.959  24.684  0.00  0.00    -0.422 OA
BRANCH  18  20
ATOM     19  C   UNL     1       3.438  -7.304  24.334  0.00  0.00    +0.136 C 
ATOM     20  C   UNL     1       3.919  -6.153  25.165  0.00  0.00    +0.309 C 
ATOM     21  O   UNL     1       4.688  -6.278  26.111  0.00  0.00    -0.251 OA
ENDBRANCH  18  20
ENDBRANCH  12  18
BRANCH  17  22
ATOM     22  O   UNL     1       4.895  -4.673  22.332  0.00  0.00    -0.422 OA
BRANCH  22  23
ATOM     23  C   UNL     1       5.930  -5.585  22.083  0.00  0.00    +0.309 C 
ATOM     24  C   UNL     1       6.036  -5.866  20.614  0.00  0.00    +0.136 C 
ATOM     25  O   UNL     1       6.677  -6.089  22.912  0.00  0.00    -0.251 OA
ENDBRANCH  22  23
ENDBRANCH  17  22
ENDBRANCH   1  15
BRANCH   5  26
ATOM     26  O   UNL     1      10.918   2.643  24.080  0.00  0.00    -0.506 OA
ATOM     27  H   UNL     1      10.995   3.334  24.776  0.00  0.00    +0.292 HD
ENDBRANCH   5  26
BRANCH   7  28
ATOM     28  O   UNL     1       7.190   4.756  21.881  0.00  0.00    -0.426 OA
BRANCH  28  29
ATOM     29  C   UNL     1       6.590   5.810  22.574  0.00  0.00    +0.309 C 
ATOM     30  C   UNL     1       6.846   7.108  21.864  0.00  0.00    +0.136 C 
ATOM     31  O   UNL     1       5.949   5.732  23.614  0.00  0.00    -0.251 OA
ENDBRANCH  28  29
ENDBRANCH   7  28
BRANCH  11  32
ATOM     32  O   UNL     1       8.940  -2.082  25.262  0.00  0.00    -0.418 OA
BRANCH  32  33
ATOM     33  C   UNL     1       9.437  -2.926  24.306  0.00  0.00    +0.309 C 
ATOM     34  C   UNL     1       9.121  -4.345  24.687  0.00  0.00    +0.136 C 
ATOM     35  O   UNL     1      10.024  -2.607  23.280  0.00  0.00    -0.251 OA
ENDBRANCH  32  33
ENDBRANCH  11  32
TORSDOF 10
ENDMDL
