MODEL 1
REMARK VINA RESULT:      -7.9      0.000      0.000
REMARK  Name = 
REMARK  23 active torsions:
REMARK  status: ('A' for Active; 'I' for Inactive)
REMARK    1  A    between atoms: C_1  and  C_2
REMARK    2  A    between atoms: C_4  and  O_69
REMARK    3  A    between atoms: C_6  and  O_52
REMARK    4  A    between atoms: C_8  and  O_51
REMARK    5  A    between atoms: C_10  and  O_13
REMARK    6  A    between atoms: O_13  and  C_14
REMARK    7  A    between atoms: C_14  and  C_15
REMARK    8  A    between atoms: C_17  and  O_50
REMARK    9  A    between atoms: C_19  and  O_49
REMARK   10  A    between atoms: C_21  and  O_48
REMARK   11  A    between atoms: C_23  and  O_26
REMARK   12  A    between atoms: O_26  and  C_27
REMARK   13  A    between atoms: C_28  and  C_40
REMARK   14  A    between atoms: C_32  and  O_39
REMARK   15  A    between atoms: C_34  and  O_38
REMARK   16  A    between atoms: C_42  and  O_47
REMARK   17  A    between atoms: C_43  and  O_46
REMARK   18  A    between atoms: O_52  and  C_53
REMARK   19  A    between atoms: C_55  and  O_68
REMARK   20  A    between atoms: C_57  and  O_67
REMARK   21  A    between atoms: C_59  and  O_66
REMARK   22  A    between atoms: C_61  and  C_64
REMARK   23  A    between atoms: C_64  and  O_65
REMARK                            x       y       z     vdW  Elec       q    Type
REMARK                         _______ _______ _______ _____ _____    ______ ____
ROOT
ATOM      1  C   UNL     1       6.310  -0.196  26.567  0.00  0.00    +0.179 C 
ATOM      2  O   UNL     1       6.313   0.184  25.176  0.00  0.00    -0.331 OA
ATOM      3  C   UNL     1       6.124   1.600  25.034  0.00  0.00    +0.340 C 
ATOM      4  C   UNL     1       4.634   1.867  25.355  0.00  0.00    +0.214 C 
ATOM      5  C   UNL     1       4.438   1.420  26.840  0.00  0.00    +0.180 C 
ATOM      6  C   UNL     1       4.891  -0.036  27.105  0.00  0.00    +0.177 C 
ENDROOT
BRANCH   4   7
ATOM      7  O   UNL     1       4.317   3.257  25.187  0.00  0.00    -0.383 OA
ATOM      8  H   UNL     1       3.489   3.438  25.663  0.00  0.00    +0.210 HD
ENDBRANCH   4   7
BRANCH   6   9
ATOM      9  O   UNL     1       4.811  -0.264  28.519  0.00  0.00    -0.386 OA
ATOM     10  H   UNL     1       4.533   0.563  28.950  0.00  0.00    +0.210 HD
ENDBRANCH   6   9
BRANCH   5  11
ATOM     11  O   UNL     1       3.086   1.579  27.283  0.00  0.00    -0.386 OA
ATOM     12  H   UNL     1       2.545   1.465  26.473  0.00  0.00    +0.210 HD
ENDBRANCH   5  11
BRANCH   3  13
ATOM     13  O   UNL     1       6.623   2.050  23.748  0.00  0.00    -0.453 OA
BRANCH  13  14
ATOM     14  C   UNL     1       7.987   2.429  23.756  0.00  0.00    +0.214 A 
ATOM     15  C   UNL     1       8.394   3.822  24.170  0.00  0.00    +0.238 A 
ATOM     16  O   UNL     1       7.691   4.557  24.845  0.00  0.00    -0.283 OA
ATOM     17  C   UNL     1       9.703   4.335  23.841  0.00  0.00    +0.109 A 
ATOM     18  C   UNL     1      10.657   3.398  23.517  0.00  0.00    +0.147 A 
ATOM     19  C   UNL     1      11.976   3.808  23.326  0.00  0.00    +0.092 A 
ATOM     20  C   UNL     1      12.299   5.167  23.464  0.00  0.00    +0.124 A 
ATOM     21  C   UNL     1      11.339   6.110  23.786  0.00  0.00    +0.091 A 
ATOM     22  O   UNL     1      10.365   2.066  23.424  0.00  0.00    -0.451 OA
ATOM     23  C   UNL     1      10.030   5.697  23.961  0.00  0.00    +0.135 A 
ATOM     24  C   UNL     1       9.035   1.598  23.490  0.00  0.00    +0.181 A 
BRANCH  24  25
ATOM     25  C   UNL     1       9.021   0.090  23.332  0.00  0.00    +0.025 A 
ATOM     26  C   UNL     1      10.028  -0.668  23.995  0.00  0.00    +0.015 A 
ATOM     27  C   UNL     1       9.986  -2.064  24.103  0.00  0.00    +0.050 A 
ATOM     28  C   UNL     1       8.941  -2.742  23.517  0.00  0.00    +0.158 A 
ATOM     29  C   UNL     1       8.001  -2.050  22.762  0.00  0.00    +0.159 A 
ATOM     30  C   UNL     1       8.026  -0.649  22.668  0.00  0.00    +0.060 A 
BRANCH  29  31
ATOM     31  O   UNL     1       7.050  -2.800  22.122  0.00  0.00    -0.503 OA
ATOM     32  H   UNL     1       6.285  -2.864  22.721  0.00  0.00    +0.292 HD
ENDBRANCH  29  31
BRANCH  28  33
ATOM     33  O   UNL     1       8.839  -4.091  23.696  0.00  0.00    -0.503 OA
ATOM     34  H   UNL     1       8.199  -4.195  24.427  0.00  0.00    +0.292 HD
ENDBRANCH  28  33
ENDBRANCH  24  25
BRANCH  23  35
ATOM     35  O   UNL     1       9.077   6.639  24.231  0.00  0.00    -0.506 OA
ATOM     36  H   UNL     1       9.063   6.838  25.181  0.00  0.00    +0.292 HD
ENDBRANCH  23  35
BRANCH  20  37
ATOM     37  O   UNL     1      13.572   5.619  23.299  0.00  0.00    -0.507 OA
ATOM     38  H   UNL     1      13.548   6.529  22.970  0.00  0.00    +0.292 HD
ENDBRANCH  20  37
ENDBRANCH  13  14
ENDBRANCH   3  13
BRANCH   1  39
ATOM     39  C   UNL     1       6.911  -1.600  26.692  0.00  0.00    +0.197 C 
BRANCH  39  40
ATOM     40  O   UNL     1       6.249  -2.417  25.728  0.00  0.00    -0.346 OA
BRANCH  40  44
ATOM     41  C   UNL     1       3.093  -4.277  28.015  0.00  0.00    +0.041 C 
ATOM     42  C   UNL     1       4.583  -4.334  28.329  0.00  0.00    +0.149 C 
ATOM     43  O   UNL     1       5.295  -3.275  27.673  0.00  0.00    -0.343 OA
ATOM     44  C   UNL     1       5.437  -3.449  26.263  0.00  0.00    +0.282 C 
ATOM     45  C   UNL     1       6.196  -4.752  25.941  0.00  0.00    +0.202 C 
ATOM     46  C   UNL     1       5.462  -5.951  26.551  0.00  0.00    +0.186 C 
ATOM     47  C   UNL     1       5.269  -5.692  28.059  0.00  0.00    +0.174 C 
BRANCH  47  48
ATOM     48  O   UNL     1       6.552  -5.702  28.705  0.00  0.00    -0.387 OA
ATOM     49  H   UNL     1       6.859  -4.776  28.762  0.00  0.00    +0.210 HD
ENDBRANCH  47  48
BRANCH  45  50
ATOM     50  O   UNL     1       6.410  -4.935  24.536  0.00  0.00    -0.384 OA
ATOM     51  H   UNL     1       6.090  -4.112  24.109  0.00  0.00    +0.210 HD
ENDBRANCH  45  50
BRANCH  46  52
ATOM     52  O   UNL     1       4.154  -6.218  26.021  0.00  0.00    -0.340 OA
BRANCH  52  53
ATOM     53  C   UNL     1       3.934  -7.435  25.316  0.00  0.00    +0.282 C 
ATOM     54  O   UNL     1       4.182  -7.216  23.918  0.00  0.00    -0.341 OA
ATOM     55  C   UNL     1       3.232  -6.395  23.213  0.00  0.00    +0.178 C 
ATOM     56  C   UNL     1       1.791  -6.890  23.432  0.00  0.00    +0.177 C 
ATOM     57  C   UNL     1       1.470  -7.117  24.912  0.00  0.00    +0.179 C 
ATOM     58  C   UNL     1       2.530  -8.028  25.556  0.00  0.00    +0.201 C 
BRANCH  58  59
ATOM     59  O   UNL     1       2.431  -9.350  25.001  0.00  0.00    -0.384 OA
ATOM     60  H   UNL     1       2.282  -9.959  25.753  0.00  0.00    +0.210 HD
ENDBRANCH  58  59
BRANCH  57  61
ATOM     61  O   UNL     1       1.316  -5.871  25.598  0.00  0.00    -0.386 OA
ATOM     62  H   UNL     1       2.198  -5.487  25.754  0.00  0.00    +0.210 HD
ENDBRANCH  57  61
BRANCH  56  63
ATOM     63  O   UNL     1       1.654  -8.134  22.715  0.00  0.00    -0.386 OA
ATOM     64  H   UNL     1       2.547  -8.492  22.556  0.00  0.00    +0.210 HD
ENDBRANCH  56  63
BRANCH  55  65
ATOM     65  C   UNL     1       3.425  -4.889  23.471  0.00  0.00    +0.190 C 
BRANCH  65  66
ATOM     66  O   UNL     1       4.460  -4.326  22.662  0.00  0.00    -0.392 OA
ATOM     67  H   UNL     1       4.655  -3.436  23.002  0.00  0.00    +0.210 HD
ENDBRANCH  65  66
ENDBRANCH  55  65
ENDBRANCH  52  53
ENDBRANCH  46  52
ENDBRANCH  40  44
ENDBRANCH  39  40
ENDBRANCH   1  39
TORSDOF 22
ENDMDL
MODEL 2
REMARK VINA RESULT:      -7.8      1.969      5.248
REMARK  Name = 
REMARK  23 active torsions:
REMARK  status: ('A' for Active; 'I' for Inactive)
REMARK    1  A    between atoms: C_1  and  C_2
REMARK    2  A    between atoms: C_4  and  O_69
REMARK    3  A    between atoms: C_6  and  O_52
REMARK    4  A    between atoms: C_8  and  O_51
REMARK    5  A    between atoms: C_10  and  O_13
REMARK    6  A    between atoms: O_13  and  C_14
REMARK    7  A    between atoms: C_14  and  C_15
REMARK    8  A    between atoms: C_17  and  O_50
REMARK    9  A    between atoms: C_19  and  O_49
REMARK   10  A    between atoms: C_21  and  O_48
REMARK   11  A    between atoms: C_23  and  O_26
REMARK   12  A    between atoms: O_26  and  C_27
REMARK   13  A    between atoms: C_28  and  C_40
REMARK   14  A    between atoms: C_32  and  O_39
REMARK   15  A    between atoms: C_34  and  O_38
REMARK   16  A    between atoms: C_42  and  O_47
REMARK   17  A    between atoms: C_43  and  O_46
REMARK   18  A    between atoms: O_52  and  C_53
REMARK   19  A    between atoms: C_55  and  O_68
REMARK   20  A    between atoms: C_57  and  O_67
REMARK   21  A    between atoms: C_59  and  O_66
REMARK   22  A    between atoms: C_61  and  C_64
REMARK   23  A    between atoms: C_64  and  O_65
REMARK                            x       y       z     vdW  Elec       q    Type
REMARK                         _______ _______ _______ _____ _____    ______ ____
ROOT
ATOM      1  C   UNL     1       7.233  -0.665  23.824  0.00  0.00    +0.179 C 
ATOM      2  O   UNL     1       7.911   0.358  24.580  0.00  0.00    -0.331 OA
ATOM      3  C   UNL     1       8.521   1.320  23.707  0.00  0.00    +0.340 C 
ATOM      4  C   UNL     1       9.754   0.618  23.091  0.00  0.00    +0.214 C 
ATOM      5  C   UNL     1       9.187  -0.596  22.284  0.00  0.00    +0.180 C 
ATOM      6  C   UNL     1       8.287  -1.526  23.132  0.00  0.00    +0.177 C 
ENDROOT
BRANCH   4   7
ATOM      7  O   UNL     1      10.478   1.515  22.236  0.00  0.00    -0.383 OA
ATOM      8  H   UNL     1      10.664   1.052  21.400  0.00  0.00    +0.210 HD
ENDBRANCH   4   7
BRANCH   6   9
ATOM      9  O   UNL     1       7.708  -2.495  22.246  0.00  0.00    -0.386 OA
ATOM     10  H   UNL     1       8.396  -2.796  21.626  0.00  0.00    +0.210 HD
ENDBRANCH   6   9
BRANCH   5  11
ATOM     11  O   UNL     1      10.221  -1.373  21.671  0.00  0.00    -0.386 OA
ATOM     12  H   UNL     1      10.743  -0.726  21.153  0.00  0.00    +0.210 HD
ENDBRANCH   5  11
BRANCH   3  13
ATOM     13  O   UNL     1       8.742   2.571  24.407  0.00  0.00    -0.453 OA
BRANCH  13  14
ATOM     14  C   UNL     1       7.851   3.608  24.040  0.00  0.00    +0.214 A 
ATOM     15  C   UNL     1       6.370   3.339  23.921  0.00  0.00    +0.238 A 
ATOM     16  O   UNL     1       5.811   2.397  24.459  0.00  0.00    -0.283 OA
ATOM     17  C   UNL     1       5.512   4.255  23.208  0.00  0.00    +0.109 A 
ATOM     18  C   UNL     1       6.007   5.524  23.012  0.00  0.00    +0.147 A 
ATOM     19  C   UNL     1       5.181   6.500  22.458  0.00  0.00    +0.092 A 
ATOM     20  C   UNL     1       3.863   6.165  22.108  0.00  0.00    +0.124 A 
ATOM     21  C   UNL     1       3.364   4.889  22.301  0.00  0.00    +0.091 A 
ATOM     22  O   UNL     1       7.273   5.874  23.390  0.00  0.00    -0.451 OA
ATOM     23  C   UNL     1       4.196   3.922  22.840  0.00  0.00    +0.135 A 
ATOM     24  C   UNL     1       8.199   4.912  23.848  0.00  0.00    +0.181 A 
BRANCH  24  25
ATOM     25  C   UNL     1       9.518   5.589  24.166  0.00  0.00    +0.025 A 
ATOM     26  C   UNL     1       9.538   6.580  25.189  0.00  0.00    +0.015 A 
ATOM     27  C   UNL     1      10.724   7.107  25.716  0.00  0.00    +0.050 A 
ATOM     28  C   UNL     1      11.927   6.673  25.205  0.00  0.00    +0.158 A 
ATOM     29  C   UNL     1      11.946   5.795  24.128  0.00  0.00    +0.159 A 
ATOM     30  C   UNL     1      10.762   5.246  23.610  0.00  0.00    +0.060 A 
BRANCH  29  31
ATOM     31  O   UNL     1      13.174   5.487  23.605  0.00  0.00    -0.503 OA
ATOM     32  H   UNL     1      13.827   6.053  24.054  0.00  0.00    +0.292 HD
ENDBRANCH  29  31
BRANCH  28  33
ATOM     33  O   UNL     1      13.088   7.108  25.776  0.00  0.00    -0.503 OA
ATOM     34  H   UNL     1      13.546   7.595  25.062  0.00  0.00    +0.292 HD
ENDBRANCH  28  33
ENDBRANCH  24  25
BRANCH  23  35
ATOM     35  O   UNL     1       3.715   2.650  22.983  0.00  0.00    -0.506 OA
ATOM     36  H   UNL     1       3.132   2.429  22.238  0.00  0.00    +0.292 HD
ENDBRANCH  23  35
BRANCH  20  37
ATOM     37  O   UNL     1       3.011   7.082  21.574  0.00  0.00    -0.507 OA
ATOM     38  H   UNL     1       2.854   7.786  22.219  0.00  0.00    +0.292 HD
ENDBRANCH  20  37
ENDBRANCH  13  14
ENDBRANCH   3  13
BRANCH   1  39
ATOM     39  C   UNL     1       6.277  -1.413  24.758  0.00  0.00    +0.197 C 
BRANCH  39  40
ATOM     40  O   UNL     1       7.020  -2.488  25.331  0.00  0.00    -0.346 OA
BRANCH  40  44
ATOM     41  C   UNL     1       4.182  -4.324  28.018  0.00  0.00    +0.041 C 
ATOM     42  C   UNL     1       5.697  -4.489  28.062  0.00  0.00    +0.149 C 
ATOM     43  O   UNL     1       6.357  -3.429  27.357  0.00  0.00    -0.343 OA
ATOM     44  C   UNL     1       6.243  -3.508  25.936  0.00  0.00    +0.282 C 
ATOM     45  C   UNL     1       6.844  -4.826  25.406  0.00  0.00    +0.202 C 
ATOM     46  C   UNL     1       6.144  -6.022  26.061  0.00  0.00    +0.186 C 
ATOM     47  C   UNL     1       6.231  -5.861  27.593  0.00  0.00    +0.174 C 
BRANCH  47  48
ATOM     48  O   UNL     1       7.602  -5.991  28.002  0.00  0.00    -0.387 OA
ATOM     49  H   UNL     1       7.863  -5.149  28.423  0.00  0.00    +0.210 HD
ENDBRANCH  47  48
BRANCH  45  50
ATOM     50  O   UNL     1       6.801  -4.918  23.977  0.00  0.00    -0.384 OA
ATOM     51  H   UNL     1       6.169  -4.227  23.685  0.00  0.00    +0.210 HD
ENDBRANCH  45  50
BRANCH  46  52
ATOM     52  O   UNL     1       4.749  -6.174  25.754  0.00  0.00    -0.340 OA
BRANCH  52  53
ATOM     53  C   UNL     1       4.326  -7.333  25.045  0.00  0.00    +0.282 C 
ATOM     54  O   UNL     1       4.425  -7.081  23.634  0.00  0.00    -0.341 OA
ATOM     55  C   UNL     1       3.484  -6.143  23.077  0.00  0.00    +0.178 C 
ATOM     56  C   UNL     1       2.038  -6.507  23.458  0.00  0.00    +0.177 C 
ATOM     57  C   UNL     1       1.875  -6.764  24.959  0.00  0.00    +0.179 C 
ATOM     58  C   UNL     1       2.909  -7.799  25.439  0.00  0.00    +0.201 C 
BRANCH  58  59
ATOM     59  O   UNL     1       2.612  -9.080  24.861  0.00  0.00    -0.384 OA
ATOM     60  H   UNL     1       1.637  -9.144  24.803  0.00  0.00    +0.210 HD
ENDBRANCH  58  59
BRANCH  57  61
ATOM     61  O   UNL     1       1.930  -5.539  25.696  0.00  0.00    -0.386 OA
ATOM     62  H   UNL     1       1.358  -5.620  26.481  0.00  0.00    +0.210 HD
ENDBRANCH  57  61
BRANCH  56  63
ATOM     63  O   UNL     1       1.692  -7.700  22.725  0.00  0.00    -0.386 OA
ATOM     64  H   UNL     1       1.742  -8.457  23.339  0.00  0.00    +0.210 HD
ENDBRANCH  56  63
BRANCH  55  65
ATOM     65  C   UNL     1       3.857  -4.674  23.355  0.00  0.00    +0.190 C 
BRANCH  65  66
ATOM     66  O   UNL     1       4.724  -4.135  22.356  0.00  0.00    -0.392 OA
ATOM     67  H   UNL     1       5.201  -3.382  22.748  0.00  0.00    +0.210 HD
ENDBRANCH  65  66
ENDBRANCH  55  65
ENDBRANCH  52  53
ENDBRANCH  46  52
ENDBRANCH  40  44
ENDBRANCH  39  40
ENDBRANCH   1  39
TORSDOF 22
ENDMDL
MODEL 3
REMARK VINA RESULT:      -7.7      2.068      9.515
REMARK  Name = 
REMARK  23 active torsions:
REMARK  status: ('A' for Active; 'I' for Inactive)
REMARK    1  A    between atoms: C_1  and  C_2
REMARK    2  A    between atoms: C_4  and  O_69
REMARK    3  A    between atoms: C_6  and  O_52
REMARK    4  A    between atoms: C_8  and  O_51
REMARK    5  A    between atoms: C_10  and  O_13
REMARK    6  A    between atoms: O_13  and  C_14
REMARK    7  A    between atoms: C_14  and  C_15
REMARK    8  A    between atoms: C_17  and  O_50
REMARK    9  A    between atoms: C_19  and  O_49
REMARK   10  A    between atoms: C_21  and  O_48
REMARK   11  A    between atoms: C_23  and  O_26
REMARK   12  A    between atoms: O_26  and  C_27
REMARK   13  A    between atoms: C_28  and  C_40
REMARK   14  A    between atoms: C_32  and  O_39
REMARK   15  A    between atoms: C_34  and  O_38
REMARK   16  A    between atoms: C_42  and  O_47
REMARK   17  A    between atoms: C_43  and  O_46
REMARK   18  A    between atoms: O_52  and  C_53
REMARK   19  A    between atoms: C_55  and  O_68
REMARK   20  A    between atoms: C_57  and  O_67
REMARK   21  A    between atoms: C_59  and  O_66
REMARK   22  A    between atoms: C_61  and  C_64
REMARK   23  A    between atoms: C_64  and  O_65
REMARK                            x       y       z     vdW  Elec       q    Type
REMARK                         _______ _______ _______ _____ _____    ______ ____
ROOT
ATOM      1  C   UNL     1       7.519  -3.205  24.194  0.00  0.00    +0.179 C 
ATOM      2  O   UNL     1       6.492  -4.098  24.667  0.00  0.00    -0.331 OA
ATOM      3  C   UNL     1       6.699  -4.429  26.048  0.00  0.00    +0.340 C 
ATOM      4  C   UNL     1       7.899  -5.403  26.079  0.00  0.00    +0.214 C 
ATOM      5  C   UNL     1       9.110  -4.597  25.506  0.00  0.00    +0.180 C 
ATOM      6  C   UNL     1       8.831  -3.983  24.114  0.00  0.00    +0.177 C 
ENDROOT
BRANCH   4   7
ATOM      7  O   UNL     1       8.161  -5.848  27.419  0.00  0.00    -0.383 OA
ATOM      8  H   UNL     1       9.099  -5.678  27.616  0.00  0.00    +0.210 HD
ENDBRANCH   4   7
BRANCH   6   9
ATOM      9  O   UNL     1       9.946  -3.145  23.778  0.00  0.00    -0.386 OA
ATOM     10  H   UNL     1       9.768  -2.725  22.917  0.00  0.00    +0.210 HD
ENDBRANCH   6   9
BRANCH   5  11
ATOM     11  O   UNL     1      10.305  -5.382  25.441  0.00  0.00    -0.386 OA
ATOM     12  H   UNL     1      10.768  -5.063  24.639  0.00  0.00    +0.210 HD
ENDBRANCH   5  11
BRANCH   3  13
ATOM     13  O   UNL     1       5.457  -4.875  26.653  0.00  0.00    -0.453 OA
BRANCH  13  14
ATOM     14  C   UNL     1       4.422  -3.909  26.631  0.00  0.00    +0.214 A 
ATOM     15  C   UNL     1       4.675  -2.502  27.116  0.00  0.00    +0.238 A 
ATOM     16  O   UNL     1       5.787  -2.006  27.195  0.00  0.00    -0.283 OA
ATOM     17  C   UNL     1       3.574  -1.628  27.443  0.00  0.00    +0.109 A 
ATOM     18  C   UNL     1       2.347  -1.976  26.924  0.00  0.00    +0.147 A 
ATOM     19  C   UNL     1       1.270  -1.105  27.080  0.00  0.00    +0.092 A 
ATOM     20  C   UNL     1       1.459   0.104  27.768  0.00  0.00    +0.124 A 
ATOM     21  C   UNL     1       2.691   0.453  28.293  0.00  0.00    +0.091 A 
ATOM     22  O   UNL     1       2.161  -3.129  26.213  0.00  0.00    -0.451 OA
ATOM     23  C   UNL     1       3.752  -0.423  28.144  0.00  0.00    +0.135 A 
ATOM     24  C   UNL     1       3.174  -4.107  26.117  0.00  0.00    +0.181 A 
BRANCH  24  25
ATOM     25  C   UNL     1       2.672  -5.277  25.294  0.00  0.00    +0.025 A 
ATOM     26  C   UNL     1       2.112  -5.010  24.012  0.00  0.00    +0.015 A 
ATOM     27  C   UNL     1       1.822  -6.015  23.082  0.00  0.00    +0.050 A 
ATOM     28  C   UNL     1       2.060  -7.326  23.428  0.00  0.00    +0.158 A 
ATOM     29  C   UNL     1       2.497  -7.637  24.710  0.00  0.00    +0.159 A 
ATOM     30  C   UNL     1       2.809  -6.632  25.640  0.00  0.00    +0.060 A 
BRANCH  29  31
ATOM     31  O   UNL     1       2.613  -8.967  25.017  0.00  0.00    -0.503 OA
ATOM     32  H   UNL     1       3.321  -9.330  24.457  0.00  0.00    +0.292 HD
ENDBRANCH  29  31
BRANCH  28  33
ATOM     33  O   UNL     1       1.872  -8.306  22.496  0.00  0.00    -0.503 OA
ATOM     34  H   UNL     1       2.770  -8.512  22.169  0.00  0.00    +0.292 HD
ENDBRANCH  28  33
ENDBRANCH  24  25
BRANCH  23  35
ATOM     35  O   UNL     1       4.954  -0.096  28.708  0.00  0.00    -0.506 OA
ATOM     36  H   UNL     1       5.649  -0.085  28.030  0.00  0.00    +0.292 HD
ENDBRANCH  23  35
BRANCH  20  37
ATOM     37  O   UNL     1       0.444   0.994  27.940  0.00  0.00    -0.507 OA
ATOM     38  H   UNL     1      -0.403   0.533  27.853  0.00  0.00    +0.292 HD
ENDBRANCH  20  37
ENDBRANCH  13  14
ENDBRANCH   3  13
BRANCH   1  39
ATOM     39  C   UNL     1       7.049  -2.566  22.883  0.00  0.00    +0.197 C 
BRANCH  39  40
ATOM     40  O   UNL     1       6.495  -1.295  23.222  0.00  0.00    -0.346 OA
BRANCH  40  44
ATOM     41  C   UNL     1       9.394   1.558  21.772  0.00  0.00    +0.041 C 
ATOM     42  C   UNL     1       9.680   0.376  22.690  0.00  0.00    +0.149 C 
ATOM     43  O   UNL     1       8.637  -0.606  22.615  0.00  0.00    -0.343 OA
ATOM     44  C   UNL     1       7.418  -0.219  23.251  0.00  0.00    +0.282 C 
ATOM     45  C   UNL     1       7.644   0.065  24.749  0.00  0.00    +0.202 C 
ATOM     46  C   UNL     1       8.703   1.160  24.922  0.00  0.00    +0.186 C 
ATOM     47  C   UNL     1       9.976   0.733  24.164  0.00  0.00    +0.174 C 
BRANCH  47  48
ATOM     48  O   UNL     1      10.549  -0.413  24.815  0.00  0.00    -0.387 OA
ATOM     49  H   UNL     1      11.480  -0.478  24.526  0.00  0.00    +0.210 HD
ENDBRANCH  47  48
BRANCH  45  50
ATOM     50  O   UNL     1       6.433   0.401  25.437  0.00  0.00    -0.384 OA
ATOM     51  H   UNL     1       6.649   1.181  25.991  0.00  0.00    +0.210 HD
ENDBRANCH  45  50
BRANCH  46  52
ATOM     52  O   UNL     1       8.350   2.456  24.412  0.00  0.00    -0.340 OA
BRANCH  52  53
ATOM     53  C   UNL     1       8.065   3.501  25.335  0.00  0.00    +0.282 C 
ATOM     54  O   UNL     1       6.643   3.582  25.526  0.00  0.00    -0.341 OA
ATOM     55  C   UNL     1       5.868   4.070  24.415  0.00  0.00    +0.178 C 
ATOM     56  C   UNL     1       6.417   5.411  23.894  0.00  0.00    +0.177 C 
ATOM     57  C   UNL     1       7.929   5.369  23.653  0.00  0.00    +0.179 C 
ATOM     58  C   UNL     1       8.657   4.861  24.911  0.00  0.00    +0.201 C 
BRANCH  58  59
ATOM     59  O   UNL     1       8.529   5.828  25.965  0.00  0.00    -0.384 OA
ATOM     60  H   UNL     1       7.629   5.720  26.337  0.00  0.00    +0.210 HD
ENDBRANCH  58  59
BRANCH  57  61
ATOM     61  O   UNL     1       8.238   4.605  22.484  0.00  0.00    -0.386 OA
ATOM     62  H   UNL     1       7.446   4.105  22.216  0.00  0.00    +0.210 HD
ENDBRANCH  57  61
BRANCH  56  63
ATOM     63  O   UNL     1       6.117   6.410  24.890  0.00  0.00    -0.386 OA
ATOM     64  H   UNL     1       6.611   7.220  24.665  0.00  0.00    +0.210 HD
ENDBRANCH  56  63
BRANCH  55  65
ATOM     65  C   UNL     1       5.649   3.011  23.318  0.00  0.00    +0.190 C 
BRANCH  65  66
ATOM     66  O   UNL     1       4.693   2.021  23.700  0.00  0.00    -0.392 OA
ATOM     67  H   UNL     1       4.630   1.372  22.978  0.00  0.00    +0.210 HD
ENDBRANCH  65  66
ENDBRANCH  55  65
ENDBRANCH  52  53
ENDBRANCH  46  52
ENDBRANCH  40  44
ENDBRANCH  39  40
ENDBRANCH   1  39
TORSDOF 22
ENDMDL
MODEL 4
REMARK VINA RESULT:      -7.3      2.012      8.426
REMARK  Name = 
REMARK  23 active torsions:
REMARK  status: ('A' for Active; 'I' for Inactive)
REMARK    1  A    between atoms: C_1  and  C_2
REMARK    2  A    between atoms: C_4  and  O_69
REMARK    3  A    between atoms: C_6  and  O_52
REMARK    4  A    between atoms: C_8  and  O_51
REMARK    5  A    between atoms: C_10  and  O_13
REMARK    6  A    between atoms: O_13  and  C_14
REMARK    7  A    between atoms: C_14  and  C_15
REMARK    8  A    between atoms: C_17  and  O_50
REMARK    9  A    between atoms: C_19  and  O_49
REMARK   10  A    between atoms: C_21  and  O_48
REMARK   11  A    between atoms: C_23  and  O_26
REMARK   12  A    between atoms: O_26  and  C_27
REMARK   13  A    between atoms: C_28  and  C_40
REMARK   14  A    between atoms: C_32  and  O_39
REMARK   15  A    between atoms: C_34  and  O_38
REMARK   16  A    between atoms: C_42  and  O_47
REMARK   17  A    between atoms: C_43  and  O_46
REMARK   18  A    between atoms: O_52  and  C_53
REMARK   19  A    between atoms: C_55  and  O_68
REMARK   20  A    between atoms: C_57  and  O_67
REMARK   21  A    between atoms: C_59  and  O_66
REMARK   22  A    between atoms: C_61  and  C_64
REMARK   23  A    between atoms: C_64  and  O_65
REMARK                            x       y       z     vdW  Elec       q    Type
REMARK                         _______ _______ _______ _____ _____    ______ ____
ROOT
ATOM      1  C   UNL     1       3.510   0.108  27.235  0.00  0.00    +0.179 C 
ATOM      2  O   UNL     1       4.356  -0.935  27.759  0.00  0.00    -0.331 OA
ATOM      3  C   UNL     1       4.213  -2.141  26.994  0.00  0.00    +0.340 C 
ATOM      4  C   UNL     1       2.835  -2.731  27.379  0.00  0.00    +0.214 C 
ATOM      5  C   UNL     1       1.783  -1.660  26.943  0.00  0.00    +0.180 C 
ATOM      6  C   UNL     1       2.058  -0.257  27.535  0.00  0.00    +0.177 C 
ENDROOT
BRANCH   4   7
ATOM      7  O   UNL     1       2.610  -3.980  26.710  0.00  0.00    -0.383 OA
ATOM      8  H   UNL     1       2.501  -3.800  25.760  0.00  0.00    +0.210 HD
ENDBRANCH   4   7
BRANCH   6   9
ATOM      9  O   UNL     1       1.128   0.656  26.936  0.00  0.00    -0.386 OA
ATOM     10  H   UNL     1       1.298   1.547  27.291  0.00  0.00    +0.210 HD
ENDBRANCH   6   9
BRANCH   5  11
ATOM     11  O   UNL     1       0.444  -2.050  27.264  0.00  0.00    -0.386 OA
ATOM     12  H   UNL     1       0.505  -2.429  28.166  0.00  0.00    +0.210 HD
ENDBRANCH   5  11
BRANCH   3  13
ATOM     13  O   UNL     1       5.377  -2.990  27.166  0.00  0.00    -0.453 OA
BRANCH  13  14
ATOM     14  C   UNL     1       6.249  -3.011  26.050  0.00  0.00    +0.214 A 
ATOM     15  C   UNL     1       7.577  -2.296  26.102  0.00  0.00    +0.238 A 
ATOM     16  O   UNL     1       8.141  -1.996  27.142  0.00  0.00    -0.283 OA
ATOM     17  C   UNL     1       8.299  -1.998  24.889  0.00  0.00    +0.109 A 
ATOM     18  C   UNL     1       7.942  -2.723  23.775  0.00  0.00    +0.147 A 
ATOM     19  C   UNL     1       8.689  -2.588  22.606  0.00  0.00    +0.092 A 
ATOM     20  C   UNL     1       9.786  -1.712  22.589  0.00  0.00    +0.124 A 
ATOM     21  C   UNL     1      10.145  -0.980  23.707  0.00  0.00    +0.091 A 
ATOM     22  O   UNL     1       6.904  -3.612  23.791  0.00  0.00    -0.451 OA
ATOM     23  C   UNL     1       9.389  -1.110  24.861  0.00  0.00    +0.135 A 
ATOM     24  C   UNL     1       6.037  -3.712  24.900  0.00  0.00    +0.181 A 
BRANCH  24  25
ATOM     25  C   UNL     1       4.975  -4.757  24.620  0.00  0.00    +0.025 A 
ATOM     26  C   UNL     1       4.099  -4.551  23.515  0.00  0.00    +0.015 A 
ATOM     27  C   UNL     1       3.236  -5.542  23.031  0.00  0.00    +0.050 A 
ATOM     28  C   UNL     1       3.207  -6.763  23.666  0.00  0.00    +0.158 A 
ATOM     29  C   UNL     1       3.959  -6.965  24.817  0.00  0.00    +0.159 A 
ATOM     30  C   UNL     1       4.843  -5.983  25.294  0.00  0.00    +0.060 A 
BRANCH  29  31
ATOM     31  O   UNL     1       3.802  -8.167  25.454  0.00  0.00    -0.503 OA
ATOM     32  H   UNL     1       4.255  -8.098  26.313  0.00  0.00    +0.292 HD
ENDBRANCH  29  31
BRANCH  28  33
ATOM     33  O   UNL     1       2.440  -7.765  23.145  0.00  0.00    -0.503 OA
ATOM     34  H   UNL     1       2.268  -8.362  23.900  0.00  0.00    +0.292 HD
ENDBRANCH  28  33
ENDBRANCH  24  25
BRANCH  23  35
ATOM     35  O   UNL     1       9.718  -0.347  25.947  0.00  0.00    -0.506 OA
ATOM     36  H   UNL     1      10.538   0.143  25.774  0.00  0.00    +0.292 HD
ENDBRANCH  23  35
BRANCH  20  37
ATOM     37  O   UNL     1      10.555  -1.552  21.478  0.00  0.00    -0.507 OA
ATOM     38  H   UNL     1      10.376  -2.274  20.859  0.00  0.00    +0.292 HD
ENDBRANCH  20  37
ENDBRANCH  13  14
ENDBRANCH   3  13
BRANCH   1  39
ATOM     39  C   UNL     1       3.984   1.452  27.796  0.00  0.00    +0.197 C 
BRANCH  39  40
ATOM     40  O   UNL     1       3.630   2.446  26.835  0.00  0.00    -0.346 OA
BRANCH  40  44
ATOM     41  C   UNL     1       7.194   4.883  26.777  0.00  0.00    +0.041 C 
ATOM     42  C   UNL     1       5.790   5.337  26.394  0.00  0.00    +0.149 C 
ATOM     43  O   UNL     1       4.793   4.462  26.941  0.00  0.00    -0.343 OA
ATOM     44  C   UNL     1       4.715   3.188  26.302  0.00  0.00    +0.282 C 
ATOM     45  C   UNL     1       4.387   3.341  24.803  0.00  0.00    +0.202 C 
ATOM     46  C   UNL     1       5.448   4.211  24.121  0.00  0.00    +0.186 C 
ATOM     47  C   UNL     1       5.548   5.548  24.882  0.00  0.00    +0.174 C 
BRANCH  47  48
ATOM     48  O   UNL     1       4.326   6.283  24.705  0.00  0.00    -0.387 OA
ATOM     49  H   UNL     1       4.548   7.233  24.750  0.00  0.00    +0.210 HD
ENDBRANCH  47  48
BRANCH  45  50
ATOM     50  O   UNL     1       4.242   2.080  24.137  0.00  0.00    -0.384 OA
ATOM     51  H   UNL     1       3.659   2.252  23.368  0.00  0.00    +0.210 HD
ENDBRANCH  45  50
BRANCH  46  52
ATOM     52  O   UNL     1       6.777   3.667  24.091  0.00  0.00    -0.340 OA
BRANCH  52  53
ATOM     53  C   UNL     1       7.731   4.237  23.202  0.00  0.00    +0.282 C 
ATOM     54  O   UNL     1       7.773   3.455  21.997  0.00  0.00    -0.341 OA
ATOM     55  C   UNL     1       8.347   2.138  22.100  0.00  0.00    +0.178 C 
ATOM     56  C   UNL     1       9.737   2.182  22.761  0.00  0.00    +0.177 C 
ATOM     57  C   UNL     1       9.740   2.987  24.063  0.00  0.00    +0.179 C 
ATOM     58  C   UNL     1       9.132   4.382  23.831  0.00  0.00    +0.201 C 
BRANCH  58  59
ATOM     59  O   UNL     1       9.999   5.149  22.980  0.00  0.00    -0.384 OA
ATOM     60  H   UNL     1      10.046   6.049  23.363  0.00  0.00    +0.210 HD
ENDBRANCH  58  59
BRANCH  57  61
ATOM     61  O   UNL     1       9.088   2.264  25.112  0.00  0.00    -0.386 OA
ATOM     62  H   UNL     1       9.254   2.720  25.958  0.00  0.00    +0.210 HD
ENDBRANCH  57  61
BRANCH  56  63
ATOM     63  O   UNL     1      10.639   2.794  21.816  0.00  0.00    -0.386 OA
ATOM     64  H   UNL     1      10.975   3.620  22.210  0.00  0.00    +0.210 HD
ENDBRANCH  56  63
BRANCH  55  65
ATOM     65  C   UNL     1       7.387   1.106  22.723  0.00  0.00    +0.190 C 
BRANCH  65  66
ATOM     66  O   UNL     1       6.047   1.255  22.250  0.00  0.00    -0.392 OA
ATOM     67  H   UNL     1       5.481   0.652  22.761  0.00  0.00    +0.210 HD
ENDBRANCH  65  66
ENDBRANCH  55  65
ENDBRANCH  52  53
ENDBRANCH  46  52
ENDBRANCH  40  44
ENDBRANCH  39  40
ENDBRANCH   1  39
TORSDOF 22
ENDMDL
MODEL 5
REMARK VINA RESULT:      -7.0      1.941      5.660
REMARK  Name = 
REMARK  23 active torsions:
REMARK  status: ('A' for Active; 'I' for Inactive)
REMARK    1  A    between atoms: C_1  and  C_2
REMARK    2  A    between atoms: C_4  and  O_69
REMARK    3  A    between atoms: C_6  and  O_52
REMARK    4  A    between atoms: C_8  and  O_51
REMARK    5  A    between atoms: C_10  and  O_13
REMARK    6  A    between atoms: O_13  and  C_14
REMARK    7  A    between atoms: C_14  and  C_15
REMARK    8  A    between atoms: C_17  and  O_50
REMARK    9  A    between atoms: C_19  and  O_49
REMARK   10  A    between atoms: C_21  and  O_48
REMARK   11  A    between atoms: C_23  and  O_26
REMARK   12  A    between atoms: O_26  and  C_27
REMARK   13  A    between atoms: C_28  and  C_40
REMARK   14  A    between atoms: C_32  and  O_39
REMARK   15  A    between atoms: C_34  and  O_38
REMARK   16  A    between atoms: C_42  and  O_47
REMARK   17  A    between atoms: C_43  and  O_46
REMARK   18  A    between atoms: O_52  and  C_53
REMARK   19  A    between atoms: C_55  and  O_68
REMARK   20  A    between atoms: C_57  and  O_67
REMARK   21  A    between atoms: C_59  and  O_66
REMARK   22  A    between atoms: C_61  and  C_64
REMARK   23  A    between atoms: C_64  and  O_65
REMARK                            x       y       z     vdW  Elec       q    Type
REMARK                         _______ _______ _______ _____ _____    ______ ____
ROOT
ATOM      1  C   UNL     1       8.633  -0.541  24.594  0.00  0.00    +0.179 C 
ATOM      2  O   UNL     1       8.539   0.876  24.348  0.00  0.00    -0.331 OA
ATOM      3  C   UNL     1       8.052   1.132  23.022  0.00  0.00    +0.340 C 
ATOM      4  C   UNL     1       9.221   0.798  22.065  0.00  0.00    +0.214 C 
ATOM      5  C   UNL     1       9.512  -0.724  22.273  0.00  0.00    +0.180 C 
ATOM      6  C   UNL     1       9.777  -1.099  23.751  0.00  0.00    +0.177 C 
ENDROOT
BRANCH   4   7
ATOM      7  O   UNL     1       8.861   1.074  20.703  0.00  0.00    -0.383 OA
ATOM      8  H   UNL     1       7.949   0.766  20.563  0.00  0.00    +0.210 HD
ENDBRANCH   4   7
BRANCH   6   9
ATOM      9  O   UNL     1       9.868  -2.528  23.826  0.00  0.00    -0.386 OA
ATOM     10  H   UNL     1      10.601  -2.822  23.256  0.00  0.00    +0.210 HD
ENDBRANCH   6   9
BRANCH   5  11
ATOM     11  O   UNL     1      10.602  -1.185  21.469  0.00  0.00    -0.386 OA
ATOM     12  H   UNL     1      11.397  -0.774  21.869  0.00  0.00    +0.210 HD
ENDBRANCH   5  11
BRANCH   3  13
ATOM     13  O   UNL     1       7.480   2.463  22.941  0.00  0.00    -0.453 OA
BRANCH  13  14
ATOM     14  C   UNL     1       7.041   2.982  24.183  0.00  0.00    +0.214 A 
ATOM     15  C   UNL     1       5.913   2.319  24.935  0.00  0.00    +0.238 A 
ATOM     16  O   UNL     1       5.571   1.162  24.755  0.00  0.00    -0.283 OA
ATOM     17  C   UNL     1       5.219   3.021  25.989  0.00  0.00    +0.109 A 
ATOM     18  C   UNL     1       5.871   4.108  26.526  0.00  0.00    +0.147 A 
ATOM     19  C   UNL     1       5.326   4.747  27.638  0.00  0.00    +0.092 A 
ATOM     20  C   UNL     1       4.122   4.272  28.182  0.00  0.00    +0.124 A 
ATOM     21  C   UNL     1       3.464   3.181  27.641  0.00  0.00    +0.091 A 
ATOM     22  O   UNL     1       7.066   4.553  26.035  0.00  0.00    -0.451 OA
ATOM     23  C   UNL     1       4.005   2.560  26.528  0.00  0.00    +0.135 A 
ATOM     24  C   UNL     1       7.614   4.028  24.844  0.00  0.00    +0.181 A 
BRANCH  24  25
ATOM     25  C   UNL     1       8.923   4.730  24.538  0.00  0.00    +0.025 A 
ATOM     26  C   UNL     1       9.232   5.924  25.250  0.00  0.00    +0.015 A 
ATOM     27  C   UNL     1      10.494   6.529  25.212  0.00  0.00    +0.050 A 
ATOM     28  C   UNL     1      11.477   5.965  24.430  0.00  0.00    +0.158 A 
ATOM     29  C   UNL     1      11.181   4.867  23.630  0.00  0.00    +0.159 A 
ATOM     30  C   UNL     1       9.924   4.243  23.680  0.00  0.00    +0.060 A 
BRANCH  29  31
ATOM     31  O   UNL     1      12.176   4.423  22.800  0.00  0.00    -0.503 OA
ATOM     32  H   UNL     1      12.855   5.120  22.767  0.00  0.00    +0.292 HD
ENDBRANCH  29  31
BRANCH  28  33
ATOM     33  O   UNL     1      12.736   6.491  24.460  0.00  0.00    -0.503 OA
ATOM     34  H   UNL     1      13.329   5.714  24.427  0.00  0.00    +0.292 HD
ENDBRANCH  28  33
ENDBRANCH  24  25
BRANCH  23  35
ATOM     35  O   UNL     1       3.325   1.515  25.967  0.00  0.00    -0.506 OA
ATOM     36  H   UNL     1       2.621   1.217  26.564  0.00  0.00    +0.292 HD
ENDBRANCH  23  35
BRANCH  20  37
ATOM     37  O   UNL     1       3.553   4.852  29.274  0.00  0.00    -0.507 OA
ATOM     38  H   UNL     1       3.725   5.804  29.255  0.00  0.00    +0.292 HD
ENDBRANCH  20  37
ENDBRANCH  13  14
ENDBRANCH   3  13
BRANCH   1  39
ATOM     39  C   UNL     1       8.753  -0.769  26.104  0.00  0.00    +0.197 C 
BRANCH  39  40
ATOM     40  O   UNL     1       7.449  -1.111  26.572  0.00  0.00    -0.346 OA
BRANCH  40  44
ATOM     41  C   UNL     1       7.415  -5.402  27.058  0.00  0.00    +0.041 C 
ATOM     42  C   UNL     1       7.940  -4.639  25.846  0.00  0.00    +0.149 C 
ATOM     43  O   UNL     1       8.225  -3.272  26.175  0.00  0.00    -0.343 OA
ATOM     44  C   UNL     1       7.065  -2.461  26.367  0.00  0.00    +0.282 C 
ATOM     45  C   UNL     1       6.194  -2.433  25.096  0.00  0.00    +0.202 C 
ATOM     46  C   UNL     1       5.784  -3.858  24.709  0.00  0.00    +0.186 C 
ATOM     47  C   UNL     1       7.060  -4.715  24.579  0.00  0.00    +0.174 C 
BRANCH  47  48
ATOM     48  O   UNL     1       7.824  -4.254  23.453  0.00  0.00    -0.387 OA
ATOM     49  H   UNL     1       7.254  -4.328  22.663  0.00  0.00    +0.210 HD
ENDBRANCH  47  48
BRANCH  45  50
ATOM     50  O   UNL     1       5.049  -1.581  25.228  0.00  0.00    -0.384 OA
ATOM     51  H   UNL     1       5.068  -0.987  24.448  0.00  0.00    +0.210 HD
ENDBRANCH  45  50
BRANCH  46  52
ATOM     52  O   UNL     1       4.938  -4.541  25.647  0.00  0.00    -0.340 OA
BRANCH  52  53
ATOM     53  C   UNL     1       4.170  -5.651  25.196  0.00  0.00    +0.282 C 
ATOM     54  O   UNL     1       2.818  -5.221  24.964  0.00  0.00    -0.341 OA
ATOM     55  C   UNL     1       2.037  -4.887  26.127  0.00  0.00    +0.178 C 
ATOM     56  C   UNL     1       2.069  -6.021  27.168  0.00  0.00    +0.177 C 
ATOM     57  C   UNL     1       3.492  -6.500  27.467  0.00  0.00    +0.179 C 
ATOM     58  C   UNL     1       4.223  -6.855  26.160  0.00  0.00    +0.201 C 
BRANCH  58  59
ATOM     59  O   UNL     1       3.614  -8.013  25.566  0.00  0.00    -0.384 OA
ATOM     60  H   UNL     1       3.073  -8.435  26.264  0.00  0.00    +0.210 HD
ENDBRANCH  58  59
BRANCH  57  61
ATOM     61  O   UNL     1       4.199  -5.539  28.257  0.00  0.00    -0.386 OA
ATOM     62  H   UNL     1       3.609  -5.218  28.963  0.00  0.00    +0.210 HD
ENDBRANCH  57  61
BRANCH  56  63
ATOM     63  O   UNL     1       1.296  -7.114  26.631  0.00  0.00    -0.386 OA
ATOM     64  H   UNL     1       0.818  -6.790  25.846  0.00  0.00    +0.210 HD
ENDBRANCH  56  63
BRANCH  55  65
ATOM     65  C   UNL     1       2.369  -3.497  26.701  0.00  0.00    +0.190 C 
BRANCH  65  66
ATOM     66  O   UNL     1       2.553  -2.516  25.679  0.00  0.00    -0.392 OA
ATOM     67  H   UNL     1       2.540  -2.973  24.820  0.00  0.00    +0.210 HD
ENDBRANCH  65  66
ENDBRANCH  55  65
ENDBRANCH  52  53
ENDBRANCH  46  52
ENDBRANCH  40  44
ENDBRANCH  39  40
ENDBRANCH   1  39
TORSDOF 22
ENDMDL
MODEL 6
REMARK VINA RESULT:      -7.0      1.964      8.763
REMARK  Name = 
REMARK  23 active torsions:
REMARK  status: ('A' for Active; 'I' for Inactive)
REMARK    1  A    between atoms: C_1  and  C_2
REMARK    2  A    between atoms: C_4  and  O_69
REMARK    3  A    between atoms: C_6  and  O_52
REMARK    4  A    between atoms: C_8  and  O_51
REMARK    5  A    between atoms: C_10  and  O_13
REMARK    6  A    between atoms: O_13  and  C_14
REMARK    7  A    between atoms: C_14  and  C_15
REMARK    8  A    between atoms: C_17  and  O_50
REMARK    9  A    between atoms: C_19  and  O_49
REMARK   10  A    between atoms: C_21  and  O_48
REMARK   11  A    between atoms: C_23  and  O_26
REMARK   12  A    between atoms: O_26  and  C_27
REMARK   13  A    between atoms: C_28  and  C_40
REMARK   14  A    between atoms: C_32  and  O_39
REMARK   15  A    between atoms: C_34  and  O_38
REMARK   16  A    between atoms: C_42  and  O_47
REMARK   17  A    between atoms: C_43  and  O_46
REMARK   18  A    between atoms: O_52  and  C_53
REMARK   19  A    between atoms: C_55  and  O_68
REMARK   20  A    between atoms: C_57  and  O_67
REMARK   21  A    between atoms: C_59  and  O_66
REMARK   22  A    between atoms: C_61  and  C_64
REMARK   23  A    between atoms: C_64  and  O_65
REMARK                            x       y       z     vdW  Elec       q    Type
REMARK                         _______ _______ _______ _____ _____    ______ ____
ROOT
ATOM      1  C   UNL     1       3.935  -0.788  27.633  0.00  0.00    +0.179 C 
ATOM      2  O   UNL     1       5.092  -1.624  27.826  0.00  0.00    -0.331 OA
ATOM      3  C   UNL     1       4.775  -3.001  27.572  0.00  0.00    +0.340 C 
ATOM      4  C   UNL     1       3.930  -3.476  28.777  0.00  0.00    +0.214 C 
ATOM      5  C   UNL     1       2.642  -2.590  28.761  0.00  0.00    +0.180 C 
ATOM      6  C   UNL     1       2.944  -1.072  28.760  0.00  0.00    +0.177 C 
ENDROOT
BRANCH   4   7
ATOM      7  O   UNL     1       3.602  -4.868  28.654  0.00  0.00    -0.383 OA
ATOM      8  H   UNL     1       4.432  -5.376  28.658  0.00  0.00    +0.210 HD
ENDBRANCH   4   7
BRANCH   6   9
ATOM      9  O   UNL     1       1.699  -0.382  28.583  0.00  0.00    -0.386 OA
ATOM     10  H   UNL     1       1.820   0.303  27.902  0.00  0.00    +0.210 HD
ENDBRANCH   6   9
BRANCH   5  11
ATOM     11  O   UNL     1       1.761  -2.892  29.848  0.00  0.00    -0.386 OA
ATOM     12  H   UNL     1       1.952  -2.206  30.521  0.00  0.00    +0.210 HD
ENDBRANCH   5  11
BRANCH   3  13
ATOM     13  O   UNL     1       5.980  -3.749  27.262  0.00  0.00    -0.453 OA
BRANCH  13  14
ATOM     14  C   UNL     1       6.521  -3.473  25.983  0.00  0.00    +0.214 A 
ATOM     15  C   UNL     1       7.810  -2.699  25.847  0.00  0.00    +0.238 A 
ATOM     16  O   UNL     1       8.629  -2.591  26.744  0.00  0.00    -0.283 OA
ATOM     17  C   UNL     1       8.178  -2.100  24.586  0.00  0.00    +0.109 A 
ATOM     18  C   UNL     1       7.540  -2.593  23.470  0.00  0.00    +0.147 A 
ATOM     19  C   UNL     1       7.945  -2.162  22.208  0.00  0.00    +0.092 A 
ATOM     20  C   UNL     1       8.992  -1.232  22.103  0.00  0.00    +0.124 A 
ATOM     21  C   UNL     1       9.632  -0.733  23.224  0.00  0.00    +0.091 A 
ATOM     22  O   UNL     1       6.551  -3.532  23.556  0.00  0.00    -0.451 OA
ATOM     23  C   UNL     1       9.214  -1.157  24.475  0.00  0.00    +0.135 A 
ATOM     24  C   UNL     1       6.013  -3.924  24.801  0.00  0.00    +0.181 A 
BRANCH  24  25
ATOM     25  C   UNL     1       4.922  -4.954  24.579  0.00  0.00    +0.025 A 
ATOM     26  C   UNL     1       4.072  -4.804  23.446  0.00  0.00    +0.015 A 
ATOM     27  C   UNL     1       3.185  -5.800  23.021  0.00  0.00    +0.050 A 
ATOM     28  C   UNL     1       3.105  -6.968  23.745  0.00  0.00    +0.158 A 
ATOM     29  C   UNL     1       3.831  -7.107  24.922  0.00  0.00    +0.159 A 
ATOM     30  C   UNL     1       4.739  -6.120  25.341  0.00  0.00    +0.060 A 
BRANCH  29  31
ATOM     31  O   UNL     1       3.624  -8.251  25.644  0.00  0.00    -0.503 OA
ATOM     32  H   UNL     1       2.902  -8.068  26.271  0.00  0.00    +0.292 HD
ENDBRANCH  29  31
BRANCH  28  33
ATOM     33  O   UNL     1       2.315  -7.983  23.287  0.00  0.00    -0.503 OA
ATOM     34  H   UNL     1       2.486  -8.725  23.899  0.00  0.00    +0.292 HD
ENDBRANCH  28  33
ENDBRANCH  24  25
BRANCH  23  35
ATOM     35  O   UNL     1       9.816  -0.623  25.581  0.00  0.00    -0.506 OA
ATOM     36  H   UNL     1      10.769  -0.813  25.566  0.00  0.00    +0.292 HD
ENDBRANCH  23  35
BRANCH  20  37
ATOM     37  O   UNL     1       9.433  -0.786  20.896  0.00  0.00    -0.507 OA
ATOM     38  H   UNL     1       8.857  -1.130  20.198  0.00  0.00    +0.292 HD
ENDBRANCH  20  37
ENDBRANCH  13  14
ENDBRANCH   3  13
BRANCH   1  39
ATOM     39  C   UNL     1       4.397   0.668  27.511  0.00  0.00    +0.197 C 
BRANCH  39  40
ATOM     40  O   UNL     1       5.058   0.784  26.252  0.00  0.00    -0.346 OA
BRANCH  40  44
ATOM     41  C   UNL     1       4.073   4.959  25.753  0.00  0.00    +0.041 C 
ATOM     42  C   UNL     1       3.352   3.782  25.105  0.00  0.00    +0.149 C 
ATOM     43  O   UNL     1       3.616   2.559  25.807  0.00  0.00    -0.343 OA
ATOM     44  C   UNL     1       4.934   2.045  25.616  0.00  0.00    +0.282 C 
ATOM     45  C   UNL     1       5.206   1.762  24.125  0.00  0.00    +0.202 C 
ATOM     46  C   UNL     1       5.012   3.041  23.304  0.00  0.00    +0.186 C 
ATOM     47  C   UNL     1       3.604   3.599  23.592  0.00  0.00    +0.174 C 
BRANCH  47  48
ATOM     48  O   UNL     1       2.622   2.692  23.062  0.00  0.00    -0.387 OA
ATOM     49  H   UNL     1       1.955   2.544  23.760  0.00  0.00    +0.210 HD
ENDBRANCH  47  48
BRANCH  45  50
ATOM     50  O   UNL     1       6.500   1.189  23.898  0.00  0.00    -0.384 OA
ATOM     51  H   UNL     1       6.719   1.390  22.963  0.00  0.00    +0.210 HD
ENDBRANCH  45  50
BRANCH  46  52
ATOM     52  O   UNL     1       5.930   4.109  23.586  0.00  0.00    -0.340 OA
BRANCH  52  53
ATOM     53  C   UNL     1       6.856   4.502  22.579  0.00  0.00    +0.282 C 
ATOM     54  O   UNL     1       8.096   3.805  22.786  0.00  0.00    -0.341 OA
ATOM     55  C   UNL     1       8.869   4.189  23.939  0.00  0.00    +0.178 C 
ATOM     56  C   UNL     1       9.095   5.712  23.981  0.00  0.00    +0.177 C 
ATOM     57  C   UNL     1       7.797   6.500  23.788  0.00  0.00    +0.179 C 
ATOM     58  C   UNL     1       7.069   6.029  22.516  0.00  0.00    +0.201 C 
BRANCH  58  59
ATOM     59  O   UNL     1       7.839   6.391  21.358  0.00  0.00    -0.384 OA
ATOM     60  H   UNL     1       8.753   6.082  21.520  0.00  0.00    +0.210 HD
ENDBRANCH  58  59
BRANCH  57  61
ATOM     61  O   UNL     1       6.976   6.429  24.957  0.00  0.00    -0.386 OA
ATOM     62  H   UNL     1       6.274   7.103  24.890  0.00  0.00    +0.210 HD
ENDBRANCH  57  61
BRANCH  56  63
ATOM     63  O   UNL     1      10.017   6.036  22.920  0.00  0.00    -0.386 OA
ATOM     64  H   UNL     1      10.601   5.267  22.782  0.00  0.00    +0.210 HD
ENDBRANCH  56  63
BRANCH  55  65
ATOM     65  C   UNL     1       8.330   3.597  25.255  0.00  0.00    +0.190 C 
BRANCH  65  66
ATOM     66  O   UNL     1       8.664   2.216  25.407  0.00  0.00    -0.392 OA
ATOM     67  H   UNL     1       9.519   2.165  25.870  0.00  0.00    +0.210 HD
ENDBRANCH  65  66
ENDBRANCH  55  65
ENDBRANCH  52  53
ENDBRANCH  46  52
ENDBRANCH  40  44
ENDBRANCH  39  40
ENDBRANCH   1  39
TORSDOF 22
ENDMDL
MODEL 7
REMARK VINA RESULT:      -7.0      2.393      7.473
REMARK  Name = 
REMARK  23 active torsions:
REMARK  status: ('A' for Active; 'I' for Inactive)
REMARK    1  A    between atoms: C_1  and  C_2
REMARK    2  A    between atoms: C_4  and  O_69
REMARK    3  A    between atoms: C_6  and  O_52
REMARK    4  A    between atoms: C_8  and  O_51
REMARK    5  A    between atoms: C_10  and  O_13
REMARK    6  A    between atoms: O_13  and  C_14
REMARK    7  A    between atoms: C_14  and  C_15
REMARK    8  A    between atoms: C_17  and  O_50
REMARK    9  A    between atoms: C_19  and  O_49
REMARK   10  A    between atoms: C_21  and  O_48
REMARK   11  A    between atoms: C_23  and  O_26
REMARK   12  A    between atoms: O_26  and  C_27
REMARK   13  A    between atoms: C_28  and  C_40
REMARK   14  A    between atoms: C_32  and  O_39
REMARK   15  A    between atoms: C_34  and  O_38
REMARK   16  A    between atoms: C_42  and  O_47
REMARK   17  A    between atoms: C_43  and  O_46
REMARK   18  A    between atoms: O_52  and  C_53
REMARK   19  A    between atoms: C_55  and  O_68
REMARK   20  A    between atoms: C_57  and  O_67
REMARK   21  A    between atoms: C_59  and  O_66
REMARK   22  A    between atoms: C_61  and  C_64
REMARK   23  A    between atoms: C_64  and  O_65
REMARK                            x       y       z     vdW  Elec       q    Type
REMARK                         _______ _______ _______ _____ _____    ______ ____
ROOT
ATOM      1  C   UNL     1       6.321  -3.048  26.692  0.00  0.00    +0.179 C 
ATOM      2  O   UNL     1       7.615  -2.630  26.213  0.00  0.00    -0.331 OA
ATOM      3  C   UNL     1       8.212  -3.650  25.399  0.00  0.00    +0.340 C 
ATOM      4  C   UNL     1       8.662  -4.765  26.372  0.00  0.00    +0.214 C 
ATOM      5  C   UNL     1       7.354  -5.283  27.053  0.00  0.00    +0.180 C 
ATOM      6  C   UNL     1       6.526  -4.158  27.719  0.00  0.00    +0.177 C 
ENDROOT
BRANCH   4   7
ATOM      7  O   UNL     1       9.330  -5.821  25.665  0.00  0.00    -0.383 OA
ATOM      8  H   UNL     1       9.014  -6.670  26.020  0.00  0.00    +0.210 HD
ENDBRANCH   4   7
BRANCH   6   9
ATOM      9  O   UNL     1       5.288  -4.734  28.159  0.00  0.00    -0.386 OA
ATOM     10  H   UNL     1       4.578  -4.433  27.563  0.00  0.00    +0.210 HD
ENDBRANCH   6   9
BRANCH   5  11
ATOM     11  O   UNL     1       7.610  -6.310  28.015  0.00  0.00    -0.386 OA
ATOM     12  H   UNL     1       8.393  -6.787  27.667  0.00  0.00    +0.210 HD
ENDBRANCH   5  11
BRANCH   3  13
ATOM     13  O   UNL     1       9.219  -3.076  24.525  0.00  0.00    -0.453 OA
BRANCH  13  14
ATOM     14  C   UNL     1       8.789  -1.924  23.824  0.00  0.00    +0.214 A 
ATOM     15  C   UNL     1       9.688  -0.716  23.710  0.00  0.00    +0.238 A 
ATOM     16  O   UNL     1      10.898  -0.761  23.858  0.00  0.00    -0.283 OA
ATOM     17  C   UNL     1       9.148   0.569  23.333  0.00  0.00    +0.109 A 
ATOM     18  C   UNL     1       7.920   0.553  22.712  0.00  0.00    +0.147 A 
ATOM     19  C   UNL     1       7.404   1.740  22.195  0.00  0.00    +0.092 A 
ATOM     20  C   UNL     1       8.145   2.925  22.324  0.00  0.00    +0.124 A 
ATOM     21  C   UNL     1       9.379   2.943  22.951  0.00  0.00    +0.091 A 
ATOM     22  O   UNL     1       7.209  -0.601  22.540  0.00  0.00    -0.451 OA
ATOM     23  C   UNL     1       9.879   1.762  23.473  0.00  0.00    +0.135 A 
ATOM     24  C   UNL     1       7.616  -1.813  23.138  0.00  0.00    +0.181 A 
BRANCH  24  25
ATOM     25  C   UNL     1       6.623  -2.906  22.793  0.00  0.00    +0.025 A 
ATOM     26  C   UNL     1       7.052  -3.965  21.942  0.00  0.00    +0.015 A 
ATOM     27  C   UNL     1       6.302  -5.130  21.737  0.00  0.00    +0.050 A 
ATOM     28  C   UNL     1       5.081  -5.250  22.360  0.00  0.00    +0.158 A 
ATOM     29  C   UNL     1       4.574  -4.190  23.104  0.00  0.00    +0.159 A 
ATOM     30  C   UNL     1       5.331  -3.029  23.331  0.00  0.00    +0.060 A 
BRANCH  29  31
ATOM     31  O   UNL     1       3.310  -4.339  23.608  0.00  0.00    -0.503 OA
ATOM     32  H   UNL     1       3.327  -5.108  24.206  0.00  0.00    +0.292 HD
ENDBRANCH  29  31
BRANCH  28  33
ATOM     33  O   UNL     1       4.386  -6.419  22.243  0.00  0.00    -0.503 OA
ATOM     34  H   UNL     1       4.531  -6.878  23.094  0.00  0.00    +0.292 HD
ENDBRANCH  28  33
ENDBRANCH  24  25
BRANCH  23  35
ATOM     35  O   UNL     1      11.074   1.794  24.136  0.00  0.00    -0.506 OA
ATOM     36  H   UNL     1      11.312   2.711  24.350  0.00  0.00    +0.292 HD
ENDBRANCH  23  35
BRANCH  20  37
ATOM     37  O   UNL     1       7.692   4.109  21.828  0.00  0.00    -0.507 OA
ATOM     38  H   UNL     1       6.885   4.364  22.298  0.00  0.00    +0.292 HD
ENDBRANCH  20  37
ENDBRANCH  13  14
ENDBRANCH   3  13
BRANCH   1  39
ATOM     39  C   UNL     1       5.562  -1.815  27.192  0.00  0.00    +0.197 C 
BRANCH  39  40
ATOM     40  O   UNL     1       6.415  -0.692  26.976  0.00  0.00    -0.346 OA
BRANCH  40  44
ATOM     41  C   UNL     1       5.384   3.155  28.645  0.00  0.00    +0.041 C 
ATOM     42  C   UNL     1       4.472   1.936  28.568  0.00  0.00    +0.149 C 
ATOM     43  O   UNL     1       5.228   0.730  28.390  0.00  0.00    -0.343 OA
ATOM     44  C   UNL     1       5.789   0.575  27.086  0.00  0.00    +0.282 C 
ATOM     45  C   UNL     1       4.686   0.563  26.009  0.00  0.00    +0.202 C 
ATOM     46  C   UNL     1       3.865   1.855  26.083  0.00  0.00    +0.186 C 
ATOM     47  C   UNL     1       3.337   2.018  27.523  0.00  0.00    +0.174 C 
BRANCH  47  48
ATOM     48  O   UNL     1       2.380   0.981  27.792  0.00  0.00    -0.387 OA
ATOM     49  H   UNL     1       2.839   0.284  28.300  0.00  0.00    +0.210 HD
ENDBRANCH  47  48
BRANCH  45  50
ATOM     50  O   UNL     1       5.203   0.351  24.689  0.00  0.00    -0.384 OA
ATOM     51  H   UNL     1       4.448   0.018  24.159  0.00  0.00    +0.210 HD
ENDBRANCH  45  50
BRANCH  46  52
ATOM     52  O   UNL     1       4.578   3.065  25.780  0.00  0.00    -0.340 OA
BRANCH  52  53
ATOM     53  C   UNL     1       5.142   3.222  24.483  0.00  0.00    +0.282 C 
ATOM     54  O   UNL     1       6.162   4.233  24.535  0.00  0.00    -0.341 OA
ATOM     55  C   UNL     1       5.719   5.589  24.734  0.00  0.00    +0.178 C 
ATOM     56  C   UNL     1       4.630   5.977  23.717  0.00  0.00    +0.177 C 
ATOM     57  C   UNL     1       3.506   4.940  23.640  0.00  0.00    +0.179 C 
ATOM     58  C   UNL     1       4.090   3.536  23.399  0.00  0.00    +0.201 C 
BRANCH  58  59
ATOM     59  O   UNL     1       4.672   3.475  22.087  0.00  0.00    -0.384 OA
ATOM     60  H   UNL     1       5.579   3.832  22.165  0.00  0.00    +0.210 HD
ENDBRANCH  58  59
BRANCH  57  61
ATOM     61  O   UNL     1       2.671   5.004  24.800  0.00  0.00    -0.386 OA
ATOM     62  H   UNL     1       2.094   4.219  24.815  0.00  0.00    +0.210 HD
ENDBRANCH  57  61
BRANCH  56  63
ATOM     63  O   UNL     1       5.269   6.090  22.429  0.00  0.00    -0.386 OA
ATOM     64  H   UNL     1       4.620   5.837  21.746  0.00  0.00    +0.210 HD
ENDBRANCH  56  63
BRANCH  55  65
ATOM     65  C   UNL     1       5.353   5.899  26.197  0.00  0.00    +0.190 C 
BRANCH  65  66
ATOM     66  O   UNL     1       4.417   6.972  26.308  0.00  0.00    -0.392 OA
ATOM     67  H   UNL     1       3.655   6.766  25.739  0.00  0.00    +0.210 HD
ENDBRANCH  65  66
ENDBRANCH  55  65
ENDBRANCH  52  53
ENDBRANCH  46  52
ENDBRANCH  40  44
ENDBRANCH  39  40
ENDBRANCH   1  39
TORSDOF 22
ENDMDL
MODEL 8
REMARK VINA RESULT:      -6.7      2.298      6.119
REMARK  Name = 
REMARK  23 active torsions:
REMARK  status: ('A' for Active; 'I' for Inactive)
REMARK    1  A    between atoms: C_1  and  C_2
REMARK    2  A    between atoms: C_4  and  O_69
REMARK    3  A    between atoms: C_6  and  O_52
REMARK    4  A    between atoms: C_8  and  O_51
REMARK    5  A    between atoms: C_10  and  O_13
REMARK    6  A    between atoms: O_13  and  C_14
REMARK    7  A    between atoms: C_14  and  C_15
REMARK    8  A    between atoms: C_17  and  O_50
REMARK    9  A    between atoms: C_19  and  O_49
REMARK   10  A    between atoms: C_21  and  O_48
REMARK   11  A    between atoms: C_23  and  O_26
REMARK   12  A    between atoms: O_26  and  C_27
REMARK   13  A    between atoms: C_28  and  C_40
REMARK   14  A    between atoms: C_32  and  O_39
REMARK   15  A    between atoms: C_34  and  O_38
REMARK   16  A    between atoms: C_42  and  O_47
REMARK   17  A    between atoms: C_43  and  O_46
REMARK   18  A    between atoms: O_52  and  C_53
REMARK   19  A    between atoms: C_55  and  O_68
REMARK   20  A    between atoms: C_57  and  O_67
REMARK   21  A    between atoms: C_59  and  O_66
REMARK   22  A    between atoms: C_61  and  C_64
REMARK   23  A    between atoms: C_64  and  O_65
REMARK                            x       y       z     vdW  Elec       q    Type
REMARK                         _______ _______ _______ _____ _____    ______ ____
ROOT
ATOM      1  C   UNL     1       8.699   0.233  24.185  0.00  0.00    +0.179 C 
ATOM      2  O   UNL     1       8.735   1.288  25.166  0.00  0.00    -0.331 OA
ATOM      3  C   UNL     1       8.188   2.503  24.631  0.00  0.00    +0.340 C 
ATOM      4  C   UNL     1       9.246   3.052  23.646  0.00  0.00    +0.214 C 
ATOM      5  C   UNL     1       9.391   1.962  22.534  0.00  0.00    +0.180 C 
ATOM      6  C   UNL     1       9.717   0.557  23.095  0.00  0.00    +0.177 C 
ENDROOT
BRANCH   4   7
ATOM      7  O   UNL     1       8.824   4.305  23.089  0.00  0.00    -0.383 OA
ATOM      8  H   UNL     1       8.926   4.257  22.123  0.00  0.00    +0.210 HD
ENDBRANCH   4   7
BRANCH   6   9
ATOM      9  O   UNL     1       9.664  -0.370  22.002  0.00  0.00    -0.386 OA
ATOM     10  H   UNL     1       8.875  -0.932  22.111  0.00  0.00    +0.210 HD
ENDBRANCH   6   9
BRANCH   5  11
ATOM     11  O   UNL     1      10.369   2.313  21.551  0.00  0.00    -0.386 OA
ATOM     12  H   UNL     1       9.971   2.044  20.697  0.00  0.00    +0.210 HD
ENDBRANCH   5  11
BRANCH   3  13
ATOM     13  O   UNL     1       7.753   3.378  25.704  0.00  0.00    -0.453 OA
BRANCH  13  14
ATOM     14  C   UNL     1       6.570   2.953  26.356  0.00  0.00    +0.214 A 
ATOM     15  C   UNL     1       6.595   2.568  27.815  0.00  0.00    +0.238 A 
ATOM     16  O   UNL     1       7.465   2.927  28.592  0.00  0.00    -0.283 OA
ATOM     17  C   UNL     1       5.517   1.800  28.391  0.00  0.00    +0.109 A 
ATOM     18  C   UNL     1       4.333   1.794  27.689  0.00  0.00    +0.147 A 
ATOM     19  C   UNL     1       3.210   1.191  28.254  0.00  0.00    +0.092 A 
ATOM     20  C   UNL     1       3.313   0.601  29.523  0.00  0.00    +0.124 A 
ATOM     21  C   UNL     1       4.504   0.604  30.229  0.00  0.00    +0.091 A 
ATOM     22  O   UNL     1       4.208   2.404  26.473  0.00  0.00    -0.451 OA
ATOM     23  C   UNL     1       5.618   1.193  29.655  0.00  0.00    +0.135 A 
ATOM     24  C   UNL     1       5.328   2.929  25.793  0.00  0.00    +0.181 A 
BRANCH  24  25
ATOM     25  C   UNL     1       4.886   3.516  24.467  0.00  0.00    +0.025 A 
ATOM     26  C   UNL     1       3.792   2.906  23.789  0.00  0.00    +0.015 A 
ATOM     27  C   UNL     1       3.161   3.486  22.682  0.00  0.00    +0.050 A 
ATOM     28  C   UNL     1       3.634   4.688  22.205  0.00  0.00    +0.158 A 
ATOM     29  C   UNL     1       4.771   5.258  22.765  0.00  0.00    +0.159 A 
ATOM     30  C   UNL     1       5.395   4.691  23.889  0.00  0.00    +0.060 A 
BRANCH  29  31
ATOM     31  O   UNL     1       5.246   6.398  22.173  0.00  0.00    -0.503 OA
ATOM     32  H   UNL     1       5.952   6.130  21.559  0.00  0.00    +0.292 HD
ENDBRANCH  29  31
BRANCH  28  33
ATOM     33  O   UNL     1       2.968   5.309  21.188  0.00  0.00    -0.503 OA
ATOM     34  H   UNL     1       3.355   4.932  20.373  0.00  0.00    +0.292 HD
ENDBRANCH  28  33
ENDBRANCH  24  25
BRANCH  23  35
ATOM     35  O   UNL     1       6.803   1.149  30.335  0.00  0.00    -0.506 OA
ATOM     36  H   UNL     1       7.276   1.991  30.235  0.00  0.00    +0.292 HD
ENDBRANCH  23  35
BRANCH  20  37
ATOM     37  O   UNL     1       2.245   0.009  30.124  0.00  0.00    -0.507 OA
ATOM     38  H   UNL     1       1.450   0.534  29.952  0.00  0.00    +0.292 HD
ENDBRANCH  20  37
ENDBRANCH  13  14
ENDBRANCH   3  13
BRANCH   1  39
ATOM     39  C   UNL     1       8.897  -1.107  24.899  0.00  0.00    +0.197 C 
BRANCH  39  40
ATOM     40  O   UNL     1       7.656  -1.426  25.527  0.00  0.00    -0.346 OA
BRANCH  40  44
ATOM     41  C   UNL     1       7.262  -5.209  27.573  0.00  0.00    +0.041 C 
ATOM     42  C   UNL     1       8.368  -4.827  26.596  0.00  0.00    +0.149 C 
ATOM     43  O   UNL     1       8.469  -3.403  26.454  0.00  0.00    -0.343 OA
ATOM     44  C   UNL     1       7.406  -2.810  25.709  0.00  0.00    +0.282 C 
ATOM     45  C   UNL     1       7.342  -3.388  24.281  0.00  0.00    +0.202 C 
ATOM     46  C   UNL     1       7.165  -4.909  24.338  0.00  0.00    +0.186 C 
ATOM     47  C   UNL     1       8.292  -5.501  25.208  0.00  0.00    +0.174 C 
BRANCH  47  48
ATOM     48  O   UNL     1       9.549  -5.321  24.534  0.00  0.00    -0.387 OA
ATOM     49  H   UNL     1       9.393  -4.719  23.780  0.00  0.00    +0.210 HD
ENDBRANCH  47  48
BRANCH  45  50
ATOM     50  O   UNL     1       6.324  -2.776  23.480  0.00  0.00    -0.384 OA
ATOM     51  H   UNL     1       6.740  -1.981  23.083  0.00  0.00    +0.210 HD
ENDBRANCH  45  50
BRANCH  46  52
ATOM     52  O   UNL     1       5.933  -5.372  24.913  0.00  0.00    -0.340 OA
BRANCH  52  53
ATOM     53  C   UNL     1       4.925  -5.888  24.050  0.00  0.00    +0.282 C 
ATOM     54  O   UNL     1       3.976  -4.847  23.765  0.00  0.00    -0.341 OA
ATOM     55  C   UNL     1       3.125  -4.432  24.851  0.00  0.00    +0.178 C 
ATOM     56  C   UNL     1       2.423  -5.637  25.505  0.00  0.00    +0.177 C 
ATOM     57  C   UNL     1       3.398  -6.766  25.849  0.00  0.00    +0.179 C 
ATOM     58  C   UNL     1       4.233  -7.147  24.613  0.00  0.00    +0.201 C 
BRANCH  58  59
ATOM     59  O   UNL     1       3.382  -7.749  23.624  0.00  0.00    -0.384 OA
ATOM     60  H   UNL     1       3.751  -7.506  22.750  0.00  0.00    +0.210 HD
ENDBRANCH  58  59
BRANCH  57  61
ATOM     61  O   UNL     1       4.204  -6.419  26.979  0.00  0.00    -0.386 OA
ATOM     62  H   UNL     1       3.659  -5.912  27.609  0.00  0.00    +0.210 HD
ENDBRANCH  57  61
BRANCH  56  63
ATOM     63  O   UNL     1       1.441  -6.119  24.565  0.00  0.00    -0.386 OA
ATOM     64  H   UNL     1       0.556  -5.910  24.919  0.00  0.00    +0.210 HD
ENDBRANCH  56  63
BRANCH  55  65
ATOM     65  C   UNL     1       3.833  -3.498  25.851  0.00  0.00    +0.190 C 
BRANCH  65  66
ATOM     66  O   UNL     1       4.103  -2.210  25.294  0.00  0.00    -0.392 OA
ATOM     67  H   UNL     1       4.596  -2.340  24.466  0.00  0.00    +0.210 HD
ENDBRANCH  65  66
ENDBRANCH  55  65
ENDBRANCH  52  53
ENDBRANCH  46  52
ENDBRANCH  40  44
ENDBRANCH  39  40
ENDBRANCH   1  39
TORSDOF 22
ENDMDL
MODEL 9
REMARK VINA RESULT:      -6.7      2.106      9.154
REMARK  Name = 
REMARK  23 active torsions:
REMARK  status: ('A' for Active; 'I' for Inactive)
REMARK    1  A    between atoms: C_1  and  C_2
REMARK    2  A    between atoms: C_4  and  O_69
REMARK    3  A    between atoms: C_6  and  O_52
REMARK    4  A    between atoms: C_8  and  O_51
REMARK    5  A    between atoms: C_10  and  O_13
REMARK    6  A    between atoms: O_13  and  C_14
REMARK    7  A    between atoms: C_14  and  C_15
REMARK    8  A    between atoms: C_17  and  O_50
REMARK    9  A    between atoms: C_19  and  O_49
REMARK   10  A    between atoms: C_21  and  O_48
REMARK   11  A    between atoms: C_23  and  O_26
REMARK   12  A    between atoms: O_26  and  C_27
REMARK   13  A    between atoms: C_28  and  C_40
REMARK   14  A    between atoms: C_32  and  O_39
REMARK   15  A    between atoms: C_34  and  O_38
REMARK   16  A    between atoms: C_42  and  O_47
REMARK   17  A    between atoms: C_43  and  O_46
REMARK   18  A    between atoms: O_52  and  C_53
REMARK   19  A    between atoms: C_55  and  O_68
REMARK   20  A    between atoms: C_57  and  O_67
REMARK   21  A    between atoms: C_59  and  O_66
REMARK   22  A    between atoms: C_61  and  C_64
REMARK   23  A    between atoms: C_64  and  O_65
REMARK                            x       y       z     vdW  Elec       q    Type
REMARK                         _______ _______ _______ _____ _____    ______ ____
ROOT
ATOM      1  C   UNL     1       7.796  -2.870  24.225  0.00  0.00    +0.179 C 
ATOM      2  O   UNL     1       6.641  -3.588  24.704  0.00  0.00    -0.331 OA
ATOM      3  C   UNL     1       6.810  -3.969  26.077  0.00  0.00    +0.340 C 
ATOM      4  C   UNL     1       7.833  -5.129  26.077  0.00  0.00    +0.214 C 
ATOM      5  C   UNL     1       9.152  -4.526  25.495  0.00  0.00    +0.180 C 
ATOM      6  C   UNL     1       8.959  -3.853  24.115  0.00  0.00    +0.177 C 
ENDROOT
BRANCH   4   7
ATOM      7  O   UNL     1       8.036  -5.630  27.407  0.00  0.00    -0.383 OA
ATOM      8  H   UNL     1       8.289  -6.568  27.342  0.00  0.00    +0.210 HD
ENDBRANCH   4   7
BRANCH   6   9
ATOM      9  O   UNL     1      10.192  -3.206  23.771  0.00  0.00    -0.386 OA
ATOM     10  H   UNL     1      10.892  -3.545  24.357  0.00  0.00    +0.210 HD
ENDBRANCH   6   9
BRANCH   5  11
ATOM     11  O   UNL     1      10.200  -5.496  25.401  0.00  0.00    -0.386 OA
ATOM     12  H   UNL     1      10.016  -5.980  24.569  0.00  0.00    +0.210 HD
ENDBRANCH   5  11
BRANCH   3  13
ATOM     13  O   UNL     1       5.520  -4.213  26.697  0.00  0.00    -0.453 OA
BRANCH  13  14
ATOM     14  C   UNL     1       4.665  -3.085  26.718  0.00  0.00    +0.214 A 
ATOM     15  C   UNL     1       5.124  -1.786  27.334  0.00  0.00    +0.238 A 
ATOM     16  O   UNL     1       6.298  -1.497  27.501  0.00  0.00    -0.283 OA
ATOM     17  C   UNL     1       4.169  -0.763  27.692  0.00  0.00    +0.109 A 
ATOM     18  C   UNL     1       2.932  -0.853  27.096  0.00  0.00    +0.147 A 
ATOM     19  C   UNL     1       2.010   0.175  27.285  0.00  0.00    +0.092 A 
ATOM     20  C   UNL     1       2.362   1.275  28.083  0.00  0.00    +0.124 A 
ATOM     21  C   UNL     1       3.604   1.365  28.686  0.00  0.00    +0.091 A 
ATOM     22  O   UNL     1       2.594  -1.896  26.281  0.00  0.00    -0.451 OA
ATOM     23  C   UNL     1       4.510   0.333  28.504  0.00  0.00    +0.135 A 
ATOM     24  C   UNL     1       3.431  -3.023  26.140  0.00  0.00    +0.181 A 
BRANCH  24  25
ATOM     25  C   UNL     1       2.785  -4.020  25.198  0.00  0.00    +0.025 A 
ATOM     26  C   UNL     1       1.362  -4.064  25.134  0.00  0.00    +0.015 A 
ATOM     27  C   UNL     1       0.665  -4.779  24.153  0.00  0.00    +0.050 A 
ATOM     28  C   UNL     1       1.381  -5.497  23.221  0.00  0.00    +0.158 A 
ATOM     29  C   UNL     1       2.765  -5.573  23.319  0.00  0.00    +0.159 A 
ATOM     30  C   UNL     1       3.472  -4.841  24.288  0.00  0.00    +0.060 A 
BRANCH  29  31
ATOM     31  O   UNL     1       3.403  -6.388  22.422  0.00  0.00    -0.503 OA
ATOM     32  H   UNL     1       2.717  -6.911  21.971  0.00  0.00    +0.292 HD
ENDBRANCH  29  31
BRANCH  28  33
ATOM     33  O   UNL     1       0.715  -6.118  22.205  0.00  0.00    -0.503 OA
ATOM     34  H   UNL     1       0.068  -5.456  21.891  0.00  0.00    +0.292 HD
ENDBRANCH  28  33
ENDBRANCH  24  25
BRANCH  23  35
ATOM     35  O   UNL     1       5.717   0.403  29.142  0.00  0.00    -0.506 OA
ATOM     36  H   UNL     1       5.846  -0.383  29.697  0.00  0.00    +0.292 HD
ENDBRANCH  23  35
BRANCH  20  37
ATOM     37  O   UNL     1       1.503   2.310  28.292  0.00  0.00    -0.507 OA
ATOM     38  H   UNL     1       1.952   3.143  28.087  0.00  0.00    +0.292 HD
ENDBRANCH  20  37
ENDBRANCH  13  14
ENDBRANCH   3  13
BRANCH   1  39
ATOM     39  C   UNL     1       7.419  -2.143  22.931  0.00  0.00    +0.197 C 
BRANCH  39  40
ATOM     40  O   UNL     1       8.581  -1.434  22.505  0.00  0.00    -0.346 OA
BRANCH  40  44
ATOM     41  C   UNL     1      10.566   2.081  24.040  0.00  0.00    +0.041 C 
ATOM     42  C   UNL     1       9.762   1.076  24.856  0.00  0.00    +0.149 C 
ATOM     43  O   UNL     1       9.629  -0.172  24.161  0.00  0.00    -0.343 OA
ATOM     44  C   UNL     1       8.731  -0.133  23.051  0.00  0.00    +0.282 C 
ATOM     45  C   UNL     1       7.313   0.270  23.502  0.00  0.00    +0.202 C 
ATOM     46  C   UNL     1       7.352   1.634  24.199  0.00  0.00    +0.186 C 
ATOM     47  C   UNL     1       8.381   1.569  25.345  0.00  0.00    +0.174 C 
BRANCH  47  48
ATOM     48  O   UNL     1       7.900   0.672  26.359  0.00  0.00    -0.387 OA
ATOM     49  H   UNL     1       8.103  -0.238  26.066  0.00  0.00    +0.210 HD
ENDBRANCH  47  48
BRANCH  45  50
ATOM     50  O   UNL     1       6.367   0.264  22.425  0.00  0.00    -0.384 OA
ATOM     51  H   UNL     1       6.901   0.233  21.603  0.00  0.00    +0.210 HD
ENDBRANCH  45  50
BRANCH  46  52
ATOM     52  O   UNL     1       7.740   2.745  23.376  0.00  0.00    -0.340 OA
BRANCH  52  53
ATOM     53  C   UNL     1       6.834   3.213  22.383  0.00  0.00    +0.282 C 
ATOM     54  O   UNL     1       7.375   4.399  21.778  0.00  0.00    -0.341 OA
ATOM     55  C   UNL     1       7.415   5.583  22.597  0.00  0.00    +0.178 C 
ATOM     56  C   UNL     1       6.039   5.878  23.222  0.00  0.00    +0.177 C 
ATOM     57  C   UNL     1       5.430   4.649  23.901  0.00  0.00    +0.179 C 
ATOM     58  C   UNL     1       5.411   3.455  22.929  0.00  0.00    +0.201 C 
BRANCH  58  59
ATOM     59  O   UNL     1       4.490   3.719  21.859  0.00  0.00    -0.384 OA
ATOM     60  H   UNL     1       3.773   3.057  21.937  0.00  0.00    +0.210 HD
ENDBRANCH  58  59
BRANCH  57  61
ATOM     61  O   UNL     1       6.103   4.357  25.129  0.00  0.00    -0.386 OA
ATOM     62  H   UNL     1       5.739   3.531  25.498  0.00  0.00    +0.210 HD
ENDBRANCH  57  61
BRANCH  56  63
ATOM     63  O   UNL     1       5.172   6.319  22.157  0.00  0.00    -0.386 OA
ATOM     64  H   UNL     1       4.412   5.708  22.114  0.00  0.00    +0.210 HD
ENDBRANCH  56  63
BRANCH  55  65
ATOM     65  C   UNL     1       8.577   5.582  23.607  0.00  0.00    +0.190 C 
BRANCH  65  66
ATOM     66  O   UNL     1       9.810   5.167  23.016  0.00  0.00    -0.392 OA
ATOM     67  H   UNL     1       9.741   5.298  22.055  0.00  0.00    +0.210 HD
ENDBRANCH  65  66
ENDBRANCH  55  65
ENDBRANCH  52  53
ENDBRANCH  46  52
ENDBRANCH  40  44
ENDBRANCH  39  40
ENDBRANCH   1  39
TORSDOF 22
ENDMDL
