MODEL 1
REMARK VINA RESULT:      -6.8      0.000      0.000
REMARK  Name = 
REMARK  18 active torsions:
REMARK  status: ('A' for Active; 'I' for Inactive)
REMARK    1  A    between atoms: C_3  and  O_49
REMARK    2  A    between atoms: C_4  and  O_48
REMARK    3  A    between atoms: C_6  and  C_7
REMARK    4  A    between atoms: C_8  and  O_34
REMARK    5  A    between atoms: C_15  and  O_33
REMARK    6  A    between atoms: C_17  and  O_18
REMARK    7  A    between atoms: O_18  and  C_19
REMARK    8  A    between atoms: C_21  and  O_32
REMARK    9  A    between atoms: C_22  and  O_31
REMARK   10  A    between atoms: C_24  and  O_30
REMARK   11  A    between atoms: C_26  and  C_28
REMARK   12  A    between atoms: C_28  and  O_29
REMARK   13  A    between atoms: O_34  and  C_35
REMARK   14  A    between atoms: C_37  and  O_47
REMARK   15  A    between atoms: C_38  and  O_46
REMARK   16  A    between atoms: C_39  and  O_45
REMARK   17  A    between atoms: C_41  and  C_43
REMARK   18  A    between atoms: C_43  and  O_44
REMARK                            x       y       z     vdW  Elec       q    Type
REMARK                         _______ _______ _______ _____ _____    ______ ____
ROOT
ATOM      1  C   UNL     1       6.623  -1.012  23.697  0.00  0.00    +0.181 A 
ATOM      2  O   UNL     1       6.677  -1.810  22.556  0.00  0.00    -0.451 OA
ATOM      3  C   UNL     1       6.201  -3.087  22.609  0.00  0.00    +0.147 A 
ATOM      4  C   UNL     1       6.577  -3.906  21.544  0.00  0.00    +0.092 A 
ATOM      5  C   UNL     1       6.123  -5.215  21.505  0.00  0.00    +0.124 A 
ATOM      6  C   UNL     1       5.320  -5.721  22.521  0.00  0.00    +0.092 A 
ATOM      7  C   UNL     1       4.908  -4.897  23.567  0.00  0.00    +0.142 A 
ATOM      8  C   UNL     1       5.369  -3.551  23.622  0.00  0.00    +0.110 A 
ATOM      9  C   UNL     1       5.012  -2.537  24.676  0.00  0.00    +0.238 A 
ATOM     10  O   UNL     1       4.051  -2.700  25.427  0.00  0.00    -0.283 OA
ATOM     11  C   UNL     1       5.846  -1.281  24.754  0.00  0.00    +0.214 A 
ENDROOT
BRANCH   1  13
ATOM     12  C   UNL     1       7.177   1.020  22.451  0.00  0.00    +0.015 A 
ATOM     13  C   UNL     1       7.510   0.149  23.512  0.00  0.00    +0.025 A 
ATOM     14  C   UNL     1       8.758   0.274  24.130  0.00  0.00    +0.060 A 
ATOM     15  C   UNL     1       9.690   1.160  23.591  0.00  0.00    +0.159 A 
ATOM     16  C   UNL     1       9.391   1.910  22.453  0.00  0.00    +0.158 A 
ATOM     17  C   UNL     1       8.119   1.890  21.908  0.00  0.00    +0.050 A 
BRANCH  16  18
ATOM     18  O   UNL     1      10.408   2.608  21.860  0.00  0.00    -0.503 OA
ATOM     19  H   UNL     1      10.534   2.227  20.973  0.00  0.00    +0.292 HD
ENDBRANCH  16  18
BRANCH  15  20
ATOM     20  O   UNL     1      10.943   1.238  24.131  0.00  0.00    -0.503 OA
ATOM     21  H   UNL     1      10.953   0.554  24.830  0.00  0.00    +0.292 HD
ENDBRANCH  15  20
ENDBRANCH   1  13
BRANCH   5  22
ATOM     22  O   UNL     1       6.437  -6.041  20.468  0.00  0.00    -0.507 OA
ATOM     23  H   UNL     1       5.668  -6.596  20.249  0.00  0.00    +0.292 HD
ENDBRANCH   5  22
BRANCH  11  24
ATOM     24  O   UNL     1       5.979  -0.536  25.919  0.00  0.00    -0.453 OA
BRANCH  24  25
ATOM     25  C   UNL     1       5.207   0.660  26.143  0.00  0.00    +0.340 C 
ATOM     26  O   UNL     1       6.054   1.689  26.708  0.00  0.00    -0.331 OA
ATOM     27  C   UNL     1       6.651   1.382  28.001  0.00  0.00    +0.179 C 
ATOM     28  C   UNL     1       5.797   0.538  28.994  0.00  0.00    +0.177 C 
ATOM     29  C   UNL     1       4.738  -0.341  28.330  0.00  0.00    +0.180 C 
ATOM     30  C   UNL     1       4.087   0.432  27.180  0.00  0.00    +0.214 C 
BRANCH  30  31
ATOM     31  O   UNL     1       2.932  -0.273  26.735  0.00  0.00    -0.383 OA
ATOM     32  H   UNL     1       3.084  -0.618  25.829  0.00  0.00    +0.210 HD
ENDBRANCH  30  31
BRANCH  29  33
ATOM     33  O   UNL     1       3.755  -0.733  29.303  0.00  0.00    -0.386 OA
ATOM     34  H   UNL     1       2.995  -0.135  29.129  0.00  0.00    +0.210 HD
ENDBRANCH  29  33
BRANCH  28  35
ATOM     35  O   UNL     1       5.115   1.375  29.946  0.00  0.00    -0.386 OA
ATOM     36  H   UNL     1       4.496   1.909  29.400  0.00  0.00    +0.210 HD
ENDBRANCH  28  35
BRANCH  27  37
ATOM     37  C   UNL     1       7.041   2.734  28.643  0.00  0.00    +0.190 C 
BRANCH  37  38
ATOM     38  O   UNL     1       7.943   2.536  29.735  0.00  0.00    -0.392 OA
ATOM     39  H   UNL     1       7.383   2.527  30.536  0.00  0.00    +0.210 HD
ENDBRANCH  37  38
ENDBRANCH  27  37
ENDBRANCH  24  25
ENDBRANCH  11  24
BRANCH   7  40
ATOM     40  O   UNL     1       4.086  -5.315  24.551  0.00  0.00    -0.460 OA
BRANCH  40  41
ATOM     41  C   UNL     1       3.954  -6.602  25.204  0.00  0.00    +0.339 C 
ATOM     42  O   UNL     1       3.050  -7.622  24.749  0.00  0.00    -0.331 OA
ATOM     43  C   UNL     1       1.716  -7.715  25.303  0.00  0.00    +0.179 C 
ATOM     44  C   UNL     1       1.534  -7.250  26.766  0.00  0.00    +0.177 C 
ATOM     45  C   UNL     1       2.329  -5.981  27.027  0.00  0.00    +0.180 C 
ATOM     46  C   UNL     1       3.803  -6.262  26.696  0.00  0.00    +0.214 C 
BRANCH  46  47
ATOM     47  O   UNL     1       4.615  -5.148  27.079  0.00  0.00    -0.383 OA
ATOM     48  H   UNL     1       4.274  -4.360  26.599  0.00  0.00    +0.210 HD
ENDBRANCH  46  47
BRANCH  45  49
ATOM     49  O   UNL     1       1.774  -4.874  26.304  0.00  0.00    -0.386 OA
ATOM     50  H   UNL     1       0.820  -4.806  26.492  0.00  0.00    +0.210 HD
ENDBRANCH  45  49
BRANCH  44  51
ATOM     51  O   UNL     1       1.937  -8.267  27.682  0.00  0.00    -0.386 OA
ATOM     52  H   UNL     1       2.320  -7.833  28.466  0.00  0.00    +0.210 HD
ENDBRANCH  44  51
BRANCH  43  53
ATOM     53  C   UNL     1       1.225  -9.178  25.170  0.00  0.00    +0.190 C 
BRANCH  53  54
ATOM     54  O   UNL     1       2.318 -10.092  25.235  0.00  0.00    -0.392 OA
ATOM     55  H   UNL     1       3.034  -9.701  24.702  0.00  0.00    +0.210 HD
ENDBRANCH  53  54
ENDBRANCH  43  53
ENDBRANCH  40  41
ENDBRANCH   7  40
TORSDOF 18
ENDMDL
MODEL 2
REMARK VINA RESULT:      -6.7      1.967      9.275
REMARK  Name = 
REMARK  18 active torsions:
REMARK  status: ('A' for Active; 'I' for Inactive)
REMARK    1  A    between atoms: C_3  and  O_49
REMARK    2  A    between atoms: C_4  and  O_48
REMARK    3  A    between atoms: C_6  and  C_7
REMARK    4  A    between atoms: C_8  and  O_34
REMARK    5  A    between atoms: C_15  and  O_33
REMARK    6  A    between atoms: C_17  and  O_18
REMARK    7  A    between atoms: O_18  and  C_19
REMARK    8  A    between atoms: C_21  and  O_32
REMARK    9  A    between atoms: C_22  and  O_31
REMARK   10  A    between atoms: C_24  and  O_30
REMARK   11  A    between atoms: C_26  and  C_28
REMARK   12  A    between atoms: C_28  and  O_29
REMARK   13  A    between atoms: O_34  and  C_35
REMARK   14  A    between atoms: C_37  and  O_47
REMARK   15  A    between atoms: C_38  and  O_46
REMARK   16  A    between atoms: C_39  and  O_45
REMARK   17  A    between atoms: C_41  and  C_43
REMARK   18  A    between atoms: C_43  and  O_44
REMARK                            x       y       z     vdW  Elec       q    Type
REMARK                         _______ _______ _______ _____ _____    ______ ____
ROOT
ATOM      1  C   UNL     1       4.005  -2.626  26.279  0.00  0.00    +0.181 A 
ATOM      2  O   UNL     1       3.948  -1.599  27.218  0.00  0.00    -0.451 OA
ATOM      3  C   UNL     1       5.015  -0.760  27.359  0.00  0.00    +0.147 A 
ATOM      4  C   UNL     1       5.009   0.021  28.514  0.00  0.00    +0.092 A 
ATOM      5  C   UNL     1       6.044   0.917  28.730  0.00  0.00    +0.124 A 
ATOM      6  C   UNL     1       7.092   1.028  27.822  0.00  0.00    +0.092 A 
ATOM      7  C   UNL     1       7.084   0.279  26.646  0.00  0.00    +0.142 A 
ATOM      8  C   UNL     1       6.028  -0.648  26.413  0.00  0.00    +0.110 A 
ATOM      9  C   UNL     1       5.872  -1.521  25.196  0.00  0.00    +0.238 A 
ATOM     10  O   UNL     1       6.492  -1.295  24.157  0.00  0.00    -0.283 OA
ATOM     11  C   UNL     1       4.888  -2.663  25.272  0.00  0.00    +0.214 A 
ENDROOT
BRANCH   1  13
ATOM     12  C   UNL     1       3.063  -4.320  27.772  0.00  0.00    +0.015 A 
ATOM     13  C   UNL     1       2.936  -3.597  26.566  0.00  0.00    +0.025 A 
ATOM     14  C   UNL     1       1.994  -4.011  25.618  0.00  0.00    +0.060 A 
ATOM     15  C   UNL     1       1.308  -5.206  25.831  0.00  0.00    +0.159 A 
ATOM     16  C   UNL     1       1.553  -5.982  26.964  0.00  0.00    +0.158 A 
ATOM     17  C   UNL     1       2.386  -5.522  27.968  0.00  0.00    +0.050 A 
BRANCH  16  18
ATOM     18  O   UNL     1       0.998  -7.232  27.017  0.00  0.00    -0.503 OA
ATOM     19  H   UNL     1       1.345  -7.663  27.819  0.00  0.00    +0.292 HD
ENDBRANCH  16  18
BRANCH  15  20
ATOM     20  O   UNL     1       0.444  -5.670  24.879  0.00  0.00    -0.503 OA
ATOM     21  H   UNL     1       0.594  -5.090  24.105  0.00  0.00    +0.292 HD
ENDBRANCH  15  20
ENDBRANCH   1  13
BRANCH   5  22
ATOM     22  O   UNL     1       6.063   1.725  29.827  0.00  0.00    -0.507 OA
ATOM     23  H   UNL     1       6.361   2.615  29.572  0.00  0.00    +0.292 HD
ENDBRANCH   5  22
BRANCH  11  24
ATOM     24  O   UNL     1       4.994  -3.802  24.486  0.00  0.00    -0.453 OA
BRANCH  24  25
ATOM     25  C   UNL     1       5.491  -5.045  25.020  0.00  0.00    +0.340 C 
ATOM     26  O   UNL     1       6.875  -4.889  25.415  0.00  0.00    -0.331 OA
ATOM     27  C   UNL     1       7.805  -4.542  24.349  0.00  0.00    +0.179 C 
ATOM     28  C   UNL     1       7.531  -5.153  22.942  0.00  0.00    +0.177 C 
ATOM     29  C   UNL     1       6.072  -5.536  22.691  0.00  0.00    +0.180 C 
ATOM     30  C   UNL     1       5.489  -6.165  23.959  0.00  0.00    +0.214 C 
BRANCH  30  31
ATOM     31  O   UNL     1       4.231  -6.758  23.651  0.00  0.00    -0.383 OA
ATOM     32  H   UNL     1       4.062  -6.696  22.687  0.00  0.00    +0.210 HD
ENDBRANCH  30  31
BRANCH  29  33
ATOM     33  O   UNL     1       5.996  -6.451  21.584  0.00  0.00    -0.386 OA
ATOM     34  H   UNL     1       6.549  -7.213  21.866  0.00  0.00    +0.210 HD
ENDBRANCH  29  33
BRANCH  28  35
ATOM     35  O   UNL     1       8.322  -6.335  22.717  0.00  0.00    -0.386 OA
ATOM     36  H   UNL     1       8.584  -6.276  21.772  0.00  0.00    +0.210 HD
ENDBRANCH  28  35
BRANCH  27  37
ATOM     37  C   UNL     1       9.215  -4.942  24.842  0.00  0.00    +0.190 C 
BRANCH  37  38
ATOM     38  O   UNL     1       9.169  -6.175  25.566  0.00  0.00    -0.392 OA
ATOM     39  H   UNL     1       8.219  -6.360  25.705  0.00  0.00    +0.210 HD
ENDBRANCH  37  38
ENDBRANCH  27  37
ENDBRANCH  24  25
ENDBRANCH  11  24
BRANCH   7  40
ATOM     40  O   UNL     1       8.042   0.384  25.704  0.00  0.00    -0.460 OA
BRANCH  40  41
ATOM     41  C   UNL     1       8.484   1.513  24.911  0.00  0.00    +0.339 C 
ATOM     42  O   UNL     1       7.675   2.119  23.890  0.00  0.00    -0.331 OA
ATOM     43  C   UNL     1       7.793   1.689  22.514  0.00  0.00    +0.179 C 
ATOM     44  C   UNL     1       9.176   1.168  22.062  0.00  0.00    +0.177 C 
ATOM     45  C   UNL     1       9.797   0.293  23.140  0.00  0.00    +0.180 C 
ATOM     46  C   UNL     1       9.892   1.118  24.431  0.00  0.00    +0.214 C 
BRANCH  46  47
ATOM     47  O   UNL     1      10.616   0.392  25.429  0.00  0.00    -0.383 OA
ATOM     48  H   UNL     1      10.929  -0.442  25.012  0.00  0.00    +0.210 HD
ENDBRANCH  46  47
BRANCH  45  49
ATOM     49  O   UNL     1       9.064  -0.930  23.287  0.00  0.00    -0.386 OA
ATOM     50  H   UNL     1       9.441  -1.610  22.698  0.00  0.00    +0.210 HD
ENDBRANCH  45  49
BRANCH  44  51
ATOM     51  O   UNL     1      10.057   2.248  21.754  0.00  0.00    -0.386 OA
ATOM     52  H   UNL     1      10.612   2.418  22.535  0.00  0.00    +0.210 HD
ENDBRANCH  44  51
BRANCH  43  53
ATOM     53  C   UNL     1       7.364   2.857  21.591  0.00  0.00    +0.190 C 
BRANCH  53  54
ATOM     54  O   UNL     1       7.868   4.101  22.073  0.00  0.00    -0.392 OA
ATOM     55  H   UNL     1       8.794   3.940  22.332  0.00  0.00    +0.210 HD
ENDBRANCH  53  54
ENDBRANCH  43  53
ENDBRANCH  40  41
ENDBRANCH   7  40
TORSDOF 18
ENDMDL
MODEL 3
REMARK VINA RESULT:      -6.6      1.108      2.031
REMARK  Name = 
REMARK  18 active torsions:
REMARK  status: ('A' for Active; 'I' for Inactive)
REMARK    1  A    between atoms: C_3  and  O_49
REMARK    2  A    between atoms: C_4  and  O_48
REMARK    3  A    between atoms: C_6  and  C_7
REMARK    4  A    between atoms: C_8  and  O_34
REMARK    5  A    between atoms: C_15  and  O_33
REMARK    6  A    between atoms: C_17  and  O_18
REMARK    7  A    between atoms: O_18  and  C_19
REMARK    8  A    between atoms: C_21  and  O_32
REMARK    9  A    between atoms: C_22  and  O_31
REMARK   10  A    between atoms: C_24  and  O_30
REMARK   11  A    between atoms: C_26  and  C_28
REMARK   12  A    between atoms: C_28  and  O_29
REMARK   13  A    between atoms: O_34  and  C_35
REMARK   14  A    between atoms: C_37  and  O_47
REMARK   15  A    between atoms: C_38  and  O_46
REMARK   16  A    between atoms: C_39  and  O_45
REMARK   17  A    between atoms: C_41  and  C_43
REMARK   18  A    between atoms: C_43  and  O_44
REMARK                            x       y       z     vdW  Elec       q    Type
REMARK                         _______ _______ _______ _____ _____    ______ ____
ROOT
ATOM      1  C   UNL     1       6.625  -1.020  23.714  0.00  0.00    +0.181 A 
ATOM      2  O   UNL     1       6.594  -1.822  22.576  0.00  0.00    -0.451 OA
ATOM      3  C   UNL     1       6.108  -3.094  22.666  0.00  0.00    +0.147 A 
ATOM      4  C   UNL     1       6.404  -3.921  21.582  0.00  0.00    +0.092 A 
ATOM      5  C   UNL     1       5.933  -5.225  21.579  0.00  0.00    +0.124 A 
ATOM      6  C   UNL     1       5.192  -5.718  22.648  0.00  0.00    +0.092 A 
ATOM      7  C   UNL     1       4.859  -4.884  23.715  0.00  0.00    +0.142 A 
ATOM      8  C   UNL     1       5.339  -3.543  23.734  0.00  0.00    +0.110 A 
ATOM      9  C   UNL     1       5.064  -2.521  24.804  0.00  0.00    +0.238 A 
ATOM     10  O   UNL     1       4.152  -2.669  25.617  0.00  0.00    -0.283 OA
ATOM     11  C   UNL     1       5.915  -1.275  24.821  0.00  0.00    +0.214 A 
ENDROOT
BRANCH   1  13
ATOM     12  C   UNL     1       7.187   0.932  22.350  0.00  0.00    +0.015 A 
ATOM     13  C   UNL     1       7.511   0.130  23.466  0.00  0.00    +0.025 A 
ATOM     14  C   UNL     1       8.754   0.295  24.088  0.00  0.00    +0.060 A 
ATOM     15  C   UNL     1       9.689   1.149  23.504  0.00  0.00    +0.159 A 
ATOM     16  C   UNL     1       9.400   1.826  22.318  0.00  0.00    +0.158 A 
ATOM     17  C   UNL     1       8.134   1.769  21.763  0.00  0.00    +0.050 A 
BRANCH  16  18
ATOM     18  O   UNL     1      10.421   2.488  21.693  0.00  0.00    -0.503 OA
ATOM     19  H   UNL     1      10.046   2.902  20.895  0.00  0.00    +0.292 HD
ENDBRANCH  16  18
BRANCH  15  20
ATOM     20  O   UNL     1      10.936   1.263  24.050  0.00  0.00    -0.503 OA
ATOM     21  H   UNL     1      11.547   1.165  23.291  0.00  0.00    +0.292 HD
ENDBRANCH  15  20
ENDBRANCH   1  13
BRANCH   5  22
ATOM     22  O   UNL     1       6.167  -6.059  20.528  0.00  0.00    -0.507 OA
ATOM     23  H   UNL     1       6.065  -5.570  19.694  0.00  0.00    +0.292 HD
ENDBRANCH   5  22
BRANCH  11  24
ATOM     24  O   UNL     1       6.133  -0.528  25.971  0.00  0.00    -0.453 OA
BRANCH  24  25
ATOM     25  C   UNL     1       5.053   0.132  26.660  0.00  0.00    +0.340 C 
ATOM     26  O   UNL     1       4.298   0.939  25.724  0.00  0.00    -0.331 OA
ATOM     27  C   UNL     1       5.036   2.013  25.072  0.00  0.00    +0.179 C 
ATOM     28  C   UNL     1       6.131   2.734  25.914  0.00  0.00    +0.177 C 
ATOM     29  C   UNL     1       6.704   1.897  27.059  0.00  0.00    +0.180 C 
ATOM     30  C   UNL     1       5.572   1.116  27.729  0.00  0.00    +0.214 C 
BRANCH  30  31
ATOM     31  O   UNL     1       6.050   0.550  28.946  0.00  0.00    -0.383 OA
ATOM     32  H   UNL     1       6.967   0.226  28.823  0.00  0.00    +0.210 HD
ENDBRANCH  30  31
BRANCH  29  33
ATOM     33  O   UNL     1       7.361   2.758  28.005  0.00  0.00    -0.386 OA
ATOM     34  H   UNL     1       6.639   3.323  28.355  0.00  0.00    +0.210 HD
ENDBRANCH  29  33
BRANCH  28  35
ATOM     35  O   UNL     1       5.633   3.955  26.492  0.00  0.00    -0.386 OA
ATOM     36  H   UNL     1       5.479   3.732  27.437  0.00  0.00    +0.210 HD
ENDBRANCH  28  35
BRANCH  27  37
ATOM     37  C   UNL     1       3.987   3.032  24.570  0.00  0.00    +0.190 C 
BRANCH  37  38
ATOM     38  O   UNL     1       4.611   4.071  23.812  0.00  0.00    -0.392 OA
ATOM     39  H   UNL     1       4.482   4.888  24.334  0.00  0.00    +0.210 HD
ENDBRANCH  37  38
ENDBRANCH  27  37
ENDBRANCH  24  25
ENDBRANCH  11  24
BRANCH   7  40
ATOM     40  O   UNL     1       4.098  -5.288  24.752  0.00  0.00    -0.460 OA
BRANCH  40  41
ATOM     41  C   UNL     1       3.929  -6.592  25.363  0.00  0.00    +0.339 C 
ATOM     42  O   UNL     1       3.141  -7.637  24.772  0.00  0.00    -0.331 OA
ATOM     43  C   UNL     1       1.747  -7.793  25.129  0.00  0.00    +0.179 C 
ATOM     44  C   UNL     1       1.342  -7.363  26.558  0.00  0.00    +0.177 C 
ATOM     45  C   UNL     1       2.039  -6.069  26.946  0.00  0.00    +0.180 C 
ATOM     46  C   UNL     1       3.554  -6.286  26.823  0.00  0.00    +0.214 C 
BRANCH  46  47
ATOM     47  O   UNL     1       4.258  -5.149  27.332  0.00  0.00    -0.383 OA
ATOM     48  H   UNL     1       3.695  -4.746  28.031  0.00  0.00    +0.210 HD
ENDBRANCH  46  47
BRANCH  45  49
ATOM     49  O   UNL     1       1.546  -4.972  26.166  0.00  0.00    -0.386 OA
ATOM     50  H   UNL     1       1.352  -5.275  25.260  0.00  0.00    +0.210 HD
ENDBRANCH  45  49
BRANCH  44  51
ATOM     51  O   UNL     1       1.654  -8.381  27.509  0.00  0.00    -0.386 OA
ATOM     52  H   UNL     1       1.155  -8.196  28.324  0.00  0.00    +0.210 HD
ENDBRANCH  44  51
BRANCH  43  53
ATOM     53  C   UNL     1       1.341  -9.271  24.908  0.00  0.00    +0.190 C 
BRANCH  53  54
ATOM     54  O   UNL     1       2.365 -10.156  25.358  0.00  0.00    -0.392 OA
ATOM     55  H   UNL     1       3.170  -9.917  24.864  0.00  0.00    +0.210 HD
ENDBRANCH  53  54
ENDBRANCH  43  53
ENDBRANCH  40  41
ENDBRANCH   7  40
TORSDOF 18
ENDMDL
MODEL 4
REMARK VINA RESULT:      -6.6      2.003      9.549
REMARK  Name = 
REMARK  18 active torsions:
REMARK  status: ('A' for Active; 'I' for Inactive)
REMARK    1  A    between atoms: C_3  and  O_49
REMARK    2  A    between atoms: C_4  and  O_48
REMARK    3  A    between atoms: C_6  and  C_7
REMARK    4  A    between atoms: C_8  and  O_34
REMARK    5  A    between atoms: C_15  and  O_33
REMARK    6  A    between atoms: C_17  and  O_18
REMARK    7  A    between atoms: O_18  and  C_19
REMARK    8  A    between atoms: C_21  and  O_32
REMARK    9  A    between atoms: C_22  and  O_31
REMARK   10  A    between atoms: C_24  and  O_30
REMARK   11  A    between atoms: C_26  and  C_28
REMARK   12  A    between atoms: C_28  and  O_29
REMARK   13  A    between atoms: O_34  and  C_35
REMARK   14  A    between atoms: C_37  and  O_47
REMARK   15  A    between atoms: C_38  and  O_46
REMARK   16  A    between atoms: C_39  and  O_45
REMARK   17  A    between atoms: C_41  and  C_43
REMARK   18  A    between atoms: C_43  and  O_44
REMARK                            x       y       z     vdW  Elec       q    Type
REMARK                         _______ _______ _______ _____ _____    ______ ____
ROOT
ATOM      1  C   UNL     1       4.238  -2.741  27.792  0.00  0.00    +0.181 A 
ATOM      2  O   UNL     1       4.242  -1.644  28.652  0.00  0.00    -0.451 OA
ATOM      3  C   UNL     1       4.944  -0.526  28.308  0.00  0.00    +0.147 A 
ATOM      4  C   UNL     1       5.158   0.383  29.344  0.00  0.00    +0.092 A 
ATOM      5  C   UNL     1       5.845   1.557  29.081  0.00  0.00    +0.124 A 
ATOM      6  C   UNL     1       6.338   1.826  27.809  0.00  0.00    +0.092 A 
ATOM      7  C   UNL     1       6.093   0.940  26.760  0.00  0.00    +0.142 A 
ATOM      8  C   UNL     1       5.391  -0.273  27.016  0.00  0.00    +0.110 A 
ATOM      9  C   UNL     1       5.043  -1.324  25.997  0.00  0.00    +0.238 A 
ATOM     10  O   UNL     1       5.080  -1.087  24.789  0.00  0.00    -0.283 OA
ATOM     11  C   UNL     1       4.597  -2.674  26.503  0.00  0.00    +0.214 A 
ENDROOT
BRANCH   1  13
ATOM     12  C   UNL     1       4.683  -4.553  29.374  0.00  0.00    +0.015 A 
ATOM     13  C   UNL     1       3.750  -3.922  28.524  0.00  0.00    +0.025 A 
ATOM     14  C   UNL     1       2.550  -4.575  28.222  0.00  0.00    +0.060 A 
ATOM     15  C   UNL     1       2.372  -5.888  28.657  0.00  0.00    +0.159 A 
ATOM     16  C   UNL     1       3.370  -6.546  29.378  0.00  0.00    +0.158 A 
ATOM     17  C   UNL     1       4.505  -5.871  29.789  0.00  0.00    +0.050 A 
BRANCH  16  18
ATOM     18  O   UNL     1       3.219  -7.887  29.602  0.00  0.00    -0.503 OA
ATOM     19  H   UNL     1       4.080  -8.305  29.418  0.00  0.00    +0.292 HD
ENDBRANCH  16  18
BRANCH  15  20
ATOM     20  O   UNL     1       1.243  -6.572  28.305  0.00  0.00    -0.503 OA
ATOM     21  H   UNL     1       1.530  -7.505  28.241  0.00  0.00    +0.292 HD
ENDBRANCH  15  20
ENDBRANCH   1  13
BRANCH   5  22
ATOM     22  O   UNL     1       6.049   2.491  30.053  0.00  0.00    -0.507 OA
ATOM     23  H   UNL     1       5.991   3.382  29.668  0.00  0.00    +0.292 HD
ENDBRANCH   5  22
BRANCH  11  24
ATOM     24  O   UNL     1       4.733  -3.840  25.761  0.00  0.00    -0.453 OA
BRANCH  24  25
ATOM     25  C   UNL     1       5.998  -4.520  25.649  0.00  0.00    +0.340 C 
ATOM     26  O   UNL     1       6.725  -4.015  24.503  0.00  0.00    -0.331 OA
ATOM     27  C   UNL     1       6.083  -4.206  23.209  0.00  0.00    +0.179 C 
ATOM     28  C   UNL     1       5.261  -5.514  23.011  0.00  0.00    +0.177 C 
ATOM     29  C   UNL     1       4.738  -6.136  24.307  0.00  0.00    +0.180 C 
ATOM     30  C   UNL     1       5.815  -6.030  25.389  0.00  0.00    +0.214 C 
BRANCH  30  31
ATOM     31  O   UNL     1       5.441  -6.834  26.504  0.00  0.00    -0.383 OA
ATOM     32  H   UNL     1       5.592  -6.337  27.336  0.00  0.00    +0.210 HD
ENDBRANCH  30  31
BRANCH  29  33
ATOM     33  O   UNL     1       4.381  -7.510  24.074  0.00  0.00    -0.386 OA
ATOM     34  H   UNL     1       5.234  -7.992  24.139  0.00  0.00    +0.210 HD
ENDBRANCH  29  33
BRANCH  28  35
ATOM     35  O   UNL     1       6.033  -6.526  22.339  0.00  0.00    -0.386 OA
ATOM     36  H   UNL     1       6.619  -6.021  21.732  0.00  0.00    +0.210 HD
ENDBRANCH  28  35
BRANCH  27  37
ATOM     37  C   UNL     1       7.197  -4.105  22.141  0.00  0.00    +0.190 C 
BRANCH  37  38
ATOM     38  O   UNL     1       7.912  -2.873  22.269  0.00  0.00    -0.392 OA
ATOM     39  H   UNL     1       8.628  -3.053  22.910  0.00  0.00    +0.210 HD
ENDBRANCH  37  38
ENDBRANCH  27  37
ENDBRANCH  24  25
ENDBRANCH  11  24
BRANCH   7  40
ATOM     40  O   UNL     1       6.498   1.171  25.495  0.00  0.00    -0.460 OA
BRANCH  40  41
ATOM     41  C   UNL     1       7.678   1.831  24.974  0.00  0.00    +0.339 C 
ATOM     42  O   UNL     1       7.705   3.223  24.621  0.00  0.00    -0.331 OA
ATOM     43  C   UNL     1       7.430   3.638  23.262  0.00  0.00    +0.179 C 
ATOM     44  C   UNL     1       7.813   2.646  22.140  0.00  0.00    +0.177 C 
ATOM     45  C   UNL     1       7.457   1.222  22.539  0.00  0.00    +0.180 C 
ATOM     46  C   UNL     1       8.177   0.900  23.857  0.00  0.00    +0.214 C 
BRANCH  46  47
ATOM     47  O   UNL     1       8.003  -0.481  24.190  0.00  0.00    -0.383 OA
ATOM     48  H   UNL     1       8.832  -0.947  23.941  0.00  0.00    +0.210 HD
ENDBRANCH  46  47
BRANCH  45  49
ATOM     49  O   UNL     1       6.035   1.051  22.600  0.00  0.00    -0.386 OA
ATOM     50  H   UNL     1       5.691   1.456  23.417  0.00  0.00    +0.210 HD
ENDBRANCH  45  49
BRANCH  44  51
ATOM     51  O   UNL     1       9.205   2.725  21.836  0.00  0.00    -0.386 OA
ATOM     52  H   UNL     1       9.362   3.557  21.354  0.00  0.00    +0.210 HD
ENDBRANCH  44  51
BRANCH  43  53
ATOM     53  C   UNL     1       8.135   4.993  23.005  0.00  0.00    +0.190 C 
BRANCH  53  54
ATOM     54  O   UNL     1       7.761   5.532  21.739  0.00  0.00    -0.392 OA
ATOM     55  H   UNL     1       8.512   5.371  21.139  0.00  0.00    +0.210 HD
ENDBRANCH  53  54
ENDBRANCH  43  53
ENDBRANCH  40  41
ENDBRANCH   7  40
TORSDOF 18
ENDMDL
MODEL 5
REMARK VINA RESULT:      -6.6      2.276      3.197
REMARK  Name = 
REMARK  18 active torsions:
REMARK  status: ('A' for Active; 'I' for Inactive)
REMARK    1  A    between atoms: C_3  and  O_49
REMARK    2  A    between atoms: C_4  and  O_48
REMARK    3  A    between atoms: C_6  and  C_7
REMARK    4  A    between atoms: C_8  and  O_34
REMARK    5  A    between atoms: C_15  and  O_33
REMARK    6  A    between atoms: C_17  and  O_18
REMARK    7  A    between atoms: O_18  and  C_19
REMARK    8  A    between atoms: C_21  and  O_32
REMARK    9  A    between atoms: C_22  and  O_31
REMARK   10  A    between atoms: C_24  and  O_30
REMARK   11  A    between atoms: C_26  and  C_28
REMARK   12  A    between atoms: C_28  and  O_29
REMARK   13  A    between atoms: O_34  and  C_35
REMARK   14  A    between atoms: C_37  and  O_47
REMARK   15  A    between atoms: C_38  and  O_46
REMARK   16  A    between atoms: C_39  and  O_45
REMARK   17  A    between atoms: C_41  and  C_43
REMARK   18  A    between atoms: C_43  and  O_44
REMARK                            x       y       z     vdW  Elec       q    Type
REMARK                         _______ _______ _______ _____ _____    ______ ____
ROOT
ATOM      1  C   UNL     1       7.748  -0.547  23.939  0.00  0.00    +0.181 A 
ATOM      2  O   UNL     1       8.588  -1.653  23.821  0.00  0.00    -0.451 OA
ATOM      3  C   UNL     1       8.261  -2.813  24.461  0.00  0.00    +0.147 A 
ATOM      4  C   UNL     1       9.291  -3.749  24.556  0.00  0.00    +0.092 A 
ATOM      5  C   UNL     1       9.043  -4.965  25.173  0.00  0.00    +0.124 A 
ATOM      6  C   UNL     1       7.794  -5.249  25.714  0.00  0.00    +0.092 A 
ATOM      7  C   UNL     1       6.750  -4.334  25.587  0.00  0.00    +0.142 A 
ATOM      8  C   UNL     1       6.990  -3.079  24.958  0.00  0.00    +0.110 A 
ATOM      9  C   UNL     1       5.972  -1.991  24.738  0.00  0.00    +0.238 A 
ATOM     10  O   UNL     1       4.765  -2.213  24.823  0.00  0.00    -0.283 OA
ATOM     11  C   UNL     1       6.479  -0.621  24.360  0.00  0.00    +0.214 A 
ENDROOT
BRANCH   1  13
ATOM     12  C   UNL     1       9.656   0.962  24.204  0.00  0.00    +0.015 A 
ATOM     13  C   UNL     1       8.475   0.654  23.494  0.00  0.00    +0.025 A 
ATOM     14  C   UNL     1       7.931   1.608  22.627  0.00  0.00    +0.060 A 
ATOM     15  C   UNL     1       8.493   2.884  22.595  0.00  0.00    +0.159 A 
ATOM     16  C   UNL     1       9.575   3.212  23.413  0.00  0.00    +0.158 A 
ATOM     17  C   UNL     1      10.199   2.244  24.179  0.00  0.00    +0.050 A 
BRANCH  16  18
ATOM     18  O   UNL     1       9.952   4.526  23.481  0.00  0.00    -0.503 OA
ATOM     19  H   UNL     1      10.313   4.672  24.374  0.00  0.00    +0.292 HD
ENDBRANCH  16  18
BRANCH  15  20
ATOM     20  O   UNL     1       7.928   3.854  21.816  0.00  0.00    -0.503 OA
ATOM     21  H   UNL     1       8.448   4.660  22.010  0.00  0.00    +0.292 HD
ENDBRANCH  15  20
ENDBRANCH   1  13
BRANCH   5  22
ATOM     22  O   UNL     1      10.008  -5.924  25.260  0.00  0.00    -0.507 OA
ATOM     23  H   UNL     1       9.634  -6.787  25.011  0.00  0.00    +0.292 HD
ENDBRANCH   5  22
BRANCH  11  24
ATOM     24  O   UNL     1       5.766   0.543  24.616  0.00  0.00    -0.453 OA
BRANCH  24  25
ATOM     25  C   UNL     1       5.295   0.864  25.939  0.00  0.00    +0.340 C 
ATOM     26  O   UNL     1       4.001   1.507  25.855  0.00  0.00    -0.331 OA
ATOM     27  C   UNL     1       3.965   2.770  25.129  0.00  0.00    +0.179 C 
ATOM     28  C   UNL     1       5.212   3.694  25.251  0.00  0.00    +0.177 C 
ATOM     29  C   UNL     1       6.510   2.965  25.600  0.00  0.00    +0.180 C 
ATOM     30  C   UNL     1       6.217   1.883  26.643  0.00  0.00    +0.214 C 
BRANCH  30  31
ATOM     31  O   UNL     1       7.447   1.386  27.161  0.00  0.00    -0.383 OA
ATOM     32  H   UNL     1       7.291   0.536  27.626  0.00  0.00    +0.210 HD
ENDBRANCH  30  31
BRANCH  29  33
ATOM     33  O   UNL     1       7.476   3.907  26.099  0.00  0.00    -0.386 OA
ATOM     34  H   UNL     1       8.266   3.357  26.293  0.00  0.00    +0.210 HD
ENDBRANCH  29  33
BRANCH  28  35
ATOM     35  O   UNL     1       5.019   4.712  26.251  0.00  0.00    -0.386 OA
ATOM     36  H   UNL     1       5.207   4.257  27.101  0.00  0.00    +0.210 HD
ENDBRANCH  28  35
BRANCH  27  37
ATOM     37  C   UNL     1       2.695   3.517  25.599  0.00  0.00    +0.190 C 
BRANCH  37  38
ATOM     38  O   UNL     1       2.525   3.388  27.014  0.00  0.00    -0.392 OA
ATOM     39  H   UNL     1       3.005   4.145  27.403  0.00  0.00    +0.210 HD
ENDBRANCH  37  38
ENDBRANCH  27  37
ENDBRANCH  24  25
ENDBRANCH  11  24
BRANCH   7  40
ATOM     40  O   UNL     1       5.504  -4.575  26.042  0.00  0.00    -0.460 OA
BRANCH  40  41
ATOM     41  C   UNL     1       4.814  -5.817  26.329  0.00  0.00    +0.339 C 
ATOM     42  O   UNL     1       4.283  -6.672  25.304  0.00  0.00    -0.331 OA
ATOM     43  C   UNL     1       2.906  -6.536  24.879  0.00  0.00    +0.179 C 
ATOM     44  C   UNL     1       1.896  -6.038  25.938  0.00  0.00    +0.177 C 
ATOM     45  C   UNL     1       2.502  -4.919  26.772  0.00  0.00    +0.180 C 
ATOM     46  C   UNL     1       3.792  -5.446  27.417  0.00  0.00    +0.214 C 
BRANCH  46  47
ATOM     47  O   UNL     1       4.313  -4.483  28.338  0.00  0.00    -0.383 OA
ATOM     48  H   UNL     1       4.669  -4.981  29.108  0.00  0.00    +0.210 HD
ENDBRANCH  46  47
BRANCH  45  49
ATOM     49  O   UNL     1       2.691  -3.739  25.979  0.00  0.00    -0.386 OA
ATOM     50  H   UNL     1       1.865  -3.222  25.960  0.00  0.00    +0.210 HD
ENDBRANCH  45  49
BRANCH  44  51
ATOM     51  O   UNL     1       1.480  -7.102  26.793  0.00  0.00    -0.386 OA
ATOM     52  H   UNL     1       1.464  -6.767  27.707  0.00  0.00    +0.210 HD
ENDBRANCH  44  51
BRANCH  43  53
ATOM     53  C   UNL     1       2.424  -7.896  24.317  0.00  0.00    +0.190 C 
BRANCH  53  54
ATOM     54  O   UNL     1       2.806  -8.969  25.175  0.00  0.00    -0.392 OA
ATOM     55  H   UNL     1       2.060  -9.596  25.179  0.00  0.00    +0.210 HD
ENDBRANCH  53  54
ENDBRANCH  43  53
ENDBRANCH  40  41
ENDBRANCH   7  40
TORSDOF 18
ENDMDL
MODEL 6
REMARK VINA RESULT:      -6.4      2.341      5.511
REMARK  Name = 
REMARK  18 active torsions:
REMARK  status: ('A' for Active; 'I' for Inactive)
REMARK    1  A    between atoms: C_3  and  O_49
REMARK    2  A    between atoms: C_4  and  O_48
REMARK    3  A    between atoms: C_6  and  C_7
REMARK    4  A    between atoms: C_8  and  O_34
REMARK    5  A    between atoms: C_15  and  O_33
REMARK    6  A    between atoms: C_17  and  O_18
REMARK    7  A    between atoms: O_18  and  C_19
REMARK    8  A    between atoms: C_21  and  O_32
REMARK    9  A    between atoms: C_22  and  O_31
REMARK   10  A    between atoms: C_24  and  O_30
REMARK   11  A    between atoms: C_26  and  C_28
REMARK   12  A    between atoms: C_28  and  O_29
REMARK   13  A    between atoms: O_34  and  C_35
REMARK   14  A    between atoms: C_37  and  O_47
REMARK   15  A    between atoms: C_38  and  O_46
REMARK   16  A    between atoms: C_39  and  O_45
REMARK   17  A    between atoms: C_41  and  C_43
REMARK   18  A    between atoms: C_43  and  O_44
REMARK                            x       y       z     vdW  Elec       q    Type
REMARK                         _______ _______ _______ _____ _____    ______ ____
ROOT
ATOM      1  C   UNL     1       6.282   1.130  26.464  0.00  0.00    +0.181 A 
ATOM      2  O   UNL     1       5.380   0.887  27.498  0.00  0.00    -0.451 OA
ATOM      3  C   UNL     1       4.936  -0.384  27.714  0.00  0.00    +0.147 A 
ATOM      4  C   UNL     1       3.816  -0.490  28.539  0.00  0.00    +0.092 A 
ATOM      5  C   UNL     1       3.308  -1.746  28.830  0.00  0.00    +0.124 A 
ATOM      6  C   UNL     1       3.886  -2.891  28.294  0.00  0.00    +0.092 A 
ATOM      7  C   UNL     1       5.029  -2.795  27.501  0.00  0.00    +0.142 A 
ATOM      8  C   UNL     1       5.561  -1.511  27.191  0.00  0.00    +0.110 A 
ATOM      9  C   UNL     1       6.786  -1.239  26.359  0.00  0.00    +0.238 A 
ATOM     10  O   UNL     1       7.608  -2.123  26.115  0.00  0.00    -0.283 OA
ATOM     11  C   UNL     1       7.004   0.172  25.868  0.00  0.00    +0.214 A 
ENDROOT
BRANCH   1  13
ATOM     12  C   UNL     1       5.565   3.016  25.080  0.00  0.00    +0.015 A 
ATOM     13  C   UNL     1       6.318   2.577  26.190  0.00  0.00    +0.025 A 
ATOM     14  C   UNL     1       7.237   3.451  26.781  0.00  0.00    +0.060 A 
ATOM     15  C   UNL     1       7.480   4.681  26.171  0.00  0.00    +0.159 A 
ATOM     16  C   UNL     1       6.827   5.039  24.991  0.00  0.00    +0.158 A 
ATOM     17  C   UNL     1       5.828   4.239  24.468  0.00  0.00    +0.050 A 
BRANCH  16  18
ATOM     18  O   UNL     1       7.253   6.165  24.339  0.00  0.00    -0.503 OA
ATOM     19  H   UNL     1       7.955   6.562  24.885  0.00  0.00    +0.292 HD
ENDBRANCH  16  18
BRANCH  15  20
ATOM     20  O   UNL     1       8.432   5.516  26.686  0.00  0.00    -0.503 OA
ATOM     21  H   UNL     1       9.239   5.321  26.168  0.00  0.00    +0.292 HD
ENDBRANCH  15  20
ENDBRANCH   1  13
BRANCH   5  22
ATOM     22  O   UNL     1       2.237  -1.901  29.658  0.00  0.00    -0.507 OA
ATOM     23  H   UNL     1       1.724  -2.682  29.386  0.00  0.00    +0.292 HD
ENDBRANCH   5  22
BRANCH  11  24
ATOM     24  O   UNL     1       7.747   0.468  24.733  0.00  0.00    -0.453 OA
BRANCH  24  25
ATOM     25  C   UNL     1       9.186   0.530  24.767  0.00  0.00    +0.340 C 
ATOM     26  O   UNL     1       9.614   1.913  24.802  0.00  0.00    -0.331 OA
ATOM     27  C   UNL     1       9.233   2.725  23.654  0.00  0.00    +0.179 C 
ATOM     28  C   UNL     1       9.207   2.022  22.265  0.00  0.00    +0.177 C 
ATOM     29  C   UNL     1       9.005   0.507  22.324  0.00  0.00    +0.180 C 
ATOM     30  C   UNL     1       9.815  -0.065  23.490  0.00  0.00    +0.214 C 
BRANCH  30  31
ATOM     31  O   UNL     1       9.843  -1.486  23.389  0.00  0.00    -0.383 OA
ATOM     32  H   UNL     1      10.180  -1.748  22.506  0.00  0.00    +0.210 HD
ENDBRANCH  30  31
BRANCH  29  33
ATOM     33  O   UNL     1       9.414  -0.084  21.079  0.00  0.00    -0.386 OA
ATOM     34  H   UNL     1      10.301  -0.458  21.272  0.00  0.00    +0.210 HD
ENDBRANCH  29  33
BRANCH  28  35
ATOM     35  O   UNL     1      10.424   2.257  21.533  0.00  0.00    -0.386 OA
ATOM     36  H   UNL     1      11.135   1.945  22.135  0.00  0.00    +0.210 HD
ENDBRANCH  28  35
BRANCH  27  37
ATOM     37  C   UNL     1      10.196   3.935  23.627  0.00  0.00    +0.190 C 
BRANCH  37  38
ATOM     38  O   UNL     1       9.581   5.058  22.987  0.00  0.00    -0.392 OA
ATOM     39  H   UNL     1       8.828   5.303  23.560  0.00  0.00    +0.210 HD
ENDBRANCH  37  38
ENDBRANCH  27  37
ENDBRANCH  24  25
ENDBRANCH  11  24
BRANCH   7  40
ATOM     40  O   UNL     1       5.666  -3.872  26.999  0.00  0.00    -0.460 OA
BRANCH  40  41
ATOM     41  C   UNL     1       5.552  -4.538  25.717  0.00  0.00    +0.339 C 
ATOM     42  O   UNL     1       4.376  -4.462  24.897  0.00  0.00    -0.331 OA
ATOM     43  C   UNL     1       3.345  -5.472  25.001  0.00  0.00    +0.179 C 
ATOM     44  C   UNL     1       3.801  -6.894  25.402  0.00  0.00    +0.177 C 
ATOM     45  C   UNL     1       4.853  -6.830  26.498  0.00  0.00    +0.180 C 
ATOM     46  C   UNL     1       6.024  -5.977  25.989  0.00  0.00    +0.214 C 
BRANCH  46  47
ATOM     47  O   UNL     1       7.108  -6.020  26.923  0.00  0.00    -0.383 OA
ATOM     48  H   UNL     1       7.735  -5.305  26.673  0.00  0.00    +0.210 HD
ENDBRANCH  46  47
BRANCH  45  49
ATOM     49  O   UNL     1       4.281  -6.355  27.725  0.00  0.00    -0.386 OA
ATOM     50  H   UNL     1       3.833  -5.503  27.569  0.00  0.00    +0.210 HD
ENDBRANCH  45  49
BRANCH  44  51
ATOM     51  O   UNL     1       4.321  -7.604  24.279  0.00  0.00    -0.386 OA
ATOM     52  H   UNL     1       5.069  -7.094  23.919  0.00  0.00    +0.210 HD
ENDBRANCH  44  51
BRANCH  43  53
ATOM     53  C   UNL     1       2.583  -5.544  23.654  0.00  0.00    +0.190 C 
BRANCH  53  54
ATOM     54  O   UNL     1       3.490  -5.647  22.559  0.00  0.00    -0.392 OA
ATOM     55  H   UNL     1       2.945  -5.794  21.764  0.00  0.00    +0.210 HD
ENDBRANCH  53  54
ENDBRANCH  43  53
ENDBRANCH  40  41
ENDBRANCH   7  40
TORSDOF 18
ENDMDL
MODEL 7
REMARK VINA RESULT:      -6.2      2.668      5.403
REMARK  Name = 
REMARK  18 active torsions:
REMARK  status: ('A' for Active; 'I' for Inactive)
REMARK    1  A    between atoms: C_3  and  O_49
REMARK    2  A    between atoms: C_4  and  O_48
REMARK    3  A    between atoms: C_6  and  C_7
REMARK    4  A    between atoms: C_8  and  O_34
REMARK    5  A    between atoms: C_15  and  O_33
REMARK    6  A    between atoms: C_17  and  O_18
REMARK    7  A    between atoms: O_18  and  C_19
REMARK    8  A    between atoms: C_21  and  O_32
REMARK    9  A    between atoms: C_22  and  O_31
REMARK   10  A    between atoms: C_24  and  O_30
REMARK   11  A    between atoms: C_26  and  C_28
REMARK   12  A    between atoms: C_28  and  O_29
REMARK   13  A    between atoms: O_34  and  C_35
REMARK   14  A    between atoms: C_37  and  O_47
REMARK   15  A    between atoms: C_38  and  O_46
REMARK   16  A    between atoms: C_39  and  O_45
REMARK   17  A    between atoms: C_41  and  C_43
REMARK   18  A    between atoms: C_43  and  O_44
REMARK                            x       y       z     vdW  Elec       q    Type
REMARK                         _______ _______ _______ _____ _____    ______ ____
ROOT
ATOM      1  C   UNL     1       5.505   1.065  25.970  0.00  0.00    +0.181 A 
ATOM      2  O   UNL     1       4.445   0.865  26.850  0.00  0.00    -0.451 OA
ATOM      3  C   UNL     1       3.840  -0.356  26.905  0.00  0.00    +0.147 A 
ATOM      4  C   UNL     1       2.609  -0.381  27.560  0.00  0.00    +0.092 A 
ATOM      5  C   UNL     1       1.931  -1.585  27.680  0.00  0.00    +0.124 A 
ATOM      6  C   UNL     1       2.454  -2.754  27.138  0.00  0.00    +0.092 A 
ATOM      7  C   UNL     1       3.702  -2.743  26.517  0.00  0.00    +0.142 A 
ATOM      8  C   UNL     1       4.408  -1.514  26.383  0.00  0.00    +0.110 A 
ATOM      9  C   UNL     1       5.761  -1.336  25.748  0.00  0.00    +0.238 A 
ATOM     10  O   UNL     1       6.509  -2.293  25.548  0.00  0.00    -0.283 OA
ATOM     11  C   UNL     1       6.198   0.067  25.404  0.00  0.00    +0.214 A 
ENDROOT
BRANCH   1  13
ATOM     12  C   UNL     1       5.180   3.110  24.667  0.00  0.00    +0.015 A 
ATOM     13  C   UNL     1       5.736   2.511  25.818  0.00  0.00    +0.025 A 
ATOM     14  C   UNL     1       6.665   3.229  26.579  0.00  0.00    +0.060 A 
ATOM     15  C   UNL     1       7.118   4.458  26.102  0.00  0.00    +0.159 A 
ATOM     16  C   UNL     1       6.661   4.968  24.887  0.00  0.00    +0.158 A 
ATOM     17  C   UNL     1       5.652   4.330  24.188  0.00  0.00    +0.050 A 
BRANCH  16  18
ATOM     18  O   UNL     1       7.288   6.075  24.380  0.00  0.00    -0.503 OA
ATOM     19  H   UNL     1       7.815   6.459  25.103  0.00  0.00    +0.292 HD
ENDBRANCH  16  18
BRANCH  15  20
ATOM     20  O   UNL     1       8.085   5.137  26.789  0.00  0.00    -0.503 OA
ATOM     21  H   UNL     1       8.679   4.440  27.134  0.00  0.00    +0.292 HD
ENDBRANCH  15  20
ENDBRANCH   1  13
BRANCH   5  22
ATOM     22  O   UNL     1       0.743  -1.664  28.341  0.00  0.00    -0.507 OA
ATOM     23  H   UNL     1       0.620  -2.566  28.685  0.00  0.00    +0.292 HD
ENDBRANCH   5  22
BRANCH  11  24
ATOM     24  O   UNL     1       7.123   0.345  24.406  0.00  0.00    -0.453 OA
BRANCH  24  25
ATOM     25  C   UNL     1       8.540   0.313  24.660  0.00  0.00    +0.340 C 
ATOM     26  O   UNL     1       9.046   1.664  24.778  0.00  0.00    -0.331 OA
ATOM     27  C   UNL     1       8.898   2.503  23.597  0.00  0.00    +0.179 C 
ATOM     28  C   UNL     1       9.041   1.808  22.210  0.00  0.00    +0.177 C 
ATOM     29  C   UNL     1       8.735   0.310  22.218  0.00  0.00    +0.180 C 
ATOM     30  C   UNL     1       9.318  -0.318  23.486  0.00  0.00    +0.214 C 
BRANCH  30  31
ATOM     31  O   UNL     1       9.270  -1.737  23.371  0.00  0.00    -0.383 OA
ATOM     32  H   UNL     1      10.150  -2.117  23.580  0.00  0.00    +0.210 HD
ENDBRANCH  30  31
BRANCH  29  33
ATOM     33  O   UNL     1       9.291  -0.303  21.042  0.00  0.00    -0.386 OA
ATOM     34  H   UNL     1       8.701  -1.069  20.871  0.00  0.00    +0.210 HD
ENDBRANCH  29  33
BRANCH  28  35
ATOM     35  O   UNL     1      10.368   1.965  21.676  0.00  0.00    -0.386 OA
ATOM     36  H   UNL     1      10.596   2.903  21.861  0.00  0.00    +0.210 HD
ENDBRANCH  28  35
BRANCH  27  37
ATOM     37  C   UNL     1       9.930   3.648  23.733  0.00  0.00    +0.190 C 
BRANCH  37  38
ATOM     38  O   UNL     1       9.518   4.794  22.982  0.00  0.00    -0.392 OA
ATOM     39  H   UNL     1       9.779   4.608  22.059  0.00  0.00    +0.210 HD
ENDBRANCH  37  38
ENDBRANCH  27  37
ENDBRANCH  24  25
ENDBRANCH  11  24
BRANCH   7  40
ATOM     40  O   UNL     1       4.284  -3.854  26.022  0.00  0.00    -0.460 OA
BRANCH  40  41
ATOM     41  C   UNL     1       4.129  -5.252  26.371  0.00  0.00    +0.339 C 
ATOM     42  O   UNL     1       3.420  -5.692  27.540  0.00  0.00    -0.331 OA
ATOM     43  C   UNL     1       4.130  -5.933  28.778  0.00  0.00    +0.179 C 
ATOM     44  C   UNL     1       5.600  -6.398  28.659  0.00  0.00    +0.177 C 
ATOM     45  C   UNL     1       6.318  -5.631  27.560  0.00  0.00    +0.180 C 
ATOM     46  C   UNL     1       5.546  -5.838  26.249  0.00  0.00    +0.214 C 
BRANCH  46  47
ATOM     47  O   UNL     1       6.271  -5.268  25.155  0.00  0.00    -0.383 OA
ATOM     48  H   UNL     1       7.141  -5.725  25.112  0.00  0.00    +0.210 HD
ENDBRANCH  46  47
BRANCH  45  49
ATOM     49  O   UNL     1       6.482  -4.254  27.925  0.00  0.00    -0.386 OA
ATOM     50  H   UNL     1       6.754  -3.739  27.143  0.00  0.00    +0.210 HD
ENDBRANCH  45  49
BRANCH  44  51
ATOM     51  O   UNL     1       5.676  -7.799  28.396  0.00  0.00    -0.386 OA
ATOM     52  H   UNL     1       6.003  -7.918  27.487  0.00  0.00    +0.210 HD
ENDBRANCH  44  51
BRANCH  43  53
ATOM     53  C   UNL     1       3.335  -6.967  29.613  0.00  0.00    +0.190 C 
BRANCH  53  54
ATOM     54  O   UNL     1       2.695  -7.922  28.769  0.00  0.00    -0.392 OA
ATOM     55  H   UNL     1       3.350  -8.172  28.092  0.00  0.00    +0.210 HD
ENDBRANCH  53  54
ENDBRANCH  43  53
ENDBRANCH  40  41
ENDBRANCH   7  40
TORSDOF 18
ENDMDL
MODEL 8
REMARK VINA RESULT:      -6.2      2.840      6.654
REMARK  Name = 
REMARK  18 active torsions:
REMARK  status: ('A' for Active; 'I' for Inactive)
REMARK    1  A    between atoms: C_3  and  O_49
REMARK    2  A    between atoms: C_4  and  O_48
REMARK    3  A    between atoms: C_6  and  C_7
REMARK    4  A    between atoms: C_8  and  O_34
REMARK    5  A    between atoms: C_15  and  O_33
REMARK    6  A    between atoms: C_17  and  O_18
REMARK    7  A    between atoms: O_18  and  C_19
REMARK    8  A    between atoms: C_21  and  O_32
REMARK    9  A    between atoms: C_22  and  O_31
REMARK   10  A    between atoms: C_24  and  O_30
REMARK   11  A    between atoms: C_26  and  C_28
REMARK   12  A    between atoms: C_28  and  O_29
REMARK   13  A    between atoms: O_34  and  C_35
REMARK   14  A    between atoms: C_37  and  O_47
REMARK   15  A    between atoms: C_38  and  O_46
REMARK   16  A    between atoms: C_39  and  O_45
REMARK   17  A    between atoms: C_41  and  C_43
REMARK   18  A    between atoms: C_43  and  O_44
REMARK                            x       y       z     vdW  Elec       q    Type
REMARK                         _______ _______ _______ _____ _____    ______ ____
ROOT
ATOM      1  C   UNL     1       6.119   1.490  26.811  0.00  0.00    +0.181 A 
ATOM      2  O   UNL     1       5.121   0.871  27.562  0.00  0.00    -0.451 OA
ATOM      3  C   UNL     1       4.533  -0.264  27.087  0.00  0.00    +0.147 A 
ATOM      4  C   UNL     1       3.348  -0.632  27.725  0.00  0.00    +0.092 A 
ATOM      5  C   UNL     1       2.692  -1.783  27.321  0.00  0.00    +0.124 A 
ATOM      6  C   UNL     1       3.188  -2.558  26.278  0.00  0.00    +0.092 A 
ATOM      7  C   UNL     1       4.392  -2.218  25.663  0.00  0.00    +0.142 A 
ATOM      8  C   UNL     1       5.076  -1.036  26.065  0.00  0.00    +0.110 A 
ATOM      9  C   UNL     1       6.382  -0.537  25.507  0.00  0.00    +0.238 A 
ATOM     10  O   UNL     1       7.125  -1.269  24.853  0.00  0.00    -0.283 OA
ATOM     11  C   UNL     1       6.782   0.885  25.816  0.00  0.00    +0.214 A 
ENDROOT
BRANCH   1  13
ATOM     12  C   UNL     1       6.857   2.955  28.627  0.00  0.00    +0.015 A 
ATOM     13  C   UNL     1       6.326   2.855  27.323  0.00  0.00    +0.025 A 
ATOM     14  C   UNL     1       5.790   3.996  26.715  0.00  0.00    +0.060 A 
ATOM     15  C   UNL     1       5.672   5.164  27.467  0.00  0.00    +0.159 A 
ATOM     16  C   UNL     1       6.074   5.202  28.803  0.00  0.00    +0.158 A 
ATOM     17  C   UNL     1       6.718   4.121  29.376  0.00  0.00    +0.050 A 
BRANCH  16  18
ATOM     18  O   UNL     1       5.750   6.309  29.539  0.00  0.00    -0.503 OA
ATOM     19  H   UNL     1       6.136   6.185  30.424  0.00  0.00    +0.292 HD
ENDBRANCH  16  18
BRANCH  15  20
ATOM     20  O   UNL     1       5.078   6.266  26.919  0.00  0.00    -0.503 OA
ATOM     21  H   UNL     1       4.211   6.329  27.368  0.00  0.00    +0.292 HD
ENDBRANCH  15  20
ENDBRANCH   1  13
BRANCH   5  22
ATOM     22  O   UNL     1       1.551  -2.200  27.937  0.00  0.00    -0.507 OA
ATOM     23  H   UNL     1       0.900  -1.478  27.943  0.00  0.00    +0.292 HD
ENDBRANCH   5  22
BRANCH  11  24
ATOM     24  O   UNL     1       7.636   1.621  25.005  0.00  0.00    -0.453 OA
BRANCH  24  25
ATOM     25  C   UNL     1       7.255   2.022  23.675  0.00  0.00    +0.340 C 
ATOM     26  O   UNL     1       7.626   0.991  22.729  0.00  0.00    -0.331 OA
ATOM     27  C   UNL     1       9.050   0.697  22.636  0.00  0.00    +0.179 C 
ATOM     28  C   UNL     1      10.034   1.892  22.811  0.00  0.00    +0.177 C 
ATOM     29  C   UNL     1       9.471   3.065  23.614  0.00  0.00    +0.180 C 
ATOM     30  C   UNL     1       8.008   3.290  23.221  0.00  0.00    +0.214 C 
BRANCH  30  31
ATOM     31  O   UNL     1       7.564   4.530  23.762  0.00  0.00    -0.383 OA
ATOM     32  H   UNL     1       7.189   4.387  24.657  0.00  0.00    +0.210 HD
ENDBRANCH  30  31
BRANCH  29  33
ATOM     33  O   UNL     1      10.255   4.244  23.362  0.00  0.00    -0.386 OA
ATOM     34  H   UNL     1      10.637   4.090  22.471  0.00  0.00    +0.210 HD
ENDBRANCH  29  33
BRANCH  28  35
ATOM     35  O   UNL     1      10.458   2.416  21.539  0.00  0.00    -0.386 OA
ATOM     36  H   UNL     1      11.435   2.480  21.615  0.00  0.00    +0.210 HD
ENDBRANCH  28  35
BRANCH  27  37
ATOM     37  C   UNL     1       9.274   0.012  21.268  0.00  0.00    +0.190 C 
BRANCH  37  38
ATOM     38  O   UNL     1       9.616  -1.366  21.441  0.00  0.00    -0.392 OA
ATOM     39  H   UNL     1      10.581  -1.377  21.600  0.00  0.00    +0.210 HD
ENDBRANCH  37  38
ENDBRANCH  27  37
ENDBRANCH  24  25
ENDBRANCH  11  24
BRANCH   7  40
ATOM     40  O   UNL     1       4.951  -2.960  24.685  0.00  0.00    -0.460 OA
BRANCH  40  41
ATOM     41  C   UNL     1       5.590  -4.260  24.718  0.00  0.00    +0.339 C 
ATOM     42  O   UNL     1       6.797  -4.521  25.451  0.00  0.00    -0.331 OA
ATOM     43  C   UNL     1       8.085  -4.411  24.801  0.00  0.00    +0.179 C 
ATOM     44  C   UNL     1       8.130  -4.720  23.287  0.00  0.00    +0.177 C 
ATOM     45  C   UNL     1       6.921  -4.127  22.582  0.00  0.00    +0.180 C 
ATOM     46  C   UNL     1       5.656  -4.693  23.243  0.00  0.00    +0.214 C 
BRANCH  46  47
ATOM     47  O   UNL     1       4.494  -4.289  22.512  0.00  0.00    -0.383 OA
ATOM     48  H   UNL     1       3.725  -4.764  22.901  0.00  0.00    +0.210 HD
ENDBRANCH  46  47
BRANCH  45  49
ATOM     49  O   UNL     1       6.984  -2.694  22.584  0.00  0.00    -0.386 OA
ATOM     50  H   UNL     1       7.784  -2.401  22.112  0.00  0.00    +0.210 HD
ENDBRANCH  45  49
BRANCH  44  51
ATOM     51  O   UNL     1       8.182  -6.127  23.050  0.00  0.00    -0.386 OA
ATOM     52  H   UNL     1       8.696  -6.278  22.237  0.00  0.00    +0.210 HD
ENDBRANCH  44  51
BRANCH  43  53
ATOM     53  C   UNL     1       9.092  -5.329  25.537  0.00  0.00    +0.190 C 
BRANCH  53  54
ATOM     54  O   UNL     1      10.366  -5.308  24.897  0.00  0.00    -0.392 OA
ATOM     55  H   UNL     1      10.978  -5.784  25.488  0.00  0.00    +0.210 HD
ENDBRANCH  53  54
ENDBRANCH  43  53
ENDBRANCH  40  41
ENDBRANCH   7  40
TORSDOF 18
ENDMDL
MODEL 9
REMARK VINA RESULT:      -6.2      2.739      8.429
REMARK  Name = 
REMARK  18 active torsions:
REMARK  status: ('A' for Active; 'I' for Inactive)
REMARK    1  A    between atoms: C_3  and  O_49
REMARK    2  A    between atoms: C_4  and  O_48
REMARK    3  A    between atoms: C_6  and  C_7
REMARK    4  A    between atoms: C_8  and  O_34
REMARK    5  A    between atoms: C_15  and  O_33
REMARK    6  A    between atoms: C_17  and  O_18
REMARK    7  A    between atoms: O_18  and  C_19
REMARK    8  A    between atoms: C_21  and  O_32
REMARK    9  A    between atoms: C_22  and  O_31
REMARK   10  A    between atoms: C_24  and  O_30
REMARK   11  A    between atoms: C_26  and  C_28
REMARK   12  A    between atoms: C_28  and  O_29
REMARK   13  A    between atoms: O_34  and  C_35
REMARK   14  A    between atoms: C_37  and  O_47
REMARK   15  A    between atoms: C_38  and  O_46
REMARK   16  A    between atoms: C_39  and  O_45
REMARK   17  A    between atoms: C_41  and  C_43
REMARK   18  A    between atoms: C_43  and  O_44
REMARK                            x       y       z     vdW  Elec       q    Type
REMARK                         _______ _______ _______ _____ _____    ______ ____
ROOT
ATOM      1  C   UNL     1       7.131  -3.140  26.046  0.00  0.00    +0.181 A 
ATOM      2  O   UNL     1       8.179  -3.262  25.136  0.00  0.00    -0.451 OA
ATOM      3  C   UNL     1       8.621  -2.157  24.470  0.00  0.00    +0.147 A 
ATOM      4  C   UNL     1       9.435  -2.413  23.367  0.00  0.00    +0.092 A 
ATOM      5  C   UNL     1       9.946  -1.349  22.642  0.00  0.00    +0.124 A 
ATOM      6  C   UNL     1       9.640  -0.037  22.989  0.00  0.00    +0.092 A 
ATOM      7  C   UNL     1       8.859   0.227  24.114  0.00  0.00    +0.142 A 
ATOM      8  C   UNL     1       8.324  -0.857  24.866  0.00  0.00    +0.110 A 
ATOM      9  C   UNL     1       7.474  -0.740  26.103  0.00  0.00    +0.238 A 
ATOM     10  O   UNL     1       7.409   0.309  26.743  0.00  0.00    -0.283 OA
ATOM     11  C   UNL     1       6.734  -1.971  26.567  0.00  0.00    +0.214 A 
ENDROOT
BRANCH   1  13
ATOM     12  C   UNL     1       5.529  -4.914  25.525  0.00  0.00    +0.015 A 
ATOM     13  C   UNL     1       6.595  -4.479  26.342  0.00  0.00    +0.025 A 
ATOM     14  C   UNL     1       6.894  -5.189  27.510  0.00  0.00    +0.060 A 
ATOM     15  C   UNL     1       6.044  -6.221  27.905  0.00  0.00    +0.159 A 
ATOM     16  C   UNL     1       4.912  -6.544  27.156  0.00  0.00    +0.158 A 
ATOM     17  C   UNL     1       4.675  -5.935  25.937  0.00  0.00    +0.050 A 
BRANCH  16  18
ATOM     18  O   UNL     1       4.016  -7.426  27.696  0.00  0.00    -0.503 OA
ATOM     19  H   UNL     1       4.031  -8.224  27.139  0.00  0.00    +0.292 HD
ENDBRANCH  16  18
BRANCH  15  20
ATOM     20  O   UNL     1       6.272  -6.874  29.083  0.00  0.00    -0.503 OA
ATOM     21  H   UNL     1       7.234  -6.777  29.237  0.00  0.00    +0.292 HD
ENDBRANCH  15  20
ENDBRANCH   1  13
BRANCH   5  22
ATOM     22  O   UNL     1      10.773  -1.549  21.578  0.00  0.00    -0.507 OA
ATOM     23  H   UNL     1      10.271  -1.452  20.751  0.00  0.00    +0.292 HD
ENDBRANCH   5  22
BRANCH  11  24
ATOM     24  O   UNL     1       5.574  -1.911  27.328  0.00  0.00    -0.453 OA
BRANCH  24  25
ATOM     25  C   UNL     1       4.273  -1.819  26.716  0.00  0.00    +0.340 C 
ATOM     26  O   UNL     1       3.997  -0.443  26.359  0.00  0.00    -0.331 OA
ATOM     27  C   UNL     1       3.957   0.505  27.464  0.00  0.00    +0.179 C 
ATOM     28  C   UNL     1       3.382  -0.008  28.818  0.00  0.00    +0.177 C 
ATOM     29  C   UNL     1       3.477  -1.522  29.014  0.00  0.00    +0.180 C 
ATOM     30  C   UNL     1       3.150  -2.224  27.694  0.00  0.00    +0.214 C 
BRANCH  30  31
ATOM     31  O   UNL     1       2.979  -3.618  27.934  0.00  0.00    -0.383 OA
ATOM     32  H   UNL     1       2.497  -3.751  28.778  0.00  0.00    +0.210 HD
ENDBRANCH  30  31
BRANCH  29  33
ATOM     33  O   UNL     1       2.570  -1.933  30.051  0.00  0.00    -0.386 OA
ATOM     34  H   UNL     1       3.057  -2.641  30.527  0.00  0.00    +0.210 HD
ENDBRANCH  29  33
BRANCH  28  35
ATOM     35  O   UNL     1       1.997   0.351  28.973  0.00  0.00    -0.386 OA
ATOM     36  H   UNL     1       1.875   0.440  29.944  0.00  0.00    +0.210 HD
ENDBRANCH  28  35
BRANCH  27  37
ATOM     37  C   UNL     1       3.154   1.730  26.970  0.00  0.00    +0.190 C 
BRANCH  37  38
ATOM     38  O   UNL     1       3.333   1.921  25.564  0.00  0.00    -0.392 OA
ATOM     39  H   UNL     1       2.439   2.098  25.209  0.00  0.00    +0.210 HD
ENDBRANCH  37  38
ENDBRANCH  27  37
ENDBRANCH  24  25
ENDBRANCH  11  24
BRANCH   7  40
ATOM     40  O   UNL     1       8.573   1.477  24.531  0.00  0.00    -0.460 OA
BRANCH  40  41
ATOM     41  C   UNL     1       8.230   2.676  23.794  0.00  0.00    +0.339 C 
ATOM     42  O   UNL     1       9.160   3.747  23.565  0.00  0.00    -0.331 OA
ATOM     43  C   UNL     1       9.219   4.871  24.474  0.00  0.00    +0.179 C 
ATOM     44  C   UNL     1       7.906   5.255  25.193  0.00  0.00    +0.177 C 
ATOM     45  C   UNL     1       7.157   4.011  25.642  0.00  0.00    +0.180 C 
ATOM     46  C   UNL     1       6.897   3.136  24.407  0.00  0.00    +0.214 C 
BRANCH  46  47
ATOM     47  O   UNL     1       6.055   2.032  24.753  0.00  0.00    -0.383 OA
ATOM     48  H   UNL     1       5.262   2.401  25.203  0.00  0.00    +0.210 HD
ENDBRANCH  46  47
BRANCH  45  49
ATOM     49  O   UNL     1       7.870   3.338  26.689  0.00  0.00    -0.386 OA
ATOM     50  H   UNL     1       8.242   2.504  26.347  0.00  0.00    +0.210 HD
ENDBRANCH  45  49
BRANCH  44  51
ATOM     51  O   UNL     1       7.067   6.041  24.347  0.00  0.00    -0.386 OA
ATOM     52  H   UNL     1       6.377   6.449  24.899  0.00  0.00    +0.210 HD
ENDBRANCH  44  51
BRANCH  43  53
ATOM     53  C   UNL     1       9.758   6.103  23.705  0.00  0.00    +0.190 C 
BRANCH  53  54
ATOM     54  O   UNL     1      10.946   5.779  22.987  0.00  0.00    -0.392 OA
ATOM     55  H   UNL     1      10.671   5.596  22.070  0.00  0.00    +0.210 HD
ENDBRANCH  53  54
ENDBRANCH  43  53
ENDBRANCH  40  41
ENDBRANCH   7  40
TORSDOF 18
ENDMDL
