MODEL 1
REMARK VINA RESULT:      -7.5      0.000      0.000
REMARK  Name = 
REMARK  15 active torsions:
REMARK  status: ('A' for Active; 'I' for Inactive)
REMARK    1  A    between atoms: C_2  and  O_48
REMARK    2  A    between atoms: C_4  and  O_47
REMARK    3  A    between atoms: C_6  and  O_46
REMARK    4  A    between atoms: C_8  and  O_11
REMARK    5  A    between atoms: O_11  and  C_12
REMARK    6  A    between atoms: C_14  and  O_45
REMARK    7  A    between atoms: C_16  and  C_43
REMARK    8  A    between atoms: C_19  and  O_21
REMARK    9  A    between atoms: O_21  and  C_22
REMARK   10  A    between atoms: C_23  and  C_35
REMARK   11  A    between atoms: C_27  and  O_34
REMARK   12  A    between atoms: C_29  and  O_33
REMARK   13  A    between atoms: C_37  and  O_42
REMARK   14  A    between atoms: C_38  and  O_41
REMARK   15  A    between atoms: C_43  and  O_44
REMARK                            x       y       z     vdW  Elec       q    Type
REMARK                         _______ _______ _______ _____ _____    ______ ____
ROOT
ATOM      1  C   UNL     1       7.474  -1.952  25.419  0.00  0.00    +0.214 A 
ATOM      2  C   UNL     1       7.369  -0.647  26.161  0.00  0.00    +0.238 A 
ATOM      3  O   UNL     1       7.189  -0.657  27.375  0.00  0.00    -0.283 OA
ATOM      4  C   UNL     1       7.564   0.601  25.373  0.00  0.00    +0.109 A 
ATOM      5  C   UNL     1       7.709   0.448  23.999  0.00  0.00    +0.147 A 
ATOM      6  C   UNL     1       8.101   1.499  23.171  0.00  0.00    +0.092 A 
ATOM      7  C   UNL     1       8.317   2.746  23.732  0.00  0.00    +0.124 A 
ATOM      8  C   UNL     1       8.067   2.965  25.081  0.00  0.00    +0.091 A 
ATOM      9  O   UNL     1       7.450  -0.725  23.360  0.00  0.00    -0.451 OA
ATOM     10  C   UNL     1       7.692   1.887  25.907  0.00  0.00    +0.135 A 
ATOM     11  C   UNL     1       7.370  -1.914  24.072  0.00  0.00    +0.181 A 
ENDROOT
BRANCH  11  12
ATOM     12  C   UNL     1       7.106  -3.037  23.126  0.00  0.00    +0.025 A 
ATOM     13  C   UNL     1       5.869  -3.033  22.420  0.00  0.00    +0.015 A 
ATOM     14  C   UNL     1       5.378  -4.162  21.780  0.00  0.00    +0.050 A 
ATOM     15  C   UNL     1       6.142  -5.315  21.796  0.00  0.00    +0.158 A 
ATOM     16  C   UNL     1       7.403  -5.319  22.391  0.00  0.00    +0.159 A 
ATOM     17  C   UNL     1       7.891  -4.196  23.063  0.00  0.00    +0.060 A 
BRANCH  15  18
ATOM     18  O   UNL     1       5.628  -6.455  21.250  0.00  0.00    -0.503 OA
ATOM     19  H   UNL     1       5.137  -6.879  21.980  0.00  0.00    +0.292 HD
ENDBRANCH  15  18
BRANCH  16  20
ATOM     20  O   UNL     1       8.117  -6.486  22.320  0.00  0.00    -0.503 OA
ATOM     21  H   UNL     1       8.913  -6.376  22.869  0.00  0.00    +0.292 HD
ENDBRANCH  16  20
ENDBRANCH  11  12
BRANCH   7  22
ATOM     22  O   UNL     1       8.763   3.790  22.981  0.00  0.00    -0.507 OA
ATOM     23  H   UNL     1       8.562   3.627  22.043  0.00  0.00    +0.292 HD
ENDBRANCH   7  22
BRANCH  10  24
ATOM     24  O   UNL     1       7.462   2.150  27.228  0.00  0.00    -0.506 OA
ATOM     25  H   UNL     1       7.559   3.102  27.410  0.00  0.00    +0.292 HD
ENDBRANCH  10  24
BRANCH   1  26
ATOM     26  O   UNL     1       7.489  -3.110  26.176  0.00  0.00    -0.453 OA
BRANCH  26  28
ATOM     27  C   UNL     1       5.929  -5.019  25.799  0.00  0.00    +0.221 C 
ATOM     28  C   UNL     1       6.173  -3.643  26.454  0.00  0.00    +0.340 C 
ATOM     29  O   UNL     1       6.080  -3.905  27.873  0.00  0.00    -0.331 OA
ATOM     30  C   UNL     1       6.523  -5.270  28.099  0.00  0.00    +0.179 C 
ATOM     31  C   UNL     1       6.786  -5.898  26.716  0.00  0.00    +0.180 C 
BRANCH  31  32
ATOM     32  O   UNL     1       8.187  -5.858  26.433  0.00  0.00    -0.386 OA
ATOM     33  H   UNL     1       8.590  -6.744  26.534  0.00  0.00    +0.210 HD
ENDBRANCH  31  32
BRANCH  27  34
ATOM     34  O   UNL     1       4.576  -5.517  25.922  0.00  0.00    -0.337 OA
BRANCH  34  37
ATOM     35  C   UNL     1       1.686  -4.459  24.022  0.00  0.00    +0.197 C 
ATOM     36  O   UNL     1       2.537  -4.705  25.130  0.00  0.00    -0.346 OA
ATOM     37  C   UNL     1       3.737  -5.384  24.777  0.00  0.00    +0.282 C 
ATOM     38  C   UNL     1       3.383  -6.791  24.208  0.00  0.00    +0.201 C 
ATOM     39  C   UNL     1       2.411  -6.638  23.015  0.00  0.00    +0.178 C 
ATOM     40  C   UNL     1       1.211  -5.753  23.372  0.00  0.00    +0.171 C 
BRANCH  38  41
ATOM     41  O   UNL     1       4.568  -7.498  23.803  0.00  0.00    -0.384 OA
ATOM     42  H   UNL     1       4.327  -8.156  23.131  0.00  0.00    +0.210 HD
ENDBRANCH  38  41
BRANCH  39  43
ATOM     43  O   UNL     1       1.945  -7.916  22.564  0.00  0.00    -0.386 OA
ATOM     44  H   UNL     1       1.163  -7.739  22.008  0.00  0.00    +0.210 HD
ENDBRANCH  39  43
BRANCH  40  45
ATOM     45  O   UNL     1       0.482  -5.461  22.173  0.00  0.00    -0.387 OA
ATOM     46  H   UNL     1       0.991  -4.789  21.682  0.00  0.00    +0.210 HD
ENDBRANCH  40  45
ENDBRANCH  34  37
ENDBRANCH  27  34
BRANCH  30  47
ATOM     47  C   UNL     1       5.469  -6.075  28.879  0.00  0.00    +0.190 C 
BRANCH  47  48
ATOM     48  O   UNL     1       5.285  -7.388  28.357  0.00  0.00    -0.392 OA
ATOM     49  H   UNL     1       5.807  -7.459  27.542  0.00  0.00    +0.210 HD
ENDBRANCH  47  48
ENDBRANCH  30  47
ENDBRANCH  26  28
ENDBRANCH   1  26
TORSDOF 15
ENDMDL
MODEL 2
REMARK VINA RESULT:      -7.2      2.455      7.904
REMARK  Name = 
REMARK  15 active torsions:
REMARK  status: ('A' for Active; 'I' for Inactive)
REMARK    1  A    between atoms: C_2  and  O_48
REMARK    2  A    between atoms: C_4  and  O_47
REMARK    3  A    between atoms: C_6  and  O_46
REMARK    4  A    between atoms: C_8  and  O_11
REMARK    5  A    between atoms: O_11  and  C_12
REMARK    6  A    between atoms: C_14  and  O_45
REMARK    7  A    between atoms: C_16  and  C_43
REMARK    8  A    between atoms: C_19  and  O_21
REMARK    9  A    between atoms: O_21  and  C_22
REMARK   10  A    between atoms: C_23  and  C_35
REMARK   11  A    between atoms: C_27  and  O_34
REMARK   12  A    between atoms: C_29  and  O_33
REMARK   13  A    between atoms: C_37  and  O_42
REMARK   14  A    between atoms: C_38  and  O_41
REMARK   15  A    between atoms: C_43  and  O_44
REMARK                            x       y       z     vdW  Elec       q    Type
REMARK                         _______ _______ _______ _____ _____    ______ ____
ROOT
ATOM      1  C   UNL     1       7.783  -2.130  25.393  0.00  0.00    +0.214 A 
ATOM      2  C   UNL     1       7.192  -3.501  25.590  0.00  0.00    +0.238 A 
ATOM      3  O   UNL     1       6.937  -3.888  26.726  0.00  0.00    -0.283 OA
ATOM      4  C   UNL     1       6.883  -4.290  24.367  0.00  0.00    +0.109 A 
ATOM      5  C   UNL     1       7.278  -3.733  23.156  0.00  0.00    +0.147 A 
ATOM      6  C   UNL     1       6.873  -4.258  21.929  0.00  0.00    +0.092 A 
ATOM      7  C   UNL     1       6.082  -5.393  21.917  0.00  0.00    +0.124 A 
ATOM      8  C   UNL     1       5.766  -6.045  23.102  0.00  0.00    +0.091 A 
ATOM      9  O   UNL     1       8.110  -2.659  23.078  0.00  0.00    -0.451 OA
ATOM     10  C   UNL     1       6.166  -5.490  24.335  0.00  0.00    +0.135 A 
ATOM     11  C   UNL     1       8.325  -1.852  24.186  0.00  0.00    +0.181 A 
ENDROOT
BRANCH  11  12
ATOM     12  C   UNL     1       9.251  -0.743  23.815  0.00  0.00    +0.025 A 
ATOM     13  C   UNL     1      10.172  -0.289  24.802  0.00  0.00    +0.015 A 
ATOM     14  C   UNL     1      10.840   0.922  24.691  0.00  0.00    +0.050 A 
ATOM     15  C   UNL     1      10.631   1.689  23.559  0.00  0.00    +0.158 A 
ATOM     16  C   UNL     1       9.814   1.223  22.529  0.00  0.00    +0.159 A 
ATOM     17  C   UNL     1       9.116   0.020  22.648  0.00  0.00    +0.060 A 
BRANCH  15  18
ATOM     18  O   UNL     1      11.210   2.922  23.482  0.00  0.00    -0.503 OA
ATOM     19  H   UNL     1      10.460   3.548  23.484  0.00  0.00    +0.292 HD
ENDBRANCH  15  18
BRANCH  16  20
ATOM     20  O   UNL     1       9.700   2.020  21.422  0.00  0.00    -0.503 OA
ATOM     21  H   UNL     1       8.778   1.964  21.114  0.00  0.00    +0.292 HD
ENDBRANCH  16  20
ENDBRANCH  11  12
BRANCH   7  22
ATOM     22  O   UNL     1       5.606  -5.909  20.751  0.00  0.00    -0.507 OA
ATOM     23  H   UNL     1       5.442  -5.189  20.118  0.00  0.00    +0.292 HD
ENDBRANCH   7  22
BRANCH  10  24
ATOM     24  O   UNL     1       5.827  -6.164  25.474  0.00  0.00    -0.506 OA
ATOM     25  H   UNL     1       5.674  -7.107  25.282  0.00  0.00    +0.292 HD
ENDBRANCH  10  24
BRANCH   1  26
ATOM     26  O   UNL     1       7.889  -1.321  26.511  0.00  0.00    -0.453 OA
BRANCH  26  28
ATOM     27  C   UNL     1       6.087   0.236  25.772  0.00  0.00    +0.221 C 
ATOM     28  C   UNL     1       7.539   0.061  26.267  0.00  0.00    +0.340 C 
ATOM     29  O   UNL     1       7.570   0.766  27.528  0.00  0.00    -0.331 OA
ATOM     30  C   UNL     1       6.243   0.683  28.113  0.00  0.00    +0.179 C 
ATOM     31  C   UNL     1       5.335  -0.016  27.083  0.00  0.00    +0.180 C 
BRANCH  31  32
ATOM     32  O   UNL     1       5.196  -1.397  27.429  0.00  0.00    -0.386 OA
ATOM     33  H   UNL     1       5.719  -1.963  26.826  0.00  0.00    +0.210 HD
ENDBRANCH  31  32
BRANCH  27  34
ATOM     34  O   UNL     1       5.743   1.582  25.369  0.00  0.00    -0.337 OA
BRANCH  34  37
ATOM     35  C   UNL     1       8.370   4.035  24.960  0.00  0.00    +0.197 C 
ATOM     36  O   UNL     1       7.300   3.311  25.547  0.00  0.00    -0.346 OA
ATOM     37  C   UNL     1       6.750   2.324  24.682  0.00  0.00    +0.282 C 
ATOM     38  C   UNL     1       6.139   3.020  23.430  0.00  0.00    +0.201 C 
ATOM     39  C   UNL     1       7.219   3.881  22.737  0.00  0.00    +0.178 C 
ATOM     40  C   UNL     1       7.921   4.816  23.731  0.00  0.00    +0.171 C 
BRANCH  38  41
ATOM     41  O   UNL     1       5.602   2.052  22.510  0.00  0.00    -0.384 OA
ATOM     42  H   UNL     1       5.978   2.214  21.630  0.00  0.00    +0.210 HD
ENDBRANCH  38  41
BRANCH  39  43
ATOM     43  O   UNL     1       6.655   4.656  21.671  0.00  0.00    -0.386 OA
ATOM     44  H   UNL     1       5.828   5.037  22.020  0.00  0.00    +0.210 HD
ENDBRANCH  39  43
BRANCH  40  45
ATOM     45  O   UNL     1       9.055   5.407  23.084  0.00  0.00    -0.387 OA
ATOM     46  H   UNL     1       9.851   5.098  23.556  0.00  0.00    +0.210 HD
ENDBRANCH  40  45
ENDBRANCH  34  37
ENDBRANCH  27  34
BRANCH  30  47
ATOM     47  C   UNL     1       5.703   2.079  28.469  0.00  0.00    +0.190 C 
BRANCH  47  48
ATOM     48  O   UNL     1       6.626   3.120  28.159  0.00  0.00    -0.392 OA
ATOM     49  H   UNL     1       7.153   3.295  28.954  0.00  0.00    +0.210 HD
ENDBRANCH  47  48
ENDBRANCH  30  47
ENDBRANCH  26  28
ENDBRANCH   1  26
TORSDOF 15
ENDMDL
MODEL 3
REMARK VINA RESULT:      -7.1      3.702      8.653
REMARK  Name = 
REMARK  15 active torsions:
REMARK  status: ('A' for Active; 'I' for Inactive)
REMARK    1  A    between atoms: C_2  and  O_48
REMARK    2  A    between atoms: C_4  and  O_47
REMARK    3  A    between atoms: C_6  and  O_46
REMARK    4  A    between atoms: C_8  and  O_11
REMARK    5  A    between atoms: O_11  and  C_12
REMARK    6  A    between atoms: C_14  and  O_45
REMARK    7  A    between atoms: C_16  and  C_43
REMARK    8  A    between atoms: C_19  and  O_21
REMARK    9  A    between atoms: O_21  and  C_22
REMARK   10  A    between atoms: C_23  and  C_35
REMARK   11  A    between atoms: C_27  and  O_34
REMARK   12  A    between atoms: C_29  and  O_33
REMARK   13  A    between atoms: C_37  and  O_42
REMARK   14  A    between atoms: C_38  and  O_41
REMARK   15  A    between atoms: C_43  and  O_44
REMARK                            x       y       z     vdW  Elec       q    Type
REMARK                         _______ _______ _______ _____ _____    ______ ____
ROOT
ATOM      1  C   UNL     1       7.081  -0.847  25.172  0.00  0.00    +0.214 A 
ATOM      2  C   UNL     1       6.684  -1.913  26.157  0.00  0.00    +0.238 A 
ATOM      3  O   UNL     1       5.697  -1.740  26.866  0.00  0.00    -0.283 OA
ATOM      4  C   UNL     1       7.487  -3.167  26.163  0.00  0.00    +0.109 A 
ATOM      5  C   UNL     1       8.604  -3.188  25.337  0.00  0.00    +0.147 A 
ATOM      6  C   UNL     1       9.322  -4.358  25.088  0.00  0.00    +0.092 A 
ATOM      7  C   UNL     1       8.930  -5.528  25.715  0.00  0.00    +0.124 A 
ATOM      8  C   UNL     1       7.893  -5.520  26.639  0.00  0.00    +0.091 A 
ATOM      9  O   UNL     1       9.096  -2.071  24.737  0.00  0.00    -0.451 OA
ATOM     10  C   UNL     1       7.164  -4.334  26.863  0.00  0.00    +0.135 A 
ATOM     11  C   UNL     1       8.317  -0.927  24.631  0.00  0.00    +0.181 A 
ENDROOT
BRANCH  11  12
ATOM     12  C   UNL     1       9.089   0.129  23.912  0.00  0.00    +0.025 A 
ATOM     13  C   UNL     1      10.294   0.594  24.511  0.00  0.00    +0.015 A 
ATOM     14  C   UNL     1      10.911   1.773  24.116  0.00  0.00    +0.050 A 
ATOM     15  C   UNL     1      10.351   2.494  23.076  0.00  0.00    +0.158 A 
ATOM     16  C   UNL     1       9.229   2.010  22.403  0.00  0.00    +0.159 A 
ATOM     17  C   UNL     1       8.587   0.841  22.814  0.00  0.00    +0.060 A 
BRANCH  15  18
ATOM     18  O   UNL     1      10.896   3.699  22.741  0.00  0.00    -0.503 OA
ATOM     19  H   UNL     1      10.417   4.348  23.292  0.00  0.00    +0.292 HD
ENDBRANCH  15  18
BRANCH  16  20
ATOM     20  O   UNL     1       8.768   2.759  21.353  0.00  0.00    -0.503 OA
ATOM     21  H   UNL     1       8.400   3.582  21.720  0.00  0.00    +0.292 HD
ENDBRANCH  16  20
ENDBRANCH  11  12
BRANCH   7  22
ATOM     22  O   UNL     1       9.555  -6.709  25.459  0.00  0.00    -0.507 OA
ATOM     23  H   UNL     1      10.519  -6.578  25.468  0.00  0.00    +0.292 HD
ENDBRANCH   7  22
BRANCH  10  24
ATOM     24  O   UNL     1       6.149  -4.375  27.776  0.00  0.00    -0.506 OA
ATOM     25  H   UNL     1       5.389  -4.872  27.421  0.00  0.00    +0.292 HD
ENDBRANCH  10  24
BRANCH   1  26
ATOM     26  O   UNL     1       6.225   0.231  25.028  0.00  0.00    -0.453 OA
BRANCH  26  28
ATOM     27  C   UNL     1       5.695   2.599  25.603  0.00  0.00    +0.221 C 
ATOM     28  C   UNL     1       6.744   1.466  25.572  0.00  0.00    +0.340 C 
ATOM     29  O   UNL     1       7.070   1.247  26.964  0.00  0.00    -0.331 OA
ATOM     30  C   UNL     1       5.889   1.565  27.748  0.00  0.00    +0.179 C 
ATOM     31  C   UNL     1       4.831   2.118  26.774  0.00  0.00    +0.180 C 
BRANCH  31  32
ATOM     32  O   UNL     1       3.903   1.082  26.438  0.00  0.00    -0.386 OA
ATOM     33  H   UNL     1       3.293   0.905  27.182  0.00  0.00    +0.210 HD
ENDBRANCH  31  32
BRANCH  27  34
ATOM     34  O   UNL     1       6.211   3.892  25.995  0.00  0.00    -0.337 OA
BRANCH  34  37
ATOM     35  C   UNL     1       5.629   5.457  22.787  0.00  0.00    +0.197 C 
ATOM     36  O   UNL     1       5.587   4.496  23.830  0.00  0.00    -0.346 OA
ATOM     37  C   UNL     1       6.373   4.859  24.959  0.00  0.00    +0.282 C 
ATOM     38  C   UNL     1       7.870   4.945  24.538  0.00  0.00    +0.201 C 
ATOM     39  C   UNL     1       8.022   5.938  23.364  0.00  0.00    +0.178 C 
ATOM     40  C   UNL     1       7.037   5.629  22.229  0.00  0.00    +0.171 C 
BRANCH  38  41
ATOM     41  O   UNL     1       8.698   5.345  25.645  0.00  0.00    -0.384 OA
ATOM     42  H   UNL     1       8.285   6.105  26.086  0.00  0.00    +0.210 HD
ENDBRANCH  38  41
BRANCH  39  43
ATOM     43  O   UNL     1       9.360   5.928  22.850  0.00  0.00    -0.386 OA
ATOM     44  H   UNL     1       9.281   5.796  21.887  0.00  0.00    +0.210 HD
ENDBRANCH  39  43
BRANCH  40  45
ATOM     45  O   UNL     1       7.064   6.711  21.289  0.00  0.00    -0.387 OA
ATOM     46  H   UNL     1       7.918   6.664  20.819  0.00  0.00    +0.210 HD
ENDBRANCH  40  45
ENDBRANCH  34  37
ENDBRANCH  27  34
BRANCH  30  47
ATOM     47  C   UNL     1       6.212   2.588  28.851  0.00  0.00    +0.190 C 
BRANCH  47  48
ATOM     48  O   UNL     1       7.447   3.264  28.627  0.00  0.00    -0.392 OA
ATOM     49  H   UNL     1       7.315   4.200  28.844  0.00  0.00    +0.210 HD
ENDBRANCH  47  48
ENDBRANCH  30  47
ENDBRANCH  26  28
ENDBRANCH   1  26
TORSDOF 15
ENDMDL
MODEL 4
REMARK VINA RESULT:      -6.9      2.981      7.923
REMARK  Name = 
REMARK  15 active torsions:
REMARK  status: ('A' for Active; 'I' for Inactive)
REMARK    1  A    between atoms: C_2  and  O_48
REMARK    2  A    between atoms: C_4  and  O_47
REMARK    3  A    between atoms: C_6  and  O_46
REMARK    4  A    between atoms: C_8  and  O_11
REMARK    5  A    between atoms: O_11  and  C_12
REMARK    6  A    between atoms: C_14  and  O_45
REMARK    7  A    between atoms: C_16  and  C_43
REMARK    8  A    between atoms: C_19  and  O_21
REMARK    9  A    between atoms: O_21  and  C_22
REMARK   10  A    between atoms: C_23  and  C_35
REMARK   11  A    between atoms: C_27  and  O_34
REMARK   12  A    between atoms: C_29  and  O_33
REMARK   13  A    between atoms: C_37  and  O_42
REMARK   14  A    between atoms: C_38  and  O_41
REMARK   15  A    between atoms: C_43  and  O_44
REMARK                            x       y       z     vdW  Elec       q    Type
REMARK                         _______ _______ _______ _____ _____    ______ ____
ROOT
ATOM      1  C   UNL     1       6.599  -3.542  27.140  0.00  0.00    +0.214 A 
ATOM      2  C   UNL     1       6.124  -4.951  27.372  0.00  0.00    +0.238 A 
ATOM      3  O   UNL     1       6.847  -5.891  27.054  0.00  0.00    -0.283 OA
ATOM      4  C   UNL     1       4.810  -5.123  28.049  0.00  0.00    +0.109 A 
ATOM      5  C   UNL     1       4.088  -3.962  28.300  0.00  0.00    +0.147 A 
ATOM      6  C   UNL     1       2.949  -3.954  29.105  0.00  0.00    +0.092 A 
ATOM      7  C   UNL     1       2.502  -5.149  29.641  0.00  0.00    +0.124 A 
ATOM      8  C   UNL     1       3.128  -6.346  29.316  0.00  0.00    +0.091 A 
ATOM      9  O   UNL     1       4.420  -2.760  27.757  0.00  0.00    -0.451 OA
ATOM     10  C   UNL     1       4.290  -6.334  28.518  0.00  0.00    +0.135 A 
ATOM     11  C   UNL     1       5.680  -2.554  27.215  0.00  0.00    +0.181 A 
ENDROOT
BRANCH  11  12
ATOM     12  C   UNL     1       5.780  -1.150  26.719  0.00  0.00    +0.025 A 
ATOM     13  C   UNL     1       5.328  -0.880  25.396  0.00  0.00    +0.015 A 
ATOM     14  C   UNL     1       5.664   0.285  24.722  0.00  0.00    +0.050 A 
ATOM     15  C   UNL     1       6.430   1.230  25.380  0.00  0.00    +0.158 A 
ATOM     16  C   UNL     1       6.801   1.039  26.710  0.00  0.00    +0.159 A 
ATOM     17  C   UNL     1       6.492  -0.143  27.385  0.00  0.00    +0.060 A 
BRANCH  15  18
ATOM     18  O   UNL     1       6.843   2.337  24.696  0.00  0.00    -0.503 OA
ATOM     19  H   UNL     1       7.746   2.509  25.026  0.00  0.00    +0.292 HD
ENDBRANCH  15  18
BRANCH  16  20
ATOM     20  O   UNL     1       7.515   2.046  27.304  0.00  0.00    -0.503 OA
ATOM     21  H   UNL     1       8.434   1.977  26.989  0.00  0.00    +0.292 HD
ENDBRANCH  16  20
ENDBRANCH  11  12
BRANCH   7  22
ATOM     22  O   UNL     1       1.435  -5.189  30.484  0.00  0.00    -0.507 OA
ATOM     23  H   UNL     1       1.427  -6.036  30.963  0.00  0.00    +0.292 HD
ENDBRANCH   7  22
BRANCH  10  24
ATOM     24  O   UNL     1       4.874  -7.534  28.229  0.00  0.00    -0.506 OA
ATOM     25  H   UNL     1       5.844  -7.471  28.304  0.00  0.00    +0.292 HD
ENDBRANCH  10  24
BRANCH   1  26
ATOM     26  O   UNL     1       7.898  -3.379  26.691  0.00  0.00    -0.453 OA
BRANCH  26  28
ATOM     27  C   UNL     1       9.362  -3.237  24.678  0.00  0.00    +0.221 C 
ATOM     28  C   UNL     1       7.990  -2.934  25.318  0.00  0.00    +0.340 C 
ATOM     29  O   UNL     1       7.054  -3.701  24.528  0.00  0.00    -0.331 OA
ATOM     30  C   UNL     1       7.750  -4.880  24.042  0.00  0.00    +0.179 C 
ATOM     31  C   UNL     1       9.224  -4.749  24.472  0.00  0.00    +0.180 C 
BRANCH  31  32
ATOM     32  O   UNL     1       9.447  -5.529  25.651  0.00  0.00    -0.386 OA
ATOM     33  H   UNL     1       9.947  -6.344  25.440  0.00  0.00    +0.210 HD
ENDBRANCH  31  32
BRANCH  27  34
ATOM     34  O   UNL     1       9.553  -2.673  23.359  0.00  0.00    -0.337 OA
BRANCH  34  37
ATOM     35  C   UNL     1      10.788   0.488  24.610  0.00  0.00    +0.197 C 
ATOM     36  O   UNL     1      10.124  -0.765  24.575  0.00  0.00    -0.346 OA
ATOM     37  C   UNL     1      10.161  -1.384  23.294  0.00  0.00    +0.282 C 
ATOM     38  C   UNL     1       9.403  -0.488  22.269  0.00  0.00    +0.201 C 
ATOM     39  C   UNL     1      10.022   0.928  22.263  0.00  0.00    +0.178 C 
ATOM     40  C   UNL     1      10.134   1.503  23.681  0.00  0.00    +0.171 C 
BRANCH  38  41
ATOM     41  O   UNL     1       9.447  -1.061  20.950  0.00  0.00    -0.384 OA
ATOM     42  H   UNL     1       8.609  -0.872  20.498  0.00  0.00    +0.210 HD
ENDBRANCH  38  41
BRANCH  39  43
ATOM     43  O   UNL     1       9.255   1.822  21.445  0.00  0.00    -0.386 OA
ATOM     44  H   UNL     1       8.502   1.303  21.108  0.00  0.00    +0.210 HD
ENDBRANCH  39  43
BRANCH  40  45
ATOM     45  O   UNL     1      10.920   2.701  23.631  0.00  0.00    -0.387 OA
ATOM     46  H   UNL     1      10.341   3.438  23.900  0.00  0.00    +0.210 HD
ENDBRANCH  40  45
ENDBRANCH  34  37
ENDBRANCH  27  34
BRANCH  30  47
ATOM     47  C   UNL     1       7.630  -5.006  22.513  0.00  0.00    +0.190 C 
BRANCH  47  48
ATOM     48  O   UNL     1       7.212  -3.792  21.894  0.00  0.00    -0.392 OA
ATOM     49  H   UNL     1       6.368  -3.531  22.294  0.00  0.00    +0.210 HD
ENDBRANCH  47  48
ENDBRANCH  30  47
ENDBRANCH  26  28
ENDBRANCH   1  26
TORSDOF 15
ENDMDL
MODEL 5
REMARK VINA RESULT:      -6.9      2.103      3.534
REMARK  Name = 
REMARK  15 active torsions:
REMARK  status: ('A' for Active; 'I' for Inactive)
REMARK    1  A    between atoms: C_2  and  O_48
REMARK    2  A    between atoms: C_4  and  O_47
REMARK    3  A    between atoms: C_6  and  O_46
REMARK    4  A    between atoms: C_8  and  O_11
REMARK    5  A    between atoms: O_11  and  C_12
REMARK    6  A    between atoms: C_14  and  O_45
REMARK    7  A    between atoms: C_16  and  C_43
REMARK    8  A    between atoms: C_19  and  O_21
REMARK    9  A    between atoms: O_21  and  C_22
REMARK   10  A    between atoms: C_23  and  C_35
REMARK   11  A    between atoms: C_27  and  O_34
REMARK   12  A    between atoms: C_29  and  O_33
REMARK   13  A    between atoms: C_37  and  O_42
REMARK   14  A    between atoms: C_38  and  O_41
REMARK   15  A    between atoms: C_43  and  O_44
REMARK                            x       y       z     vdW  Elec       q    Type
REMARK                         _______ _______ _______ _____ _____    ______ ____
ROOT
ATOM      1  C   UNL     1       6.970   0.012  26.097  0.00  0.00    +0.214 A 
ATOM      2  C   UNL     1       6.774   1.445  25.684  0.00  0.00    +0.238 A 
ATOM      3  O   UNL     1       5.779   2.052  26.070  0.00  0.00    -0.283 OA
ATOM      4  C   UNL     1       7.853   2.074  24.874  0.00  0.00    +0.109 A 
ATOM      5  C   UNL     1       8.891   1.239  24.475  0.00  0.00    +0.147 A 
ATOM      6  C   UNL     1      10.059   1.732  23.895  0.00  0.00    +0.092 A 
ATOM      7  C   UNL     1      10.173   3.094  23.677  0.00  0.00    +0.124 A 
ATOM      8  C   UNL     1       9.110   3.944  23.953  0.00  0.00    +0.091 A 
ATOM      9  O   UNL     1       8.830  -0.115  24.591  0.00  0.00    -0.451 OA
ATOM     10  C   UNL     1       7.944   3.433  24.558  0.00  0.00    +0.135 A 
ATOM     11  C   UNL     1       7.895  -0.710  25.425  0.00  0.00    +0.181 A 
ENDROOT
BRANCH  11  12
ATOM     12  C   UNL     1       8.068  -2.191  25.382  0.00  0.00    +0.025 A 
ATOM     13  C   UNL     1       8.693  -2.819  26.497  0.00  0.00    +0.015 A 
ATOM     14  C   UNL     1       9.195  -4.111  26.434  0.00  0.00    +0.050 A 
ATOM     15  C   UNL     1       9.042  -4.822  25.258  0.00  0.00    +0.158 A 
ATOM     16  C   UNL     1       8.344  -4.271  24.184  0.00  0.00    +0.159 A 
ATOM     17  C   UNL     1       7.862  -2.961  24.230  0.00  0.00    +0.060 A 
BRANCH  15  18
ATOM     18  O   UNL     1       9.613  -6.057  25.155  0.00  0.00    -0.503 OA
ATOM     19  H   UNL     1       9.397  -6.354  24.249  0.00  0.00    +0.292 HD
ENDBRANCH  15  18
BRANCH  16  20
ATOM     20  O   UNL     1       8.194  -5.059  23.074  0.00  0.00    -0.503 OA
ATOM     21  H   UNL     1       9.014  -5.572  22.966  0.00  0.00    +0.292 HD
ENDBRANCH  16  20
ENDBRANCH  11  12
BRANCH   7  22
ATOM     22  O   UNL     1      11.317   3.634  23.174  0.00  0.00    -0.507 OA
ATOM     23  H   UNL     1      11.896   2.926  22.845  0.00  0.00    +0.292 HD
ENDBRANCH   7  22
BRANCH  10  24
ATOM     24  O   UNL     1       6.927   4.308  24.816  0.00  0.00    -0.506 OA
ATOM     25  H   UNL     1       7.235   5.032  25.391  0.00  0.00    +0.292 HD
ENDBRANCH  10  24
BRANCH   1  26
ATOM     26  O   UNL     1       6.068  -0.513  27.007  0.00  0.00    -0.453 OA
BRANCH  26  28
ATOM     27  C   UNL     1       4.804  -2.626  27.402  0.00  0.00    +0.221 C 
ATOM     28  C   UNL     1       5.152  -1.475  26.434  0.00  0.00    +0.340 C 
ATOM     29  O   UNL     1       3.888  -0.814  26.200  0.00  0.00    -0.331 OA
ATOM     30  C   UNL     1       3.080  -0.973  27.396  0.00  0.00    +0.179 C 
ATOM     31  C   UNL     1       3.866  -1.883  28.359  0.00  0.00    +0.180 C 
BRANCH  31  32
ATOM     32  O   UNL     1       4.534  -1.079  29.337  0.00  0.00    -0.386 OA
ATOM     33  H   UNL     1       3.897  -0.719  29.986  0.00  0.00    +0.210 HD
ENDBRANCH  31  32
BRANCH  27  34
ATOM     34  O   UNL     1       4.015  -3.690  26.820  0.00  0.00    -0.337 OA
BRANCH  34  37
ATOM     35  C   UNL     1       4.518  -4.141  23.266  0.00  0.00    +0.197 C 
ATOM     36  O   UNL     1       3.987  -3.650  24.487  0.00  0.00    -0.346 OA
ATOM     37  C   UNL     1       4.529  -4.294  25.634  0.00  0.00    +0.282 C 
ATOM     38  C   UNL     1       4.154  -5.806  25.600  0.00  0.00    +0.201 C 
ATOM     39  C   UNL     1       4.648  -6.432  24.276  0.00  0.00    +0.178 C 
ATOM     40  C   UNL     1       4.196  -5.616  23.059  0.00  0.00    +0.171 C 
BRANCH  38  41
ATOM     41  O   UNL     1       4.714  -6.504  26.726  0.00  0.00    -0.384 OA
ATOM     42  H   UNL     1       3.998  -6.741  27.336  0.00  0.00    +0.210 HD
ENDBRANCH  38  41
BRANCH  39  43
ATOM     43  O   UNL     1       4.188  -7.783  24.142  0.00  0.00    -0.386 OA
ATOM     44  H   UNL     1       3.912  -8.066  25.034  0.00  0.00    +0.210 HD
ENDBRANCH  39  43
BRANCH  40  45
ATOM     45  O   UNL     1       4.875  -6.108  21.897  0.00  0.00    -0.387 OA
ATOM     46  H   UNL     1       5.445  -5.387  21.568  0.00  0.00    +0.210 HD
ENDBRANCH  40  45
ENDBRANCH  34  37
ENDBRANCH  27  34
BRANCH  30  47
ATOM     47  C   UNL     1       1.705  -1.579  27.064  0.00  0.00    +0.190 C 
BRANCH  47  48
ATOM     48  O   UNL     1       1.687  -2.237  25.799  0.00  0.00    -0.392 OA
ATOM     49  H   UNL     1       2.576  -2.589  25.637  0.00  0.00    +0.210 HD
ENDBRANCH  47  48
ENDBRANCH  30  47
ENDBRANCH  26  28
ENDBRANCH   1  26
TORSDOF 15
ENDMDL
MODEL 6
REMARK VINA RESULT:      -6.9      2.598      7.744
REMARK  Name = 
REMARK  15 active torsions:
REMARK  status: ('A' for Active; 'I' for Inactive)
REMARK    1  A    between atoms: C_2  and  O_48
REMARK    2  A    between atoms: C_4  and  O_47
REMARK    3  A    between atoms: C_6  and  O_46
REMARK    4  A    between atoms: C_8  and  O_11
REMARK    5  A    between atoms: O_11  and  C_12
REMARK    6  A    between atoms: C_14  and  O_45
REMARK    7  A    between atoms: C_16  and  C_43
REMARK    8  A    between atoms: C_19  and  O_21
REMARK    9  A    between atoms: O_21  and  C_22
REMARK   10  A    between atoms: C_23  and  C_35
REMARK   11  A    between atoms: C_27  and  O_34
REMARK   12  A    between atoms: C_29  and  O_33
REMARK   13  A    between atoms: C_37  and  O_42
REMARK   14  A    between atoms: C_38  and  O_41
REMARK   15  A    between atoms: C_43  and  O_44
REMARK                            x       y       z     vdW  Elec       q    Type
REMARK                         _______ _______ _______ _____ _____    ______ ____
ROOT
ATOM      1  C   UNL     1       4.488  -2.517  25.685  0.00  0.00    +0.214 A 
ATOM      2  C   UNL     1       3.602  -3.310  26.606  0.00  0.00    +0.238 A 
ATOM      3  O   UNL     1       2.953  -2.725  27.469  0.00  0.00    -0.283 OA
ATOM      4  C   UNL     1       3.511  -4.776  26.367  0.00  0.00    +0.109 A 
ATOM      5  C   UNL     1       4.346  -5.295  25.384  0.00  0.00    +0.147 A 
ATOM      6  C   UNL     1       4.220  -6.602  24.916  0.00  0.00    +0.092 A 
ATOM      7  C   UNL     1       3.255  -7.421  25.474  0.00  0.00    +0.124 A 
ATOM      8  C   UNL     1       2.481  -6.976  26.539  0.00  0.00    +0.091 A 
ATOM      9  O   UNL     1       5.363  -4.579  24.833  0.00  0.00    -0.451 OA
ATOM     10  C   UNL     1       2.607  -5.646  26.987  0.00  0.00    +0.135 A 
ATOM     11  C   UNL     1       5.404  -3.198  24.960  0.00  0.00    +0.181 A 
ENDROOT
BRANCH  11  12
ATOM     12  C   UNL     1       6.602  -2.672  24.243  0.00  0.00    +0.025 A 
ATOM     13  C   UNL     1       6.388  -1.960  23.028  0.00  0.00    +0.015 A 
ATOM     14  C   UNL     1       7.412  -1.715  22.124  0.00  0.00    +0.050 A 
ATOM     15  C   UNL     1       8.689  -2.144  22.440  0.00  0.00    +0.158 A 
ATOM     16  C   UNL     1       8.947  -2.752  23.668  0.00  0.00    +0.159 A 
ATOM     17  C   UNL     1       7.917  -3.029  24.569  0.00  0.00    +0.060 A 
BRANCH  15  18
ATOM     18  O   UNL     1       9.683  -1.990  21.518  0.00  0.00    -0.503 OA
ATOM     19  H   UNL     1      10.257  -1.291  21.888  0.00  0.00    +0.292 HD
ENDBRANCH  15  18
BRANCH  16  20
ATOM     20  O   UNL     1      10.246  -3.101  23.924  0.00  0.00    -0.503 OA
ATOM     21  H   UNL     1      10.235  -3.972  24.360  0.00  0.00    +0.292 HD
ENDBRANCH  16  20
ENDBRANCH  11  12
BRANCH   7  22
ATOM     22  O   UNL     1       3.046  -8.684  25.010  0.00  0.00    -0.507 OA
ATOM     23  H   UNL     1       3.431  -8.773  24.121  0.00  0.00    +0.292 HD
ENDBRANCH   7  22
BRANCH  10  24
ATOM     24  O   UNL     1       1.822  -5.251  28.033  0.00  0.00    -0.506 OA
ATOM     25  H   UNL     1       1.044  -4.760  27.711  0.00  0.00    +0.292 HD
ENDBRANCH  10  24
BRANCH   1  26
ATOM     26  O   UNL     1       4.425  -1.137  25.779  0.00  0.00    -0.453 OA
BRANCH  26  28
ATOM     27  C   UNL     1       5.957   0.830  25.774  0.00  0.00    +0.221 C 
ATOM     28  C   UNL     1       5.592  -0.539  26.387  0.00  0.00    +0.340 C 
ATOM     29  O   UNL     1       5.282  -0.237  27.766  0.00  0.00    -0.331 OA
ATOM     30  C   UNL     1       4.744   1.111  27.812  0.00  0.00    +0.179 C 
ATOM     31  C   UNL     1       4.848   1.692  26.389  0.00  0.00    +0.180 C 
BRANCH  31  32
ATOM     32  O   UNL     1       3.581   1.581  25.734  0.00  0.00    -0.386 OA
ATOM     33  H   UNL     1       3.032   2.374  25.899  0.00  0.00    +0.210 HD
ENDBRANCH  31  32
BRANCH  27  34
ATOM     34  O   UNL     1       7.203   1.393  26.244  0.00  0.00    -0.337 OA
BRANCH  34  37
ATOM     35  C   UNL     1       8.292   2.737  23.067  0.00  0.00    +0.197 C 
ATOM     36  O   UNL     1       7.437   2.222  24.076  0.00  0.00    -0.346 OA
ATOM     37  C   UNL     1       8.133   1.814  25.248  0.00  0.00    +0.282 C 
ATOM     38  C   UNL     1       9.099   0.645  24.891  0.00  0.00    +0.201 C 
ATOM     39  C   UNL     1      10.052   1.089  23.757  0.00  0.00    +0.178 C 
ATOM     40  C   UNL     1       9.283   1.689  22.574  0.00  0.00    +0.171 C 
BRANCH  38  41
ATOM     41  O   UNL     1       9.852   0.226  26.043  0.00  0.00    -0.384 OA
ATOM     42  H   UNL     1      10.680  -0.183  25.745  0.00  0.00    +0.210 HD
ENDBRANCH  38  41
BRANCH  39  43
ATOM     43  O   UNL     1      10.852  -0.008  23.298  0.00  0.00    -0.386 OA
ATOM     44  H   UNL     1      10.920   0.091  22.330  0.00  0.00    +0.210 HD
ENDBRANCH  39  43
BRANCH  40  45
ATOM     45  O   UNL     1      10.222   2.289  21.671  0.00  0.00    -0.387 OA
ATOM     46  H   UNL     1      10.429   1.624  20.987  0.00  0.00    +0.210 HD
ENDBRANCH  40  45
ENDBRANCH  34  37
ENDBRANCH  27  34
BRANCH  30  47
ATOM     47  C   UNL     1       5.512   1.983  28.822  0.00  0.00    +0.190 C 
BRANCH  47  48
ATOM     48  O   UNL     1       6.804   1.463  29.124  0.00  0.00    -0.392 OA
ATOM     49  H   UNL     1       7.071   1.817  29.987  0.00  0.00    +0.210 HD
ENDBRANCH  47  48
ENDBRANCH  30  47
ENDBRANCH  26  28
ENDBRANCH   1  26
TORSDOF 15
ENDMDL
MODEL 7
REMARK VINA RESULT:      -6.8      2.381      5.260
REMARK  Name = 
REMARK  15 active torsions:
REMARK  status: ('A' for Active; 'I' for Inactive)
REMARK    1  A    between atoms: C_2  and  O_48
REMARK    2  A    between atoms: C_4  and  O_47
REMARK    3  A    between atoms: C_6  and  O_46
REMARK    4  A    between atoms: C_8  and  O_11
REMARK    5  A    between atoms: O_11  and  C_12
REMARK    6  A    between atoms: C_14  and  O_45
REMARK    7  A    between atoms: C_16  and  C_43
REMARK    8  A    between atoms: C_19  and  O_21
REMARK    9  A    between atoms: O_21  and  C_22
REMARK   10  A    between atoms: C_23  and  C_35
REMARK   11  A    between atoms: C_27  and  O_34
REMARK   12  A    between atoms: C_29  and  O_33
REMARK   13  A    between atoms: C_37  and  O_42
REMARK   14  A    between atoms: C_38  and  O_41
REMARK   15  A    between atoms: C_43  and  O_44
REMARK                            x       y       z     vdW  Elec       q    Type
REMARK                         _______ _______ _______ _____ _____    ______ ____
ROOT
ATOM      1  C   UNL     1       6.222  -0.734  25.330  0.00  0.00    +0.214 A 
ATOM      2  C   UNL     1       4.994  -0.640  26.195  0.00  0.00    +0.238 A 
ATOM      3  O   UNL     1       4.118  -1.493  26.091  0.00  0.00    -0.283 OA
ATOM      4  C   UNL     1       4.947   0.466  27.191  0.00  0.00    +0.109 A 
ATOM      5  C   UNL     1       5.994   1.380  27.149  0.00  0.00    +0.147 A 
ATOM      6  C   UNL     1       6.185   2.336  28.146  0.00  0.00    +0.092 A 
ATOM      7  C   UNL     1       5.281   2.400  29.192  0.00  0.00    +0.124 A 
ATOM      8  C   UNL     1       4.158   1.583  29.205  0.00  0.00    +0.091 A 
ATOM      9  O   UNL     1       6.885   1.428  26.123  0.00  0.00    -0.451 OA
ATOM     10  C   UNL     1       3.990   0.608  28.201  0.00  0.00    +0.135 A 
ATOM     11  C   UNL     1       7.013   0.359  25.248  0.00  0.00    +0.181 A 
ENDROOT
BRANCH  11  12
ATOM     12  C   UNL     1       8.072   0.668  24.244  0.00  0.00    +0.025 A 
ATOM     13  C   UNL     1       9.302   1.205  24.721  0.00  0.00    +0.015 A 
ATOM     14  C   UNL     1      10.216   1.824  23.880  0.00  0.00    +0.050 A 
ATOM     15  C   UNL     1       9.934   1.881  22.527  0.00  0.00    +0.158 A 
ATOM     16  C   UNL     1       8.787   1.273  22.017  0.00  0.00    +0.159 A 
ATOM     17  C   UNL     1       7.849   0.675  22.860  0.00  0.00    +0.060 A 
BRANCH  15  18
ATOM     18  O   UNL     1      10.780   2.567  21.705  0.00  0.00    -0.503 OA
ATOM     19  H   UNL     1      10.865   3.448  22.119  0.00  0.00    +0.292 HD
ENDBRANCH  15  18
BRANCH  16  20
ATOM     20  O   UNL     1       8.607   1.331  20.660  0.00  0.00    -0.503 OA
ATOM     21  H   UNL     1       7.838   0.776  20.443  0.00  0.00    +0.292 HD
ENDBRANCH  16  20
ENDBRANCH  11  12
BRANCH   7  22
ATOM     22  O   UNL     1       5.457   3.271  30.223  0.00  0.00    -0.507 OA
ATOM     23  H   UNL     1       5.790   4.119  29.883  0.00  0.00    +0.292 HD
ENDBRANCH   7  22
BRANCH  10  24
ATOM     24  O   UNL     1       2.874  -0.177  28.258  0.00  0.00    -0.506 OA
ATOM     25  H   UNL     1       2.981  -0.967  27.698  0.00  0.00    +0.292 HD
ENDBRANCH  10  24
BRANCH   1  26
ATOM     26  O   UNL     1       6.356  -1.866  24.545  0.00  0.00    -0.453 OA
BRANCH  26  28
ATOM     27  C   UNL     1       6.531  -4.352  24.441  0.00  0.00    +0.221 C 
ATOM     28  C   UNL     1       6.630  -3.070  25.297  0.00  0.00    +0.340 C 
ATOM     29  O   UNL     1       8.010  -3.036  25.724  0.00  0.00    -0.331 OA
ATOM     30  C   UNL     1       8.807  -3.673  24.690  0.00  0.00    +0.179 C 
ATOM     31  C   UNL     1       7.828  -4.225  23.636  0.00  0.00    +0.180 C 
BRANCH  31  32
ATOM     32  O   UNL     1       7.753  -3.316  22.533  0.00  0.00    -0.386 OA
ATOM     33  H   UNL     1       7.696  -2.391  22.846  0.00  0.00    +0.210 HD
ENDBRANCH  31  32
BRANCH  27  34
ATOM     34  O   UNL     1       6.644  -5.587  25.185  0.00  0.00    -0.337 OA
BRANCH  34  37
ATOM     35  C   UNL     1       6.280  -6.198  28.731  0.00  0.00    +0.197 C 
ATOM     36  O   UNL     1       6.845  -6.190  27.430  0.00  0.00    -0.346 OA
ATOM     37  C   UNL     1       5.977  -5.642  26.444  0.00  0.00    +0.282 C 
ATOM     38  C   UNL     1       4.700  -6.527  26.334  0.00  0.00    +0.201 C 
ATOM     39  C   UNL     1       4.028  -6.642  27.721  0.00  0.00    +0.178 C 
ATOM     40  C   UNL     1       5.030  -7.066  28.802  0.00  0.00    +0.171 C 
BRANCH  38  41
ATOM     41  O   UNL     1       3.777  -5.986  25.372  0.00  0.00    -0.384 OA
ATOM     42  H   UNL     1       2.930  -5.814  25.813  0.00  0.00    +0.210 HD
ENDBRANCH  38  41
BRANCH  39  43
ATOM     43  O   UNL     1       2.938  -7.572  27.690  0.00  0.00    -0.386 OA
ATOM     44  H   UNL     1       3.265  -8.359  27.216  0.00  0.00    +0.210 HD
ENDBRANCH  39  43
BRANCH  40  45
ATOM     45  O   UNL     1       4.408  -6.927  30.086  0.00  0.00    -0.387 OA
ATOM     46  H   UNL     1       5.122  -6.854  30.747  0.00  0.00    +0.210 HD
ENDBRANCH  40  45
ENDBRANCH  34  37
ENDBRANCH  27  34
BRANCH  30  47
ATOM     47  C   UNL     1       9.681  -4.797  25.274  0.00  0.00    +0.190 C 
BRANCH  47  48
ATOM     48  O   UNL     1       9.384  -5.068  26.641  0.00  0.00    -0.392 OA
ATOM     49  H   UNL     1       9.888  -5.854  26.903  0.00  0.00    +0.210 HD
ENDBRANCH  47  48
ENDBRANCH  30  47
ENDBRANCH  26  28
ENDBRANCH   1  26
TORSDOF 15
ENDMDL
MODEL 8
REMARK VINA RESULT:      -6.8      2.258      9.106
REMARK  Name = 
REMARK  15 active torsions:
REMARK  status: ('A' for Active; 'I' for Inactive)
REMARK    1  A    between atoms: C_2  and  O_48
REMARK    2  A    between atoms: C_4  and  O_47
REMARK    3  A    between atoms: C_6  and  O_46
REMARK    4  A    between atoms: C_8  and  O_11
REMARK    5  A    between atoms: O_11  and  C_12
REMARK    6  A    between atoms: C_14  and  O_45
REMARK    7  A    between atoms: C_16  and  C_43
REMARK    8  A    between atoms: C_19  and  O_21
REMARK    9  A    between atoms: O_21  and  C_22
REMARK   10  A    between atoms: C_23  and  C_35
REMARK   11  A    between atoms: C_27  and  O_34
REMARK   12  A    between atoms: C_29  and  O_33
REMARK   13  A    between atoms: C_37  and  O_42
REMARK   14  A    between atoms: C_38  and  O_41
REMARK   15  A    between atoms: C_43  and  O_44
REMARK                            x       y       z     vdW  Elec       q    Type
REMARK                         _______ _______ _______ _____ _____    ______ ____
ROOT
ATOM      1  C   UNL     1       7.386  -2.382  24.389  0.00  0.00    +0.214 A 
ATOM      2  C   UNL     1       7.188  -3.374  23.275  0.00  0.00    +0.238 A 
ATOM      3  O   UNL     1       7.868  -3.280  22.258  0.00  0.00    -0.283 OA
ATOM      4  C   UNL     1       6.210  -4.472  23.508  0.00  0.00    +0.109 A 
ATOM      5  C   UNL     1       5.483  -4.411  24.691  0.00  0.00    +0.147 A 
ATOM      6  C   UNL     1       4.691  -5.470  25.131  0.00  0.00    +0.092 A 
ATOM      7  C   UNL     1       4.597  -6.605  24.346  0.00  0.00    +0.124 A 
ATOM      8  C   UNL     1       5.214  -6.656  23.102  0.00  0.00    +0.091 A 
ATOM      9  O   UNL     1       5.466  -3.307  25.486  0.00  0.00    -0.451 OA
ATOM     10  C   UNL     1       6.028  -5.585  22.681  0.00  0.00    +0.135 A 
ATOM     11  C   UNL     1       6.436  -2.324  25.349  0.00  0.00    +0.181 A 
ENDROOT
BRANCH  11  12
ATOM     12  C   UNL     1       6.194  -1.250  26.356  0.00  0.00    +0.025 A 
ATOM     13  C   UNL     1       4.973  -0.523  26.271  0.00  0.00    +0.015 A 
ATOM     14  C   UNL     1       4.782   0.685  26.927  0.00  0.00    +0.050 A 
ATOM     15  C   UNL     1       5.804   1.172  27.722  0.00  0.00    +0.158 A 
ATOM     16  C   UNL     1       6.972   0.432  27.906  0.00  0.00    +0.159 A 
ATOM     17  C   UNL     1       7.182  -0.769  27.226  0.00  0.00    +0.060 A 
BRANCH  15  18
ATOM     18  O   UNL     1       5.663   2.402  28.297  0.00  0.00    -0.503 OA
ATOM     19  H   UNL     1       6.473   2.887  28.044  0.00  0.00    +0.292 HD
ENDBRANCH  15  18
BRANCH  16  20
ATOM     20  O   UNL     1       7.913   0.961  28.749  0.00  0.00    -0.503 OA
ATOM     21  H   UNL     1       7.447   1.287  29.540  0.00  0.00    +0.292 HD
ENDBRANCH  16  20
ENDBRANCH  11  12
BRANCH   7  22
ATOM     22  O   UNL     1       3.890  -7.693  24.759  0.00  0.00    -0.507 OA
ATOM     23  H   UNL     1       3.369  -7.464  25.548  0.00  0.00    +0.292 HD
ENDBRANCH   7  22
BRANCH  10  24
ATOM     24  O   UNL     1       6.619  -5.681  21.453  0.00  0.00    -0.506 OA
ATOM     25  H   UNL     1       5.946  -5.791  20.757  0.00  0.00    +0.292 HD
ENDBRANCH  10  24
BRANCH   1  26
ATOM     26  O   UNL     1       8.428  -1.480  24.256  0.00  0.00    -0.453 OA
BRANCH  26  28
ATOM     27  C   UNL     1       8.124   0.992  24.368  0.00  0.00    +0.221 C 
ATOM     28  C   UNL     1       8.079  -0.291  23.510  0.00  0.00    +0.340 C 
ATOM     29  O   UNL     1       9.090  -0.076  22.499  0.00  0.00    -0.331 OA
ATOM     30  C   UNL     1      10.123   0.764  23.081  0.00  0.00    +0.179 C 
ATOM     31  C   UNL     1       9.641   1.171  24.487  0.00  0.00    +0.180 C 
BRANCH  31  32
ATOM     32  O   UNL     1      10.261   0.331  25.464  0.00  0.00    -0.386 OA
ATOM     33  H   UNL     1      11.113  -0.021  25.134  0.00  0.00    +0.210 HD
ENDBRANCH  31  32
BRANCH  27  34
ATOM     34  O   UNL     1       7.635   2.181  23.705  0.00  0.00    -0.337 OA
BRANCH  34  37
ATOM     35  C   UNL     1       7.540   4.588  26.404  0.00  0.00    +0.197 C 
ATOM     36  O   UNL     1       7.275   3.413  25.654  0.00  0.00    -0.346 OA
ATOM     37  C   UNL     1       7.872   3.425  24.362  0.00  0.00    +0.282 C 
ATOM     38  C   UNL     1       7.267   4.593  23.527  0.00  0.00    +0.201 C 
ATOM     39  C   UNL     1       7.461   5.926  24.285  0.00  0.00    +0.178 C 
ATOM     40  C   UNL     1       6.968   5.831  25.734  0.00  0.00    +0.171 C 
BRANCH  38  41
ATOM     41  O   UNL     1       7.871   4.664  22.223  0.00  0.00    -0.384 OA
ATOM     42  H   UNL     1       8.494   3.927  22.126  0.00  0.00    +0.210 HD
ENDBRANCH  38  41
BRANCH  39  43
ATOM     43  O   UNL     1       6.784   7.000  23.620  0.00  0.00    -0.386 OA
ATOM     44  H   UNL     1       6.149   6.584  23.007  0.00  0.00    +0.210 HD
ENDBRANCH  39  43
BRANCH  40  45
ATOM     45  O   UNL     1       7.387   7.006  26.440  0.00  0.00    -0.387 OA
ATOM     46  H   UNL     1       8.323   6.878  26.684  0.00  0.00    +0.210 HD
ENDBRANCH  40  45
ENDBRANCH  34  37
ENDBRANCH  27  34
BRANCH  30  47
ATOM     47  C   UNL     1      10.388   2.004  22.208  0.00  0.00    +0.190 C 
BRANCH  47  48
ATOM     48  O   UNL     1       9.316   2.283  21.311  0.00  0.00    -0.392 OA
ATOM     49  H   UNL     1       8.490   2.250  21.818  0.00  0.00    +0.210 HD
ENDBRANCH  47  48
ENDBRANCH  30  47
ENDBRANCH  26  28
ENDBRANCH   1  26
TORSDOF 15
ENDMDL
MODEL 9
REMARK VINA RESULT:      -6.7      2.128      5.140
REMARK  Name = 
REMARK  15 active torsions:
REMARK  status: ('A' for Active; 'I' for Inactive)
REMARK    1  A    between atoms: C_2  and  O_48
REMARK    2  A    between atoms: C_4  and  O_47
REMARK    3  A    between atoms: C_6  and  O_46
REMARK    4  A    between atoms: C_8  and  O_11
REMARK    5  A    between atoms: O_11  and  C_12
REMARK    6  A    between atoms: C_14  and  O_45
REMARK    7  A    between atoms: C_16  and  C_43
REMARK    8  A    between atoms: C_19  and  O_21
REMARK    9  A    between atoms: O_21  and  C_22
REMARK   10  A    between atoms: C_23  and  C_35
REMARK   11  A    between atoms: C_27  and  O_34
REMARK   12  A    between atoms: C_29  and  O_33
REMARK   13  A    between atoms: C_37  and  O_42
REMARK   14  A    between atoms: C_38  and  O_41
REMARK   15  A    between atoms: C_43  and  O_44
REMARK                            x       y       z     vdW  Elec       q    Type
REMARK                         _______ _______ _______ _____ _____    ______ ____
ROOT
ATOM      1  C   UNL     1       7.928  -1.819  26.170  0.00  0.00    +0.214 A 
ATOM      2  C   UNL     1       8.917  -2.079  25.066  0.00  0.00    +0.238 A 
ATOM      3  O   UNL     1       9.479  -3.169  25.007  0.00  0.00    -0.283 OA
ATOM      4  C   UNL     1       9.107  -1.004  24.055  0.00  0.00    +0.109 A 
ATOM      5  C   UNL     1       8.436   0.190  24.290  0.00  0.00    +0.147 A 
ATOM      6  C   UNL     1       8.356   1.199  23.331  0.00  0.00    +0.092 A 
ATOM      7  C   UNL     1       8.999   1.020  22.118  0.00  0.00    +0.124 A 
ATOM      8  C   UNL     1       9.777  -0.108  21.892  0.00  0.00    +0.091 A 
ATOM      9  O   UNL     1       7.837   0.474  25.478  0.00  0.00    -0.451 OA
ATOM     10  C   UNL     1       9.829  -1.128  22.864  0.00  0.00    +0.135 A 
ATOM     11  C   UNL     1       7.560  -0.537  26.388  0.00  0.00    +0.181 A 
ENDROOT
BRANCH  11  12
ATOM     12  C   UNL     1       6.883   0.048  27.582  0.00  0.00    +0.025 A 
ATOM     13  C   UNL     1       5.468  -0.083  27.673  0.00  0.00    +0.015 A 
ATOM     14  C   UNL     1       4.707   0.684  28.545  0.00  0.00    +0.050 A 
ATOM     15  C   UNL     1       5.359   1.573  29.380  0.00  0.00    +0.158 A 
ATOM     16  C   UNL     1       6.751   1.649  29.386  0.00  0.00    +0.159 A 
ATOM     17  C   UNL     1       7.520   0.902  28.491  0.00  0.00    +0.060 A 
BRANCH  15  18
ATOM     18  O   UNL     1       4.615   2.397  30.175  0.00  0.00    -0.503 OA
ATOM     19  H   UNL     1       3.726   1.994  30.184  0.00  0.00    +0.292 HD
ENDBRANCH  15  18
BRANCH  16  20
ATOM     20  O   UNL     1       7.320   2.518  30.279  0.00  0.00    -0.503 OA
ATOM     21  H   UNL     1       6.800   3.341  30.258  0.00  0.00    +0.292 HD
ENDBRANCH  16  20
ENDBRANCH  11  12
BRANCH   7  22
ATOM     22  O   UNL     1       8.900   1.944  21.124  0.00  0.00    -0.507 OA
ATOM     23  H   UNL     1       9.776   2.326  20.944  0.00  0.00    +0.292 HD
ENDBRANCH   7  22
BRANCH  10  24
ATOM     24  O   UNL     1      10.603  -2.222  22.595  0.00  0.00    -0.506 OA
ATOM     25  H   UNL     1      10.323  -2.982  23.137  0.00  0.00    +0.292 HD
ENDBRANCH  10  24
BRANCH   1  26
ATOM     26  O   UNL     1       7.606  -2.883  26.995  0.00  0.00    -0.453 OA
BRANCH  26  28
ATOM     27  C   UNL     1       6.576  -4.874  25.903  0.00  0.00    +0.221 C 
ATOM     28  C   UNL     1       6.365  -3.537  26.647  0.00  0.00    +0.340 C 
ATOM     29  O   UNL     1       5.692  -3.916  27.869  0.00  0.00    -0.331 OA
ATOM     30  C   UNL     1       6.134  -5.255  28.219  0.00  0.00    +0.179 C 
ATOM     31  C   UNL     1       7.036  -5.750  27.072  0.00  0.00    +0.180 C 
BRANCH  31  32
ATOM     32  O   UNL     1       8.409  -5.578  27.437  0.00  0.00    -0.386 OA
ATOM     33  H   UNL     1       8.962  -6.293  27.063  0.00  0.00    +0.210 HD
ENDBRANCH  31  32
BRANCH  27  34
ATOM     34  O   UNL     1       5.366  -5.486  25.400  0.00  0.00    -0.337 OA
BRANCH  34  37
ATOM     35  C   UNL     1       6.109  -6.615  22.045  0.00  0.00    +0.197 C 
ATOM     36  O   UNL     1       6.233  -6.417  23.445  0.00  0.00    -0.346 OA
ATOM     37  C   UNL     1       5.228  -5.565  23.982  0.00  0.00    +0.282 C 
ATOM     38  C   UNL     1       5.365  -4.147  23.352  0.00  0.00    +0.201 C 
ATOM     39  C   UNL     1       5.292  -4.256  21.812  0.00  0.00    +0.178 C 
ATOM     40  C   UNL     1       6.264  -5.311  21.271  0.00  0.00    +0.171 C 
BRANCH  38  41
ATOM     41  O   UNL     1       4.343  -3.262  23.843  0.00  0.00    -0.384 OA
ATOM     42  H   UNL     1       3.608  -3.251  23.210  0.00  0.00    +0.210 HD
ENDBRANCH  38  41
BRANCH  39  43
ATOM     43  O   UNL     1       5.567  -2.993  21.193  0.00  0.00    -0.386 OA
ATOM     44  H   UNL     1       4.844  -2.838  20.557  0.00  0.00    +0.210 HD
ENDBRANCH  39  43
BRANCH  40  45
ATOM     45  O   UNL     1       5.982  -5.528  19.883  0.00  0.00    -0.387 OA
ATOM     46  H   UNL     1       5.704  -6.459  19.786  0.00  0.00    +0.210 HD
ENDBRANCH  40  45
ENDBRANCH  34  37
ENDBRANCH  27  34
BRANCH  30  47
ATOM     47  C   UNL     1       4.937  -6.199  28.427  0.00  0.00    +0.190 C 
BRANCH  47  48
ATOM     48  O   UNL     1       5.285  -7.571  28.260  0.00  0.00    -0.392 OA
ATOM     49  H   UNL     1       5.461  -7.941  29.139  0.00  0.00    +0.210 HD
ENDBRANCH  47  48
ENDBRANCH  30  47
ENDBRANCH  26  28
ENDBRANCH   1  26
TORSDOF 15
ENDMDL
