MODEL 1
REMARK VINA RESULT:      -7.6      0.000      0.000
REMARK  Name = 
REMARK  16 active torsions:
REMARK  status: ('A' for Active; 'I' for Inactive)
REMARK    1  A    between atoms: C_2  and  O_47
REMARK    2  A    between atoms: C_4  and  O_46
REMARK    3  A    between atoms: C_5  and  O_45
REMARK    4  A    between atoms: C_6  and  O_9
REMARK    5  A    between atoms: O_9  and  C_10
REMARK    6  A    between atoms: C_11  and  C_37
REMARK    7  A    between atoms: C_15  and  O_22
REMARK    8  A    between atoms: C_17  and  O_21
REMARK    9  A    between atoms: O_22  and  C_23
REMARK   10  A    between atoms: C_25  and  O_36
REMARK   11  A    between atoms: C_26  and  O_35
REMARK   12  A    between atoms: C_28  and  O_34
REMARK   13  A    between atoms: C_30  and  C_32
REMARK   14  A    between atoms: C_32  and  O_33
REMARK   15  A    between atoms: C_39  and  O_44
REMARK   16  A    between atoms: C_40  and  O_43
REMARK                            x       y       z     vdW  Elec       q    Type
REMARK                         _______ _______ _______ _____ _____    ______ ____
ROOT
ATOM      1  C   UNL     1       7.211  -4.223  24.864  0.00  0.00    +0.214 A 
ATOM      2  C   UNL     1       8.064  -3.543  23.825  0.00  0.00    +0.238 A 
ATOM      3  O   UNL     1       8.612  -4.161  22.921  0.00  0.00    -0.283 OA
ATOM      4  C   UNL     1       8.337  -2.109  24.006  0.00  0.00    +0.109 A 
ATOM      5  C   UNL     1       8.103  -1.570  25.260  0.00  0.00    +0.147 A 
ATOM      6  C   UNL     1       8.437  -0.239  25.536  0.00  0.00    +0.093 A 
ATOM      7  C   UNL     1       9.007   0.574  24.550  0.00  0.00    +0.131 A 
ATOM      8  C   UNL     1       9.240   0.031  23.283  0.00  0.00    +0.092 A 
ATOM      9  O   UNL     1       7.562  -2.294  26.288  0.00  0.00    -0.451 OA
ATOM     10  C   UNL     1       8.891  -1.296  23.008  0.00  0.00    +0.135 A 
ATOM     11  C   UNL     1       7.069  -3.572  26.041  0.00  0.00    +0.181 A 
ENDROOT
BRANCH  11  12
ATOM     12  C   UNL     1       6.434  -4.151  27.264  0.00  0.00    +0.025 A 
ATOM     13  C   UNL     1       5.295  -3.566  27.848  0.00  0.00    +0.015 A 
ATOM     14  C   UNL     1       4.621  -4.176  28.912  0.00  0.00    +0.050 A 
ATOM     15  C   UNL     1       5.069  -5.396  29.386  0.00  0.00    +0.158 A 
ATOM     16  C   UNL     1       6.187  -6.003  28.825  0.00  0.00    +0.159 A 
ATOM     17  C   UNL     1       6.875  -5.391  27.776  0.00  0.00    +0.060 A 
BRANCH  16  18
ATOM     18  O   UNL     1       6.558  -7.222  29.326  0.00  0.00    -0.503 OA
ATOM     19  H   UNL     1       7.427  -7.127  29.755  0.00  0.00    +0.292 HD
ENDBRANCH  16  18
BRANCH  15  20
ATOM     20  O   UNL     1       4.385  -6.011  30.395  0.00  0.00    -0.503 OA
ATOM     21  H   UNL     1       4.557  -5.457  31.182  0.00  0.00    +0.292 HD
ENDBRANCH  15  20
ENDBRANCH  11  12
BRANCH  10  22
ATOM     22  O   UNL     1       9.065  -1.775  21.738  0.00  0.00    -0.506 OA
ATOM     23  H   UNL     1       9.838  -2.359  21.695  0.00  0.00    +0.292 HD
ENDBRANCH  10  22
BRANCH   7  24
ATOM     24  O   UNL     1       9.333   1.903  24.692  0.00  0.00    -0.461 OA
BRANCH  24  25
ATOM     25  C   UNL     1       9.266   2.707  23.500  0.00  0.00    +0.339 C 
ATOM     26  O   UNL     1      10.534   3.269  23.157  0.00  0.00    -0.331 OA
ATOM     27  C   UNL     1      11.004   4.320  24.019  0.00  0.00    +0.179 C 
ATOM     28  C   UNL     1       9.984   5.473  24.119  0.00  0.00    +0.177 C 
ATOM     29  C   UNL     1       8.610   4.938  24.552  0.00  0.00    +0.180 C 
ATOM     30  C   UNL     1       8.182   3.798  23.628  0.00  0.00    +0.214 C 
BRANCH  29  31
ATOM     31  O   UNL     1       8.601   4.542  25.933  0.00  0.00    -0.386 OA
ATOM     32  H   UNL     1       9.472   4.184  26.178  0.00  0.00    +0.210 HD
ENDBRANCH  29  31
BRANCH  30  33
ATOM     33  O   UNL     1       6.930   3.259  24.052  0.00  0.00    -0.383 OA
ATOM     34  H   UNL     1       7.132   2.597  24.740  0.00  0.00    +0.210 HD
ENDBRANCH  30  33
BRANCH  28  35
ATOM     35  O   UNL     1       9.860   6.108  22.840  0.00  0.00    -0.386 OA
ATOM     36  H   UNL     1      10.587   5.804  22.267  0.00  0.00    +0.210 HD
ENDBRANCH  28  35
BRANCH  27  37
ATOM     37  C   UNL     1      12.335   4.830  23.432  0.00  0.00    +0.190 C 
BRANCH  37  38
ATOM     38  O   UNL     1      12.847   5.946  24.164  0.00  0.00    -0.392 OA
ATOM     39  H   UNL     1      13.542   6.366  23.633  0.00  0.00    +0.210 HD
ENDBRANCH  37  38
ENDBRANCH  27  37
ENDBRANCH  24  25
ENDBRANCH   7  24
BRANCH   1  40
ATOM     40  O   UNL     1       6.653  -5.489  24.665  0.00  0.00    -0.453 OA
BRANCH  40  43
ATOM     41  C   UNL     1       3.435  -4.457  23.376  0.00  0.00    +0.198 C 
ATOM     42  O   UNL     1       4.554  -4.488  24.262  0.00  0.00    -0.337 OA
ATOM     43  C   UNL     1       5.435  -5.567  23.913  0.00  0.00    +0.339 C 
ATOM     44  C   UNL     1       4.699  -6.882  24.251  0.00  0.00    +0.214 C 
ATOM     45  C   UNL     1       3.409  -6.970  23.415  0.00  0.00    +0.180 C 
ATOM     46  C   UNL     1       2.557  -5.694  23.571  0.00  0.00    +0.171 C 
BRANCH  46  47
ATOM     47  O   UNL     1       1.491  -5.679  22.621  0.00  0.00    -0.387 OA
ATOM     48  H   UNL     1       1.769  -5.113  21.880  0.00  0.00    +0.210 HD
ENDBRANCH  46  47
BRANCH  45  49
ATOM     49  O   UNL     1       2.660  -8.120  23.839  0.00  0.00    -0.386 OA
ATOM     50  H   UNL     1       2.187  -7.838  24.648  0.00  0.00    +0.210 HD
ENDBRANCH  45  49
BRANCH  44  51
ATOM     51  O   UNL     1       4.313  -6.933  25.646  0.00  0.00    -0.383 OA
ATOM     52  H   UNL     1       3.350  -6.766  25.670  0.00  0.00    +0.210 HD
ENDBRANCH  44  51
ENDBRANCH  40  43
ENDBRANCH   1  40
TORSDOF 16
ENDMDL
MODEL 2
REMARK VINA RESULT:      -7.2      1.771     10.423
REMARK  Name = 
REMARK  16 active torsions:
REMARK  status: ('A' for Active; 'I' for Inactive)
REMARK    1  A    between atoms: C_2  and  O_47
REMARK    2  A    between atoms: C_4  and  O_46
REMARK    3  A    between atoms: C_5  and  O_45
REMARK    4  A    between atoms: C_6  and  O_9
REMARK    5  A    between atoms: O_9  and  C_10
REMARK    6  A    between atoms: C_11  and  C_37
REMARK    7  A    between atoms: C_15  and  O_22
REMARK    8  A    between atoms: C_17  and  O_21
REMARK    9  A    between atoms: O_22  and  C_23
REMARK   10  A    between atoms: C_25  and  O_36
REMARK   11  A    between atoms: C_26  and  O_35
REMARK   12  A    between atoms: C_28  and  O_34
REMARK   13  A    between atoms: C_30  and  C_32
REMARK   14  A    between atoms: C_32  and  O_33
REMARK   15  A    between atoms: C_39  and  O_44
REMARK   16  A    between atoms: C_40  and  O_43
REMARK                            x       y       z     vdW  Elec       q    Type
REMARK                         _______ _______ _______ _____ _____    ______ ____
ROOT
ATOM      1  C   UNL     1       9.202   2.069  23.268  0.00  0.00    +0.214 A 
ATOM      2  C   UNL     1       9.556   0.654  22.889  0.00  0.00    +0.238 A 
ATOM      3  O   UNL     1      10.115   0.380  21.834  0.00  0.00    -0.283 OA
ATOM      4  C   UNL     1       9.083  -0.422  23.773  0.00  0.00    +0.109 A 
ATOM      5  C   UNL     1       8.075  -0.112  24.670  0.00  0.00    +0.147 A 
ATOM      6  C   UNL     1       7.503  -1.108  25.470  0.00  0.00    +0.093 A 
ATOM      7  C   UNL     1       7.942  -2.434  25.383  0.00  0.00    +0.131 A 
ATOM      8  C   UNL     1       8.962  -2.747  24.480  0.00  0.00    +0.092 A 
ATOM      9  O   UNL     1       7.574   1.154  24.812  0.00  0.00    -0.451 OA
ATOM     10  C   UNL     1       9.541  -1.745  23.693  0.00  0.00    +0.135 A 
ATOM     11  C   UNL     1       8.197   2.215  24.162  0.00  0.00    +0.181 A 
ENDROOT
BRANCH  11  12
ATOM     12  C   UNL     1       7.562   3.518  24.524  0.00  0.00    +0.025 A 
ATOM     13  C   UNL     1       6.661   4.163  23.656  0.00  0.00    +0.015 A 
ATOM     14  C   UNL     1       5.965   5.314  24.045  0.00  0.00    +0.050 A 
ATOM     15  C   UNL     1       6.146   5.816  25.321  0.00  0.00    +0.158 A 
ATOM     16  C   UNL     1       7.024   5.197  26.204  0.00  0.00    +0.159 A 
ATOM     17  C   UNL     1       7.735   4.060  25.817  0.00  0.00    +0.060 A 
BRANCH  16  18
ATOM     18  O   UNL     1       7.134   5.732  27.459  0.00  0.00    -0.503 OA
ATOM     19  H   UNL     1       6.881   5.051  28.107  0.00  0.00    +0.292 HD
ENDBRANCH  16  18
BRANCH  15  20
ATOM     20  O   UNL     1       5.434   6.913  25.713  0.00  0.00    -0.503 OA
ATOM     21  H   UNL     1       4.881   6.595  26.454  0.00  0.00    +0.292 HD
ENDBRANCH  15  20
ENDBRANCH  11  12
BRANCH  10  22
ATOM     22  O   UNL     1      10.586  -2.070  22.872  0.00  0.00    -0.506 OA
ATOM     23  H   UNL     1      11.384  -2.255  23.391  0.00  0.00    +0.292 HD
ENDBRANCH  10  22
BRANCH   7  24
ATOM     24  O   UNL     1       7.488  -3.485  26.147  0.00  0.00    -0.461 OA
BRANCH  24  25
ATOM     25  C   UNL     1       7.271  -4.729  25.457  0.00  0.00    +0.339 C 
ATOM     26  O   UNL     1       6.305  -4.603  24.412  0.00  0.00    -0.331 OA
ATOM     27  C   UNL     1       4.942  -4.431  24.839  0.00  0.00    +0.179 C 
ATOM     28  C   UNL     1       4.490  -5.573  25.772  0.00  0.00    +0.177 C 
ATOM     29  C   UNL     1       5.456  -5.713  26.957  0.00  0.00    +0.180 C 
ATOM     30  C   UNL     1       6.891  -5.851  26.445  0.00  0.00    +0.214 C 
BRANCH  29  31
ATOM     31  O   UNL     1       5.322  -4.629  27.889  0.00  0.00    -0.386 OA
ATOM     32  H   UNL     1       5.910  -4.776  28.651  0.00  0.00    +0.210 HD
ENDBRANCH  29  31
BRANCH  30  33
ATOM     33  O   UNL     1       7.804  -5.931  27.540  0.00  0.00    -0.383 OA
ATOM     34  H   UNL     1       8.149  -5.029  27.678  0.00  0.00    +0.210 HD
ENDBRANCH  30  33
BRANCH  28  35
ATOM     35  O   UNL     1       4.465  -6.803  25.036  0.00  0.00    -0.386 OA
ATOM     36  H   UNL     1       5.355  -6.971  24.675  0.00  0.00    +0.210 HD
ENDBRANCH  28  35
BRANCH  27  37
ATOM     37  C   UNL     1       4.068  -4.394  23.570  0.00  0.00    +0.190 C 
BRANCH  37  38
ATOM     38  O   UNL     1       4.683  -5.082  22.480  0.00  0.00    -0.392 OA
ATOM     39  H   UNL     1       4.159  -5.874  22.285  0.00  0.00    +0.210 HD
ENDBRANCH  37  38
ENDBRANCH  27  37
ENDBRANCH  24  25
ENDBRANCH   7  24
BRANCH   1  40
ATOM     40  O   UNL     1       9.816   3.179  22.682  0.00  0.00    -0.453 OA
BRANCH  40  43
ATOM     41  C   UNL     1      10.782   6.135  24.529  0.00  0.00    +0.198 C 
ATOM     42  O   UNL     1      10.105   5.358  23.541  0.00  0.00    -0.337 OA
ATOM     43  C   UNL     1      10.617   4.017  23.526  0.00  0.00    +0.339 C 
ATOM     44  C   UNL     1      12.057   4.086  22.973  0.00  0.00    +0.214 C 
ATOM     45  C   UNL     1      12.915   4.961  23.904  0.00  0.00    +0.180 C 
ATOM     46  C   UNL     1      12.251   6.331  24.148  0.00  0.00    +0.171 C 
BRANCH  46  47
ATOM     47  O   UNL     1      12.924   7.042  25.188  0.00  0.00    -0.387 OA
ATOM     48  H   UNL     1      13.654   6.479  25.500  0.00  0.00    +0.210 HD
ENDBRANCH  46  47
BRANCH  45  49
ATOM     49  O   UNL     1      14.211   5.139  23.309  0.00  0.00    -0.386 OA
ATOM     50  H   UNL     1      14.058   5.688  22.513  0.00  0.00    +0.210 HD
ENDBRANCH  45  49
BRANCH  44  51
ATOM     51  O   UNL     1      12.094   4.689  21.657  0.00  0.00    -0.383 OA
ATOM     52  H   UNL     1      11.441   5.417  21.672  0.00  0.00    +0.210 HD
ENDBRANCH  44  51
ENDBRANCH  40  43
ENDBRANCH   1  40
TORSDOF 16
ENDMDL
MODEL 3
REMARK VINA RESULT:      -7.0      1.981      3.407
REMARK  Name = 
REMARK  16 active torsions:
REMARK  status: ('A' for Active; 'I' for Inactive)
REMARK    1  A    between atoms: C_2  and  O_47
REMARK    2  A    between atoms: C_4  and  O_46
REMARK    3  A    between atoms: C_5  and  O_45
REMARK    4  A    between atoms: C_6  and  O_9
REMARK    5  A    between atoms: O_9  and  C_10
REMARK    6  A    between atoms: C_11  and  C_37
REMARK    7  A    between atoms: C_15  and  O_22
REMARK    8  A    between atoms: C_17  and  O_21
REMARK    9  A    between atoms: O_22  and  C_23
REMARK   10  A    between atoms: C_25  and  O_36
REMARK   11  A    between atoms: C_26  and  O_35
REMARK   12  A    between atoms: C_28  and  O_34
REMARK   13  A    between atoms: C_30  and  C_32
REMARK   14  A    between atoms: C_32  and  O_33
REMARK   15  A    between atoms: C_39  and  O_44
REMARK   16  A    between atoms: C_40  and  O_43
REMARK                            x       y       z     vdW  Elec       q    Type
REMARK                         _______ _______ _______ _____ _____    ______ ____
ROOT
ATOM      1  C   UNL     1       8.499  -2.293  24.069  0.00  0.00    +0.214 A 
ATOM      2  C   UNL     1       9.308  -1.282  23.300  0.00  0.00    +0.238 A 
ATOM      3  O   UNL     1      10.167  -1.610  22.491  0.00  0.00    -0.283 OA
ATOM      4  C   UNL     1       9.132   0.135  23.652  0.00  0.00    +0.109 A 
ATOM      5  C   UNL     1       8.525   0.419  24.863  0.00  0.00    +0.147 A 
ATOM      6  C   UNL     1       8.417   1.740  25.312  0.00  0.00    +0.093 A 
ATOM      7  C   UNL     1       8.913   2.800  24.544  0.00  0.00    +0.131 A 
ATOM      8  C   UNL     1       9.522   2.513  23.319  0.00  0.00    +0.092 A 
ATOM      9  O   UNL     1       8.024  -0.553  25.687  0.00  0.00    -0.451 OA
ATOM     10  C   UNL     1       9.615   1.192  22.868  0.00  0.00    +0.135 A 
ATOM     11  C   UNL     1       7.962  -1.868  25.236  0.00  0.00    +0.181 A 
ENDROOT
BRANCH  11  12
ATOM     12  C   UNL     1       7.295  -2.752  26.239  0.00  0.00    +0.025 A 
ATOM     13  C   UNL     1       5.990  -2.491  26.696  0.00  0.00    +0.015 A 
ATOM     14  C   UNL     1       5.314  -3.385  27.534  0.00  0.00    +0.050 A 
ATOM     15  C   UNL     1       5.932  -4.567  27.903  0.00  0.00    +0.158 A 
ATOM     16  C   UNL     1       7.218  -4.857  27.461  0.00  0.00    +0.159 A 
ATOM     17  C   UNL     1       7.905  -3.961  26.640  0.00  0.00    +0.060 A 
BRANCH  16  18
ATOM     18  O   UNL     1       7.758  -6.056  27.842  0.00  0.00    -0.503 OA
ATOM     19  H   UNL     1       7.301  -6.357  28.647  0.00  0.00    +0.292 HD
ENDBRANCH  16  18
BRANCH  15  20
ATOM     20  O   UNL     1       5.255  -5.458  28.684  0.00  0.00    -0.503 OA
ATOM     21  H   UNL     1       5.831  -6.247  28.713  0.00  0.00    +0.292 HD
ENDBRANCH  15  20
ENDBRANCH  11  12
BRANCH  10  22
ATOM     22  O   UNL     1      10.151   0.952  21.632  0.00  0.00    -0.506 OA
ATOM     23  H   UNL     1      11.110   0.819  21.694  0.00  0.00    +0.292 HD
ENDBRANCH  10  22
BRANCH   7  24
ATOM     24  O   UNL     1       8.823   4.136  24.861  0.00  0.00    -0.461 OA
BRANCH  24  25
ATOM     25  C   UNL     1       7.618   4.554  25.527  0.00  0.00    +0.339 C 
ATOM     26  O   UNL     1       6.469   4.434  24.686  0.00  0.00    -0.331 OA
ATOM     27  C   UNL     1       6.381   5.384  23.609  0.00  0.00    +0.179 C 
ATOM     28  C   UNL     1       6.444   6.836  24.126  0.00  0.00    +0.177 C 
ATOM     29  C   UNL     1       7.700   7.047  24.985  0.00  0.00    +0.180 C 
ATOM     30  C   UNL     1       7.762   5.986  26.084  0.00  0.00    +0.214 C 
BRANCH  29  31
ATOM     31  O   UNL     1       8.896   7.066  24.190  0.00  0.00    -0.386 OA
ATOM     32  H   UNL     1       8.855   6.361  23.520  0.00  0.00    +0.210 HD
ENDBRANCH  29  31
BRANCH  30  33
ATOM     33  O   UNL     1       8.951   6.140  26.858  0.00  0.00    -0.383 OA
ATOM     34  H   UNL     1       8.668   6.221  27.788  0.00  0.00    +0.210 HD
ENDBRANCH  30  33
BRANCH  28  35
ATOM     35  O   UNL     1       5.281   7.108  24.918  0.00  0.00    -0.386 OA
ATOM     36  H   UNL     1       4.561   6.516  24.633  0.00  0.00    +0.210 HD
ENDBRANCH  28  35
BRANCH  27  37
ATOM     37  C   UNL     1       5.046   5.129  22.884  0.00  0.00    +0.190 C 
BRANCH  37  38
ATOM     38  O   UNL     1       4.718   6.189  21.983  0.00  0.00    -0.392 OA
ATOM     39  H   UNL     1       4.176   5.823  21.267  0.00  0.00    +0.210 HD
ENDBRANCH  37  38
ENDBRANCH  27  37
ENDBRANCH  24  25
ENDBRANCH   7  24
BRANCH   1  40
ATOM     40  O   UNL     1       8.363  -3.620  23.651  0.00  0.00    -0.453 OA
BRANCH  40  43
ATOM     41  C   UNL     1       5.165  -5.289  23.917  0.00  0.00    +0.198 C 
ATOM     42  O   UNL     1       6.535  -5.005  24.205  0.00  0.00    -0.337 OA
ATOM     43  C   UNL     1       7.058  -4.062  23.258  0.00  0.00    +0.339 C 
ATOM     44  C   UNL     1       7.143  -4.786  21.896  0.00  0.00    +0.214 C 
ATOM     45  C   UNL     1       5.731  -5.227  21.468  0.00  0.00    +0.180 C 
ATOM     46  C   UNL     1       5.038  -6.032  22.586  0.00  0.00    +0.171 C 
BRANCH  46  47
ATOM     47  O   UNL     1       3.657  -6.235  22.281  0.00  0.00    -0.387 OA
ATOM     48  H   UNL     1       3.547  -6.096  21.324  0.00  0.00    +0.210 HD
ENDBRANCH  46  47
BRANCH  45  49
ATOM     49  O   UNL     1       5.836  -6.024  20.277  0.00  0.00    -0.386 OA
ATOM     50  H   UNL     1       5.879  -6.951  20.587  0.00  0.00    +0.210 HD
ENDBRANCH  45  49
BRANCH  44  51
ATOM     51  O   UNL     1       7.962  -5.978  21.977  0.00  0.00    -0.383 OA
ATOM     52  H   UNL     1       8.144  -6.247  21.055  0.00  0.00    +0.210 HD
ENDBRANCH  44  51
ENDBRANCH  40  43
ENDBRANCH   1  40
TORSDOF 16
ENDMDL
MODEL 4
REMARK VINA RESULT:      -6.8      1.395      2.638
REMARK  Name = 
REMARK  16 active torsions:
REMARK  status: ('A' for Active; 'I' for Inactive)
REMARK    1  A    between atoms: C_2  and  O_47
REMARK    2  A    between atoms: C_4  and  O_46
REMARK    3  A    between atoms: C_5  and  O_45
REMARK    4  A    between atoms: C_6  and  O_9
REMARK    5  A    between atoms: O_9  and  C_10
REMARK    6  A    between atoms: C_11  and  C_37
REMARK    7  A    between atoms: C_15  and  O_22
REMARK    8  A    between atoms: C_17  and  O_21
REMARK    9  A    between atoms: O_22  and  C_23
REMARK   10  A    between atoms: C_25  and  O_36
REMARK   11  A    between atoms: C_26  and  O_35
REMARK   12  A    between atoms: C_28  and  O_34
REMARK   13  A    between atoms: C_30  and  C_32
REMARK   14  A    between atoms: C_32  and  O_33
REMARK   15  A    between atoms: C_39  and  O_44
REMARK   16  A    between atoms: C_40  and  O_43
REMARK                            x       y       z     vdW  Elec       q    Type
REMARK                         _______ _______ _______ _____ _____    ______ ____
ROOT
ATOM      1  C   UNL     1       6.766  -4.604  24.543  0.00  0.00    +0.214 A 
ATOM      2  C   UNL     1       7.576  -4.124  23.367  0.00  0.00    +0.238 A 
ATOM      3  O   UNL     1       7.771  -4.821  22.379  0.00  0.00    -0.283 OA
ATOM      4  C   UNL     1       8.253  -2.825  23.496  0.00  0.00    +0.109 A 
ATOM      5  C   UNL     1       8.395  -2.305  24.772  0.00  0.00    +0.147 A 
ATOM      6  C   UNL     1       9.119  -1.126  24.984  0.00  0.00    +0.093 A 
ATOM      7  C   UNL     1       9.707  -0.446  23.912  0.00  0.00    +0.131 A 
ATOM      8  C   UNL     1       9.560  -0.968  22.623  0.00  0.00    +0.092 A 
ATOM      9  O   UNL     1       7.867  -2.910  25.881  0.00  0.00    -0.451 OA
ATOM     10  C   UNL     1       8.824  -2.140  22.415  0.00  0.00    +0.135 A 
ATOM     11  C   UNL     1       7.012  -3.997  25.727  0.00  0.00    +0.181 A 
ENDROOT
BRANCH  11  12
ATOM     12  C   UNL     1       6.467  -4.446  27.044  0.00  0.00    +0.025 A 
ATOM     13  C   UNL     1       5.413  -3.760  27.676  0.00  0.00    +0.015 A 
ATOM     14  C   UNL     1       4.814  -4.250  28.842  0.00  0.00    +0.050 A 
ATOM     15  C   UNL     1       5.249  -5.451  29.373  0.00  0.00    +0.158 A 
ATOM     16  C   UNL     1       6.283  -6.157  28.767  0.00  0.00    +0.159 A 
ATOM     17  C   UNL     1       6.898  -5.664  27.615  0.00  0.00    +0.060 A 
BRANCH  16  18
ATOM     18  O   UNL     1       6.643  -7.350  29.331  0.00  0.00    -0.503 OA
ATOM     19  H   UNL     1       7.292  -7.783  28.748  0.00  0.00    +0.292 HD
ENDBRANCH  16  18
BRANCH  15  20
ATOM     20  O   UNL     1       4.634  -5.950  30.485  0.00  0.00    -0.503 OA
ATOM     21  H   UNL     1       4.408  -6.872  30.249  0.00  0.00    +0.292 HD
ENDBRANCH  15  20
ENDBRANCH  11  12
BRANCH  10  22
ATOM     22  O   UNL     1       8.638  -2.584  21.135  0.00  0.00    -0.506 OA
ATOM     23  H   UNL     1       7.725  -2.886  21.006  0.00  0.00    +0.292 HD
ENDBRANCH  10  22
BRANCH   7  24
ATOM     24  O   UNL     1      10.399   0.741  23.993  0.00  0.00    -0.461 OA
BRANCH  24  25
ATOM     25  C   UNL     1       9.711   1.840  24.615  0.00  0.00    +0.339 C 
ATOM     26  O   UNL     1       8.332   1.548  24.853  0.00  0.00    -0.331 OA
ATOM     27  C   UNL     1       7.496   1.492  23.684  0.00  0.00    +0.179 C 
ATOM     28  C   UNL     1       7.572   2.798  22.867  0.00  0.00    +0.177 C 
ATOM     29  C   UNL     1       9.031   3.132  22.522  0.00  0.00    +0.180 C 
ATOM     30  C   UNL     1       9.879   3.136  23.794  0.00  0.00    +0.214 C 
BRANCH  29  31
ATOM     31  O   UNL     1       9.562   2.243  21.526  0.00  0.00    -0.386 OA
ATOM     32  H   UNL     1       9.229   2.498  20.648  0.00  0.00    +0.210 HD
ENDBRANCH  29  31
BRANCH  30  33
ATOM     33  O   UNL     1      11.247   3.394  23.479  0.00  0.00    -0.383 OA
ATOM     34  H   UNL     1      11.246   3.973  22.694  0.00  0.00    +0.210 HD
ENDBRANCH  30  33
BRANCH  28  35
ATOM     35  O   UNL     1       7.014   3.871  23.637  0.00  0.00    -0.386 OA
ATOM     36  H   UNL     1       6.253   4.242  23.154  0.00  0.00    +0.210 HD
ENDBRANCH  28  35
BRANCH  27  37
ATOM     37  C   UNL     1       6.054   1.242  24.167  0.00  0.00    +0.190 C 
BRANCH  37  38
ATOM     38  O   UNL     1       5.695  -0.138  24.081  0.00  0.00    -0.392 OA
ATOM     39  H   UNL     1       6.081  -0.601  24.841  0.00  0.00    +0.210 HD
ENDBRANCH  37  38
ENDBRANCH  27  37
ENDBRANCH  24  25
ENDBRANCH   7  24
BRANCH   1  40
ATOM     40  O   UNL     1       5.861  -5.665  24.448  0.00  0.00    -0.453 OA
BRANCH  40  43
ATOM     41  C   UNL     1       2.418  -4.559  24.535  0.00  0.00    +0.198 C 
ATOM     42  O   UNL     1       3.665  -5.037  25.041  0.00  0.00    -0.337 OA
ATOM     43  C   UNL     1       4.545  -5.373  23.959  0.00  0.00    +0.339 C 
ATOM     44  C   UNL     1       3.959  -6.624  23.268  0.00  0.00    +0.214 C 
ATOM     45  C   UNL     1       2.560  -6.290  22.718  0.00  0.00    +0.180 C 
ATOM     46  C   UNL     1       1.664  -5.677  23.813  0.00  0.00    +0.171 C 
BRANCH  46  47
ATOM     47  O   UNL     1       0.460  -5.156  23.249  0.00  0.00    -0.387 OA
ATOM     48  H   UNL     1      -0.087  -5.915  22.980  0.00  0.00    +0.210 HD
ENDBRANCH  46  47
BRANCH  45  49
ATOM     49  O   UNL     1       1.964  -7.493  22.207  0.00  0.00    -0.386 OA
ATOM     50  H   UNL     1       1.025  -7.271  22.047  0.00  0.00    +0.210 HD
ENDBRANCH  45  49
BRANCH  44  51
ATOM     51  O   UNL     1       3.807  -7.724  24.197  0.00  0.00    -0.383 OA
ATOM     52  H   UNL     1       4.664  -8.193  24.209  0.00  0.00    +0.210 HD
ENDBRANCH  44  51
ENDBRANCH  40  43
ENDBRANCH   1  40
TORSDOF 16
ENDMDL
MODEL 5
REMARK VINA RESULT:      -6.8      2.381     10.550
REMARK  Name = 
REMARK  16 active torsions:
REMARK  status: ('A' for Active; 'I' for Inactive)
REMARK    1  A    between atoms: C_2  and  O_47
REMARK    2  A    between atoms: C_4  and  O_46
REMARK    3  A    between atoms: C_5  and  O_45
REMARK    4  A    between atoms: C_6  and  O_9
REMARK    5  A    between atoms: O_9  and  C_10
REMARK    6  A    between atoms: C_11  and  C_37
REMARK    7  A    between atoms: C_15  and  O_22
REMARK    8  A    between atoms: C_17  and  O_21
REMARK    9  A    between atoms: O_22  and  C_23
REMARK   10  A    between atoms: C_25  and  O_36
REMARK   11  A    between atoms: C_26  and  O_35
REMARK   12  A    between atoms: C_28  and  O_34
REMARK   13  A    between atoms: C_30  and  C_32
REMARK   14  A    between atoms: C_32  and  O_33
REMARK   15  A    between atoms: C_39  and  O_44
REMARK   16  A    between atoms: C_40  and  O_43
REMARK                            x       y       z     vdW  Elec       q    Type
REMARK                         _______ _______ _______ _____ _____    ______ ____
ROOT
ATOM      1  C   UNL     1       7.732   2.298  23.003  0.00  0.00    +0.214 A 
ATOM      2  C   UNL     1       8.554   1.084  22.651  0.00  0.00    +0.238 A 
ATOM      3  O   UNL     1       9.532   1.147  21.917  0.00  0.00    -0.283 OA
ATOM      4  C   UNL     1       8.061  -0.223  23.111  0.00  0.00    +0.109 A 
ATOM      5  C   UNL     1       6.739  -0.299  23.515  0.00  0.00    +0.147 A 
ATOM      6  C   UNL     1       6.172  -1.529  23.867  0.00  0.00    +0.093 A 
ATOM      7  C   UNL     1       6.930  -2.705  23.824  0.00  0.00    +0.131 A 
ATOM      8  C   UNL     1       8.266  -2.627  23.420  0.00  0.00    +0.092 A 
ATOM      9  O   UNL     1       5.919   0.796  23.574  0.00  0.00    -0.451 OA
ATOM     10  C   UNL     1       8.832  -1.393  23.083  0.00  0.00    +0.135 A 
ATOM     11  C   UNL     1       6.456   2.066  23.385  0.00  0.00    +0.181 A 
ENDROOT
BRANCH  11  12
ATOM     12  C   UNL     1       5.421   3.125  23.588  0.00  0.00    +0.025 A 
ATOM     13  C   UNL     1       5.084   3.586  24.874  0.00  0.00    +0.015 A 
ATOM     14  C   UNL     1       4.213   4.666  25.060  0.00  0.00    +0.050 A 
ATOM     15  C   UNL     1       3.690   5.313  23.955  0.00  0.00    +0.158 A 
ATOM     16  C   UNL     1       4.011   4.885  22.671  0.00  0.00    +0.159 A 
ATOM     17  C   UNL     1       4.863   3.797  22.478  0.00  0.00    +0.060 A 
BRANCH  16  18
ATOM     18  O   UNL     1       3.479   5.588  21.624  0.00  0.00    -0.503 OA
ATOM     19  H   UNL     1       4.066   5.486  20.854  0.00  0.00    +0.292 HD
ENDBRANCH  16  18
BRANCH  15  20
ATOM     20  O   UNL     1       2.876   6.393  24.137  0.00  0.00    -0.503 OA
ATOM     21  H   UNL     1       2.590   6.331  25.071  0.00  0.00    +0.292 HD
ENDBRANCH  15  20
ENDBRANCH  11  12
BRANCH  10  22
ATOM     22  O   UNL     1      10.161  -1.341  22.762  0.00  0.00    -0.506 OA
ATOM     23  H   UNL     1      10.384  -0.486  22.363  0.00  0.00    +0.292 HD
ENDBRANCH  10  22
BRANCH   7  24
ATOM     24  O   UNL     1       6.495  -3.958  24.188  0.00  0.00    -0.461 OA
BRANCH  24  25
ATOM     25  C   UNL     1       5.219  -4.023  24.852  0.00  0.00    +0.339 C 
ATOM     26  O   UNL     1       5.336  -4.486  26.199  0.00  0.00    -0.331 OA
ATOM     27  C   UNL     1       5.656  -5.880  26.354  0.00  0.00    +0.179 C 
ATOM     28  C   UNL     1       4.636  -6.781  25.627  0.00  0.00    +0.177 C 
ATOM     29  C   UNL     1       4.516  -6.374  24.151  0.00  0.00    +0.180 C 
ATOM     30  C   UNL     1       4.219  -4.877  24.046  0.00  0.00    +0.214 C 
BRANCH  29  31
ATOM     31  O   UNL     1       5.682  -6.742  23.397  0.00  0.00    -0.386 OA
ATOM     32  H   UNL     1       6.354  -6.043  23.469  0.00  0.00    +0.210 HD
ENDBRANCH  29  31
BRANCH  30  33
ATOM     33  O   UNL     1       4.155  -4.477  22.678  0.00  0.00    -0.383 OA
ATOM     34  H   UNL     1       3.210  -4.363  22.466  0.00  0.00    +0.210 HD
ENDBRANCH  30  33
BRANCH  28  35
ATOM     35  O   UNL     1       3.355  -6.650  26.257  0.00  0.00    -0.386 OA
ATOM     36  H   UNL     1       3.458  -6.806  27.214  0.00  0.00    +0.210 HD
ENDBRANCH  28  35
BRANCH  27  37
ATOM     37  C   UNL     1       5.658  -6.181  27.865  0.00  0.00    +0.190 C 
BRANCH  37  38
ATOM     38  O   UNL     1       5.397  -7.560  28.134  0.00  0.00    -0.392 OA
ATOM     39  H   UNL     1       6.135  -7.914  28.654  0.00  0.00    +0.210 HD
ENDBRANCH  37  38
ENDBRANCH  27  37
ENDBRANCH  24  25
ENDBRANCH   7  24
BRANCH   1  40
ATOM     40  O   UNL     1       8.224   3.600  22.874  0.00  0.00    -0.453 OA
BRANCH  40  43
ATOM     41  C   UNL     1       8.383   5.584  25.893  0.00  0.00    +0.198 C 
ATOM     42  O   UNL     1       7.882   5.132  24.635  0.00  0.00    -0.337 OA
ATOM     43  C   UNL     1       8.802   4.209  24.035  0.00  0.00    +0.339 C 
ATOM     44  C   UNL     1      10.056   5.015  23.630  0.00  0.00    +0.214 C 
ATOM     45  C   UNL     1      10.687   5.637  24.889  0.00  0.00    +0.180 C 
ATOM     46  C   UNL     1       9.643   6.431  25.700  0.00  0.00    +0.171 C 
BRANCH  46  47
ATOM     47  O   UNL     1      10.169   6.804  26.974  0.00  0.00    -0.387 OA
ATOM     48  H   UNL     1      10.436   7.738  26.916  0.00  0.00    +0.210 HD
ENDBRANCH  46  47
BRANCH  45  49
ATOM     49  O   UNL     1      11.762   6.501  24.488  0.00  0.00    -0.386 OA
ATOM     50  H   UNL     1      11.382   7.092  23.808  0.00  0.00    +0.210 HD
ENDBRANCH  45  49
BRANCH  44  51
ATOM     51  O   UNL     1       9.722   6.101  22.732  0.00  0.00    -0.383 OA
ATOM     52  H   UNL     1       9.792   6.922  23.257  0.00  0.00    +0.210 HD
ENDBRANCH  44  51
ENDBRANCH  40  43
ENDBRANCH   1  40
TORSDOF 16
ENDMDL
MODEL 6
REMARK VINA RESULT:      -6.8      1.322      1.881
REMARK  Name = 
REMARK  16 active torsions:
REMARK  status: ('A' for Active; 'I' for Inactive)
REMARK    1  A    between atoms: C_2  and  O_47
REMARK    2  A    between atoms: C_4  and  O_46
REMARK    3  A    between atoms: C_5  and  O_45
REMARK    4  A    between atoms: C_6  and  O_9
REMARK    5  A    between atoms: O_9  and  C_10
REMARK    6  A    between atoms: C_11  and  C_37
REMARK    7  A    between atoms: C_15  and  O_22
REMARK    8  A    between atoms: C_17  and  O_21
REMARK    9  A    between atoms: O_22  and  C_23
REMARK   10  A    between atoms: C_25  and  O_36
REMARK   11  A    between atoms: C_26  and  O_35
REMARK   12  A    between atoms: C_28  and  O_34
REMARK   13  A    between atoms: C_30  and  C_32
REMARK   14  A    between atoms: C_32  and  O_33
REMARK   15  A    between atoms: C_39  and  O_44
REMARK   16  A    between atoms: C_40  and  O_43
REMARK                            x       y       z     vdW  Elec       q    Type
REMARK                         _______ _______ _______ _____ _____    ______ ____
ROOT
ATOM      1  C   UNL     1       6.656  -4.362  24.955  0.00  0.00    +0.214 A 
ATOM      2  C   UNL     1       7.404  -3.512  23.960  0.00  0.00    +0.238 A 
ATOM      3  O   UNL     1       7.960  -3.989  22.979  0.00  0.00    -0.283 OA
ATOM      4  C   UNL     1       7.568  -2.085  24.277  0.00  0.00    +0.109 A 
ATOM      5  C   UNL     1       7.347  -1.695  25.587  0.00  0.00    +0.147 A 
ATOM      6  C   UNL     1       7.584  -0.374  25.986  0.00  0.00    +0.093 A 
ATOM      7  C   UNL     1       8.042   0.578  25.069  0.00  0.00    +0.131 A 
ATOM      8  C   UNL     1       8.261   0.185  23.745  0.00  0.00    +0.092 A 
ATOM      9  O   UNL     1       6.913  -2.561  26.555  0.00  0.00    -0.451 OA
ATOM     10  C   UNL     1       8.009  -1.133  23.348  0.00  0.00    +0.135 A 
ATOM     11  C   UNL     1       6.515  -3.845  26.197  0.00  0.00    +0.181 A 
ENDROOT
BRANCH  11  12
ATOM     12  C   UNL     1       5.985  -4.594  27.376  0.00  0.00    +0.025 A 
ATOM     13  C   UNL     1       4.709  -4.323  27.906  0.00  0.00    +0.015 A 
ATOM     14  C   UNL     1       4.156  -5.108  28.924  0.00  0.00    +0.050 A 
ATOM     15  C   UNL     1       4.868  -6.192  29.406  0.00  0.00    +0.158 A 
ATOM     16  C   UNL     1       6.128  -6.489  28.898  0.00  0.00    +0.159 A 
ATOM     17  C   UNL     1       6.693  -5.700  27.896  0.00  0.00    +0.060 A 
BRANCH  16  18
ATOM     18  O   UNL     1       6.765  -7.591  29.402  0.00  0.00    -0.503 OA
ATOM     19  H   UNL     1       6.840  -7.489  30.367  0.00  0.00    +0.292 HD
ENDBRANCH  16  18
BRANCH  15  20
ATOM     20  O   UNL     1       4.310  -6.982  30.369  0.00  0.00    -0.503 OA
ATOM     21  H   UNL     1       4.344  -6.441  31.182  0.00  0.00    +0.292 HD
ENDBRANCH  15  20
ENDBRANCH  11  12
BRANCH  10  22
ATOM     22  O   UNL     1       8.164  -1.467  22.031  0.00  0.00    -0.506 OA
ATOM     23  H   UNL     1       9.097  -1.637  21.828  0.00  0.00    +0.292 HD
ENDBRANCH  10  22
BRANCH   7  24
ATOM     24  O   UNL     1       8.265   1.910  25.334  0.00  0.00    -0.461 OA
BRANCH  24  25
ATOM     25  C   UNL     1       7.605   2.852  24.469  0.00  0.00    +0.339 C 
ATOM     26  O   UNL     1       8.512   3.820  23.935  0.00  0.00    -0.331 OA
ATOM     27  C   UNL     1       9.004   4.796  24.870  0.00  0.00    +0.179 C 
ATOM     28  C   UNL     1       7.851   5.553  25.561  0.00  0.00    +0.177 C 
ATOM     29  C   UNL     1       6.874   4.563  26.215  0.00  0.00    +0.180 C 
ATOM     30  C   UNL     1       6.419   3.527  25.188  0.00  0.00    +0.214 C 
BRANCH  29  31
ATOM     31  O   UNL     1       7.438   3.948  27.384  0.00  0.00    -0.386 OA
ATOM     32  H   UNL     1       7.731   3.044  27.170  0.00  0.00    +0.210 HD
ENDBRANCH  29  31
BRANCH  30  33
ATOM     33  O   UNL     1       5.550   2.571  25.797  0.00  0.00    -0.383 OA
ATOM     34  H   UNL     1       5.255   2.964  26.640  0.00  0.00    +0.210 HD
ENDBRANCH  30  33
BRANCH  28  35
ATOM     35  O   UNL     1       7.147   6.335  24.588  0.00  0.00    -0.386 OA
ATOM     36  H   UNL     1       7.257   7.279  24.805  0.00  0.00    +0.210 HD
ENDBRANCH  28  35
BRANCH  27  37
ATOM     37  C   UNL     1       9.893   5.776  24.080  0.00  0.00    +0.190 C 
BRANCH  37  38
ATOM     38  O   UNL     1       9.364   6.046  22.781  0.00  0.00    -0.392 OA
ATOM     39  H   UNL     1       9.329   5.213  22.286  0.00  0.00    +0.210 HD
ENDBRANCH  37  38
ENDBRANCH  27  37
ENDBRANCH  24  25
ENDBRANCH   7  24
BRANCH   1  40
ATOM     40  O   UNL     1       6.194  -5.645  24.648  0.00  0.00    -0.453 OA
BRANCH  40  43
ATOM     41  C   UNL     1       3.205  -7.578  25.287  0.00  0.00    +0.198 C 
ATOM     42  O   UNL     1       4.556  -7.324  24.901  0.00  0.00    -0.337 OA
ATOM     43  C   UNL     1       4.799  -5.911  24.839  0.00  0.00    +0.339 C 
ATOM     44  C   UNL     1       3.996  -5.364  23.638  0.00  0.00    +0.214 C 
ATOM     45  C   UNL     1       2.497  -5.626  23.870  0.00  0.00    +0.180 C 
ATOM     46  C   UNL     1       2.236  -7.110  24.199  0.00  0.00    +0.171 C 
BRANCH  46  47
ATOM     47  O   UNL     1       0.892  -7.301  24.641  0.00  0.00    -0.387 OA
ATOM     48  H   UNL     1       0.623  -6.494  25.113  0.00  0.00    +0.210 HD
ENDBRANCH  46  47
BRANCH  45  49
ATOM     49  O   UNL     1       1.773  -5.247  22.688  0.00  0.00    -0.386 OA
ATOM     50  H   UNL     1       1.413  -4.358  22.878  0.00  0.00    +0.210 HD
ENDBRANCH  45  49
BRANCH  44  51
ATOM     51  O   UNL     1       4.365  -6.027  22.405  0.00  0.00    -0.383 OA
ATOM     52  H   UNL     1       5.294  -6.313  22.515  0.00  0.00    +0.210 HD
ENDBRANCH  44  51
ENDBRANCH  40  43
ENDBRANCH   1  40
TORSDOF 16
ENDMDL
MODEL 7
REMARK VINA RESULT:      -6.7      1.526      2.147
REMARK  Name = 
REMARK  16 active torsions:
REMARK  status: ('A' for Active; 'I' for Inactive)
REMARK    1  A    between atoms: C_2  and  O_47
REMARK    2  A    between atoms: C_4  and  O_46
REMARK    3  A    between atoms: C_5  and  O_45
REMARK    4  A    between atoms: C_6  and  O_9
REMARK    5  A    between atoms: O_9  and  C_10
REMARK    6  A    between atoms: C_11  and  C_37
REMARK    7  A    between atoms: C_15  and  O_22
REMARK    8  A    between atoms: C_17  and  O_21
REMARK    9  A    between atoms: O_22  and  C_23
REMARK   10  A    between atoms: C_25  and  O_36
REMARK   11  A    between atoms: C_26  and  O_35
REMARK   12  A    between atoms: C_28  and  O_34
REMARK   13  A    between atoms: C_30  and  C_32
REMARK   14  A    between atoms: C_32  and  O_33
REMARK   15  A    between atoms: C_39  and  O_44
REMARK   16  A    between atoms: C_40  and  O_43
REMARK                            x       y       z     vdW  Elec       q    Type
REMARK                         _______ _______ _______ _____ _____    ______ ____
ROOT
ATOM      1  C   UNL     1       7.981  -3.835  25.361  0.00  0.00    +0.214 A 
ATOM      2  C   UNL     1       9.152  -3.175  24.679  0.00  0.00    +0.238 A 
ATOM      3  O   UNL     1      10.101  -3.814  24.245  0.00  0.00    -0.283 OA
ATOM      4  C   UNL     1       9.189  -1.704  24.671  0.00  0.00    +0.109 A 
ATOM      5  C   UNL     1       8.365  -1.042  25.565  0.00  0.00    +0.147 A 
ATOM      6  C   UNL     1       8.422   0.352  25.687  0.00  0.00    +0.093 A 
ATOM      7  C   UNL     1       9.306   1.102  24.904  0.00  0.00    +0.131 A 
ATOM      8  C   UNL     1      10.135   0.434  23.998  0.00  0.00    +0.092 A 
ATOM      9  O   UNL     1       7.480  -1.695  26.381  0.00  0.00    -0.451 OA
ATOM     10  C   UNL     1      10.065  -0.958  23.870  0.00  0.00    +0.135 A 
ATOM     11  C   UNL     1       7.265  -3.058  26.206  0.00  0.00    +0.181 A 
ENDROOT
BRANCH  11  12
ATOM     12  C   UNL     1       6.195  -3.558  27.122  0.00  0.00    +0.025 A 
ATOM     13  C   UNL     1       6.343  -4.761  27.837  0.00  0.00    +0.015 A 
ATOM     14  C   UNL     1       5.405  -5.166  28.793  0.00  0.00    +0.050 A 
ATOM     15  C   UNL     1       4.318  -4.353  29.062  0.00  0.00    +0.158 A 
ATOM     16  C   UNL     1       4.149  -3.154  28.378  0.00  0.00    +0.159 A 
ATOM     17  C   UNL     1       5.071  -2.753  27.410  0.00  0.00    +0.060 A 
BRANCH  16  18
ATOM     18  O   UNL     1       3.066  -2.387  28.714  0.00  0.00    -0.503 OA
ATOM     19  H   UNL     1       2.295  -2.972  28.821  0.00  0.00    +0.292 HD
ENDBRANCH  16  18
BRANCH  15  20
ATOM     20  O   UNL     1       3.427  -4.728  30.026  0.00  0.00    -0.503 OA
ATOM     21  H   UNL     1       3.102  -5.603  29.733  0.00  0.00    +0.292 HD
ENDBRANCH  15  20
ENDBRANCH  11  12
BRANCH  10  22
ATOM     22  O   UNL     1      10.836  -1.574  22.924  0.00  0.00    -0.506 OA
ATOM     23  H   UNL     1      11.091  -0.948  22.228  0.00  0.00    +0.292 HD
ENDBRANCH  10  22
BRANCH   7  24
ATOM     24  O   UNL     1       9.418   2.474  24.904  0.00  0.00    -0.461 OA
BRANCH  24  25
ATOM     25  C   UNL     1       9.236   3.129  23.636  0.00  0.00    +0.339 C 
ATOM     26  O   UNL     1      10.378   3.902  23.261  0.00  0.00    -0.331 OA
ATOM     27  C   UNL     1      10.593   5.105  24.020  0.00  0.00    +0.179 C 
ATOM     28  C   UNL     1       9.358   6.029  23.984  0.00  0.00    +0.177 C 
ATOM     29  C   UNL     1       8.105   5.269  24.443  0.00  0.00    +0.180 C 
ATOM     30  C   UNL     1       7.951   3.982  23.632  0.00  0.00    +0.214 C 
BRANCH  29  31
ATOM     31  O   UNL     1       8.121   5.014  25.856  0.00  0.00    -0.386 OA
ATOM     32  H   UNL     1       7.757   4.129  26.035  0.00  0.00    +0.210 HD
ENDBRANCH  29  31
BRANCH  30  33
ATOM     33  O   UNL     1       6.817   3.242  24.085  0.00  0.00    -0.383 OA
ATOM     34  H   UNL     1       7.094   2.307  24.123  0.00  0.00    +0.210 HD
ENDBRANCH  30  33
BRANCH  28  35
ATOM     35  O   UNL     1       9.159   6.500  22.645  0.00  0.00    -0.386 OA
ATOM     36  H   UNL     1       8.990   7.460  22.671  0.00  0.00    +0.210 HD
ENDBRANCH  28  35
BRANCH  27  37
ATOM     37  C   UNL     1      11.816   5.817  23.409  0.00  0.00    +0.190 C 
BRANCH  37  38
ATOM     38  O   UNL     1      12.850   6.020  24.374  0.00  0.00    -0.392 OA
ATOM     39  H   UNL     1      12.787   5.319  25.041  0.00  0.00    +0.210 HD
ENDBRANCH  37  38
ENDBRANCH  27  37
ENDBRANCH  24  25
ENDBRANCH   7  24
BRANCH   1  40
ATOM     40  O   UNL     1       7.685  -5.191  25.197  0.00  0.00    -0.453 OA
BRANCH  40  43
ATOM     41  C   UNL     1       7.432  -5.209  21.589  0.00  0.00    +0.198 C 
ATOM     42  O   UNL     1       7.668  -4.679  22.894  0.00  0.00    -0.337 OA
ATOM     43  C   UNL     1       7.273  -5.628  23.896  0.00  0.00    +0.339 C 
ATOM     44  C   UNL     1       5.733  -5.729  23.845  0.00  0.00    +0.214 C 
ATOM     45  C   UNL     1       5.304  -6.230  22.454  0.00  0.00    +0.180 C 
ATOM     46  C   UNL     1       5.933  -5.374  21.336  0.00  0.00    +0.171 C 
BRANCH  46  47
ATOM     47  O   UNL     1       5.726  -5.978  20.059  0.00  0.00    -0.387 OA
ATOM     48  H   UNL     1       5.527  -6.919  20.211  0.00  0.00    +0.210 HD
ENDBRANCH  46  47
BRANCH  45  49
ATOM     49  O   UNL     1       3.871  -6.182  22.366  0.00  0.00    -0.386 OA
ATOM     50  H   UNL     1       3.589  -5.554  23.061  0.00  0.00    +0.210 HD
ENDBRANCH  45  49
BRANCH  44  51
ATOM     51  O   UNL     1       5.108  -4.439  24.051  0.00  0.00    -0.383 OA
ATOM     52  H   UNL     1       4.256  -4.616  24.498  0.00  0.00    +0.210 HD
ENDBRANCH  44  51
ENDBRANCH  40  43
ENDBRANCH   1  40
TORSDOF 16
ENDMDL
MODEL 8
REMARK VINA RESULT:      -6.6      2.479      3.392
REMARK  Name = 
REMARK  16 active torsions:
REMARK  status: ('A' for Active; 'I' for Inactive)
REMARK    1  A    between atoms: C_2  and  O_47
REMARK    2  A    between atoms: C_4  and  O_46
REMARK    3  A    between atoms: C_5  and  O_45
REMARK    4  A    between atoms: C_6  and  O_9
REMARK    5  A    between atoms: O_9  and  C_10
REMARK    6  A    between atoms: C_11  and  C_37
REMARK    7  A    between atoms: C_15  and  O_22
REMARK    8  A    between atoms: C_17  and  O_21
REMARK    9  A    between atoms: O_22  and  C_23
REMARK   10  A    between atoms: C_25  and  O_36
REMARK   11  A    between atoms: C_26  and  O_35
REMARK   12  A    between atoms: C_28  and  O_34
REMARK   13  A    between atoms: C_30  and  C_32
REMARK   14  A    between atoms: C_32  and  O_33
REMARK   15  A    between atoms: C_39  and  O_44
REMARK   16  A    between atoms: C_40  and  O_43
REMARK                            x       y       z     vdW  Elec       q    Type
REMARK                         _______ _______ _______ _____ _____    ______ ____
ROOT
ATOM      1  C   UNL     1       8.303  -2.264  25.157  0.00  0.00    +0.214 A 
ATOM      2  C   UNL     1       9.139  -1.068  24.783  0.00  0.00    +0.238 A 
ATOM      3  O   UNL     1      10.275  -1.177  24.337  0.00  0.00    -0.283 OA
ATOM      4  C   UNL     1       8.599   0.263  25.101  0.00  0.00    +0.109 A 
ATOM      5  C   UNL     1       7.558   0.326  26.013  0.00  0.00    +0.147 A 
ATOM      6  C   UNL     1       7.063   1.562  26.442  0.00  0.00    +0.093 A 
ATOM      7  C   UNL     1       7.603   2.758  25.955  0.00  0.00    +0.131 A 
ATOM      8  C   UNL     1       8.651   2.694  25.032  0.00  0.00    +0.092 A 
ATOM      9  O   UNL     1       6.978  -0.791  26.552  0.00  0.00    -0.451 OA
ATOM     10  C   UNL     1       9.134   1.455  24.595  0.00  0.00    +0.135 A 
ATOM     11  C   UNL     1       7.317  -2.046  26.058  0.00  0.00    +0.181 A 
ENDROOT
BRANCH  11  12
ATOM     12  C   UNL     1       6.505  -3.119  26.708  0.00  0.00    +0.025 A 
ATOM     13  C   UNL     1       5.104  -3.162  26.575  0.00  0.00    +0.015 A 
ATOM     14  C   UNL     1       4.353  -4.234  27.070  0.00  0.00    +0.050 A 
ATOM     15  C   UNL     1       5.004  -5.291  27.682  0.00  0.00    +0.158 A 
ATOM     16  C   UNL     1       6.387  -5.281  27.821  0.00  0.00    +0.159 A 
ATOM     17  C   UNL     1       7.140  -4.206  27.347  0.00  0.00    +0.060 A 
BRANCH  16  18
ATOM     18  O   UNL     1       6.967  -6.371  28.412  0.00  0.00    -0.503 OA
ATOM     19  H   UNL     1       7.455  -6.868  27.732  0.00  0.00    +0.292 HD
ENDBRANCH  16  18
BRANCH  15  20
ATOM     20  O   UNL     1       4.274  -6.356  28.125  0.00  0.00    -0.503 OA
ATOM     21  H   UNL     1       3.343  -6.085  28.003  0.00  0.00    +0.292 HD
ENDBRANCH  15  20
ENDBRANCH  11  12
BRANCH  10  22
ATOM     22  O   UNL     1      10.110   1.427  23.637  0.00  0.00    -0.506 OA
ATOM     23  H   UNL     1      10.310   0.514  23.378  0.00  0.00    +0.292 HD
ENDBRANCH  10  22
BRANCH   7  24
ATOM     24  O   UNL     1       7.169   4.025  26.269  0.00  0.00    -0.461 OA
BRANCH  24  25
ATOM     25  C   UNL     1       5.973   4.472  25.605  0.00  0.00    +0.339 C 
ATOM     26  O   UNL     1       6.087   4.400  24.183  0.00  0.00    -0.331 OA
ATOM     27  C   UNL     1       6.963   5.367  23.577  0.00  0.00    +0.179 C 
ATOM     28  C   UNL     1       6.563   6.809  23.951  0.00  0.00    +0.177 C 
ATOM     29  C   UNL     1       6.490   6.968  25.477  0.00  0.00    +0.180 C 
ATOM     30  C   UNL     1       5.581   5.891  26.069  0.00  0.00    +0.214 C 
BRANCH  29  31
ATOM     31  O   UNL     1       7.794   6.960  26.079  0.00  0.00    -0.386 OA
ATOM     32  H   UNL     1       7.708   6.985  27.048  0.00  0.00    +0.210 HD
ENDBRANCH  29  31
BRANCH  30  33
ATOM     33  O   UNL     1       5.545   5.997  27.492  0.00  0.00    -0.383 OA
ATOM     34  H   UNL     1       6.399   6.385  27.762  0.00  0.00    +0.210 HD
ENDBRANCH  30  33
BRANCH  28  35
ATOM     35  O   UNL     1       5.281   7.107  23.384  0.00  0.00    -0.386 OA
ATOM     36  H   UNL     1       4.588   6.772  23.982  0.00  0.00    +0.210 HD
ENDBRANCH  28  35
BRANCH  27  37
ATOM     37  C   UNL     1       6.881   5.164  22.051  0.00  0.00    +0.190 C 
BRANCH  37  38
ATOM     38  O   UNL     1       7.531   6.217  21.338  0.00  0.00    -0.392 OA
ATOM     39  H   UNL     1       8.093   6.704  21.960  0.00  0.00    +0.210 HD
ENDBRANCH  37  38
ENDBRANCH  27  37
ENDBRANCH  24  25
ENDBRANCH   7  24
BRANCH   1  40
ATOM     40  O   UNL     1       8.565  -3.546  24.666  0.00  0.00    -0.453 OA
BRANCH  40  43
ATOM     41  C   UNL     1       6.581  -3.236  21.658  0.00  0.00    +0.198 C 
ATOM     42  O   UNL     1       6.944  -3.046  23.026  0.00  0.00    -0.337 OA
ATOM     43  C   UNL     1       8.069  -3.871  23.361  0.00  0.00    +0.339 C 
ATOM     44  C   UNL     1       7.581  -5.336  23.341  0.00  0.00    +0.214 C 
ATOM     45  C   UNL     1       7.083  -5.684  21.926  0.00  0.00    +0.180 C 
ATOM     46  C   UNL     1       6.049  -4.652  21.432  0.00  0.00    +0.171 C 
BRANCH  46  47
ATOM     47  O   UNL     1       5.768  -4.842  20.045  0.00  0.00    -0.387 OA
ATOM     48  H   UNL     1       6.599  -5.107  19.613  0.00  0.00    +0.210 HD
ENDBRANCH  46  47
BRANCH  45  49
ATOM     49  O   UNL     1       6.498  -6.996  21.951  0.00  0.00    -0.386 OA
ATOM     50  H   UNL     1       7.253  -7.618  21.930  0.00  0.00    +0.210 HD
ENDBRANCH  45  49
BRANCH  44  51
ATOM     51  O   UNL     1       6.475  -5.542  24.252  0.00  0.00    -0.383 OA
ATOM     52  H   UNL     1       5.984  -4.696  24.281  0.00  0.00    +0.210 HD
ENDBRANCH  44  51
ENDBRANCH  40  43
ENDBRANCH   1  40
TORSDOF 16
ENDMDL
MODEL 9
REMARK VINA RESULT:      -6.6      1.731      2.881
REMARK  Name = 
REMARK  16 active torsions:
REMARK  status: ('A' for Active; 'I' for Inactive)
REMARK    1  A    between atoms: C_2  and  O_47
REMARK    2  A    between atoms: C_4  and  O_46
REMARK    3  A    between atoms: C_5  and  O_45
REMARK    4  A    between atoms: C_6  and  O_9
REMARK    5  A    between atoms: O_9  and  C_10
REMARK    6  A    between atoms: C_11  and  C_37
REMARK    7  A    between atoms: C_15  and  O_22
REMARK    8  A    between atoms: C_17  and  O_21
REMARK    9  A    between atoms: O_22  and  C_23
REMARK   10  A    between atoms: C_25  and  O_36
REMARK   11  A    between atoms: C_26  and  O_35
REMARK   12  A    between atoms: C_28  and  O_34
REMARK   13  A    between atoms: C_30  and  C_32
REMARK   14  A    between atoms: C_32  and  O_33
REMARK   15  A    between atoms: C_39  and  O_44
REMARK   16  A    between atoms: C_40  and  O_43
REMARK                            x       y       z     vdW  Elec       q    Type
REMARK                         _______ _______ _______ _____ _____    ______ ____
ROOT
ATOM      1  C   UNL     1       8.194  -3.064  24.917  0.00  0.00    +0.214 A 
ATOM      2  C   UNL     1       9.279  -2.430  24.086  0.00  0.00    +0.238 A 
ATOM      3  O   UNL     1      10.282  -3.043  23.742  0.00  0.00    -0.283 OA
ATOM      4  C   UNL     1       9.166  -0.990  23.808  0.00  0.00    +0.109 A 
ATOM      5  C   UNL     1       8.294  -0.257  24.595  0.00  0.00    +0.147 A 
ATOM      6  C   UNL     1       8.209   1.133  24.459  0.00  0.00    +0.093 A 
ATOM      7  C   UNL     1       8.999   1.809  23.522  0.00  0.00    +0.131 A 
ATOM      8  C   UNL     1       9.877   1.068  22.725  0.00  0.00    +0.092 A 
ATOM      9  O   UNL     1       7.494  -0.831  25.546  0.00  0.00    -0.451 OA
ATOM     10  C   UNL     1       9.947  -0.323  22.855  0.00  0.00    +0.135 A 
ATOM     11  C   UNL     1       7.416  -2.218  25.631  0.00  0.00    +0.181 A 
ENDROOT
BRANCH  11  12
ATOM     12  C   UNL     1       6.418  -2.641  26.660  0.00  0.00    +0.025 A 
ATOM     13  C   UNL     1       5.224  -1.924  26.865  0.00  0.00    +0.015 A 
ATOM     14  C   UNL     1       4.231  -2.389  27.734  0.00  0.00    +0.050 A 
ATOM     15  C   UNL     1       4.412  -3.594  28.388  0.00  0.00    +0.158 A 
ATOM     16  C   UNL     1       5.577  -4.329  28.200  0.00  0.00    +0.159 A 
ATOM     17  C   UNL     1       6.581  -3.863  27.350  0.00  0.00    +0.060 A 
BRANCH  16  18
ATOM     18  O   UNL     1       5.678  -5.525  28.858  0.00  0.00    -0.503 OA
ATOM     19  H   UNL     1       6.131  -5.373  29.706  0.00  0.00    +0.292 HD
ENDBRANCH  16  18
BRANCH  15  20
ATOM     20  O   UNL     1       3.423  -4.067  29.200  0.00  0.00    -0.503 OA
ATOM     21  H   UNL     1       3.859  -4.750  29.748  0.00  0.00    +0.292 HD
ENDBRANCH  15  20
ENDBRANCH  11  12
BRANCH  10  22
ATOM     22  O   UNL     1      10.762  -1.026  22.010  0.00  0.00    -0.506 OA
ATOM     23  H   UNL     1      11.454  -1.490  22.508  0.00  0.00    +0.292 HD
ENDBRANCH  10  22
BRANCH   7  24
ATOM     24  O   UNL     1       8.970   3.161  23.268  0.00  0.00    -0.461 OA
BRANCH  24  25
ATOM     25  C   UNL     1       9.265   4.025  24.380  0.00  0.00    +0.339 C 
ATOM     26  O   UNL     1       8.144   4.183  25.252  0.00  0.00    -0.331 OA
ATOM     27  C   UNL     1       7.057   4.972  24.735  0.00  0.00    +0.179 C 
ATOM     28  C   UNL     1       7.529   6.376  24.305  0.00  0.00    +0.177 C 
ATOM     29  C   UNL     1       8.695   6.271  23.310  0.00  0.00    +0.180 C 
ATOM     30  C   UNL     1       9.799   5.389  23.895  0.00  0.00    +0.214 C 
BRANCH  29  31
ATOM     31  O   UNL     1       8.260   5.804  22.024  0.00  0.00    -0.386 OA
ATOM     32  H   UNL     1       7.561   6.388  21.682  0.00  0.00    +0.210 HD
ENDBRANCH  29  31
BRANCH  30  33
ATOM     33  O   UNL     1      10.866   5.242  22.958  0.00  0.00    -0.383 OA
ATOM     34  H   UNL     1      10.848   4.313  22.662  0.00  0.00    +0.210 HD
ENDBRANCH  30  33
BRANCH  28  35
ATOM     35  O   UNL     1       7.961   7.105  25.461  0.00  0.00    -0.386 OA
ATOM     36  H   UNL     1       8.713   6.635  25.866  0.00  0.00    +0.210 HD
ENDBRANCH  28  35
BRANCH  27  37
ATOM     37  C   UNL     1       5.999   5.077  25.850  0.00  0.00    +0.190 C 
BRANCH  37  38
ATOM     38  O   UNL     1       6.595   5.098  27.149  0.00  0.00    -0.392 OA
ATOM     39  H   UNL     1       7.031   5.956  27.270  0.00  0.00    +0.210 HD
ENDBRANCH  37  38
ENDBRANCH  27  37
ENDBRANCH  24  25
ENDBRANCH   7  24
BRANCH   1  40
ATOM     40  O   UNL     1       8.035  -4.449  25.014  0.00  0.00    -0.453 OA
BRANCH  40  43
ATOM     41  C   UNL     1       7.137  -4.996  21.553  0.00  0.00    +0.198 C 
ATOM     42  O   UNL     1       7.451  -4.259  22.736  0.00  0.00    -0.337 OA
ATOM     43  C   UNL     1       7.529  -5.141  23.865  0.00  0.00    +0.339 C 
ATOM     44  C   UNL     1       6.096  -5.642  24.150  0.00  0.00    +0.214 C 
ATOM     45  C   UNL     1       5.575  -6.412  22.923  0.00  0.00    +0.180 C 
ATOM     46  C   UNL     1       5.722  -5.573  21.637  0.00  0.00    +0.171 C 
BRANCH  46  47
ATOM     47  O   UNL     1       5.461  -6.369  20.481  0.00  0.00    -0.387 OA
ATOM     48  H   UNL     1       4.927  -7.131  20.767  0.00  0.00    +0.210 HD
ENDBRANCH  46  47
BRANCH  45  49
ATOM     49  O   UNL     1       4.195  -6.747  23.138  0.00  0.00    -0.386 OA
ATOM     50  H   UNL     1       4.072  -7.623  22.720  0.00  0.00    +0.210 HD
ENDBRANCH  45  49
BRANCH  44  51
ATOM     51  O   UNL     1       5.185  -4.542  24.389  0.00  0.00    -0.383 OA
ATOM     52  H   UNL     1       4.592  -4.505  23.613  0.00  0.00    +0.210 HD
ENDBRANCH  44  51
ENDBRANCH  40  43
ENDBRANCH   1  40
TORSDOF 16
ENDMDL
