MODEL 1
REMARK VINA RESULT:      -7.3      0.000      0.000
REMARK  Name = 
REMARK  19 active torsions:
REMARK  status: ('A' for Active; 'I' for Inactive)
REMARK    1  A    between atoms: C_1  and  C_2
REMARK    2  A    between atoms: C_3  and  O_51
REMARK    3  A    between atoms: C_5  and  O_50
REMARK    4  A    between atoms: C_6  and  O_49
REMARK    5  A    between atoms: C_8  and  O_11
REMARK    6  A    between atoms: O_11  and  C_12
REMARK    7  A    between atoms: C_13  and  O_48
REMARK    8  A    between atoms: C_15  and  O_47
REMARK    9  A    between atoms: C_17  and  C_45
REMARK   10  A    between atoms: C_19  and  O_21
REMARK   11  A    between atoms: O_21  and  C_22
REMARK   12  A    between atoms: C_23  and  O_44
REMARK   13  A    between atoms: C_26  and  C_28
REMARK   14  A    between atoms: C_29  and  O_42
REMARK   15  A    between atoms: C_33  and  O_41
REMARK   16  A    between atoms: C_35  and  O_39
REMARK   17  A    between atoms: O_39  and  C_40
REMARK   18  A    between atoms: O_42  and  C_43
REMARK   19  A    between atoms: C_45  and  O_46
REMARK                            x       y       z     vdW  Elec       q    Type
REMARK                         _______ _______ _______ _____ _____    ______ ____
ROOT
ATOM      1  C   UNL     1       4.204  -6.045  24.283  0.00  0.00    +0.221 C 
ATOM      2  C   UNL     1       3.695  -5.596  22.817  0.00  0.00    +0.340 C 
ATOM      3  O   UNL     1       2.327  -5.142  22.963  0.00  0.00    -0.331 OA
ATOM      4  C   UNL     1       1.399  -6.142  23.464  0.00  0.00    +0.179 C 
ATOM      5  C   UNL     1       1.887  -6.865  24.745  0.00  0.00    +0.177 C 
ATOM      6  C   UNL     1       3.352  -7.298  24.589  0.00  0.00    +0.180 C 
ENDROOT
BRANCH   6   7
ATOM      7  O   UNL     1       3.770  -8.015  25.764  0.00  0.00    -0.386 OA
ATOM      8  H   UNL     1       3.327  -8.885  25.750  0.00  0.00    +0.210 HD
ENDBRANCH   6   7
BRANCH   5   9
ATOM      9  O   UNL     1       1.105  -8.025  25.072  0.00  0.00    -0.386 OA
ATOM     10  H   UNL     1       0.330  -7.985  24.474  0.00  0.00    +0.210 HD
ENDBRANCH   5   9
BRANCH   4  11
ATOM     11  C   UNL     1       0.981  -7.127  22.355  0.00  0.00    +0.190 C 
BRANCH  11  12
ATOM     12  O   UNL     1       1.714  -8.346  22.395  0.00  0.00    -0.392 OA
ATOM     13  H   UNL     1       2.524  -8.181  22.931  0.00  0.00    +0.210 HD
ENDBRANCH  11  12
ENDBRANCH   4  11
BRANCH   2  14
ATOM     14  O   UNL     1       4.564  -4.636  22.123  0.00  0.00    -0.457 OA
BRANCH  14  15
ATOM     15  C   UNL     1       5.754  -4.199  22.724  0.00  0.00    +0.166 A 
ATOM     16  C   UNL     1       5.843  -2.832  23.168  0.00  0.00    +0.061 A 
ATOM     17  C   UNL     1       7.028  -2.212  23.742  0.00  0.00    +0.025 A 
ATOM     18  C   UNL     1       8.126  -3.062  23.861  0.00  0.00    +0.015 A 
ATOM     19  C   UNL     1       8.081  -4.394  23.393  0.00  0.00    +0.050 A 
ATOM     20  C   UNL     1       6.922  -4.946  22.823  0.00  0.00    +0.159 A 
BRANCH  17  21
ATOM     21  C   UNL     1       7.031  -0.759  24.289  0.00  0.00    +0.181 A 
ATOM     22  O   UNL     1       8.220  -0.140  23.835  0.00  0.00    -0.451 OA
ATOM     23  C   UNL     1       8.501   1.184  24.092  0.00  0.00    +0.147 A 
ATOM     24  C   UNL     1       7.648   2.000  24.816  0.00  0.00    +0.109 A 
ATOM     25  C   UNL     1       7.968   3.345  25.044  0.00  0.00    +0.135 A 
ATOM     26  C   UNL     1       9.155   3.883  24.541  0.00  0.00    +0.092 A 
ATOM     27  C   UNL     1      10.018   3.076  23.818  0.00  0.00    +0.127 A 
ATOM     28  C   UNL     1       6.422   1.415  25.324  0.00  0.00    +0.238 A 
ATOM     29  O   UNL     1       5.671   2.128  25.983  0.00  0.00    -0.283 OA
ATOM     30  C   UNL     1       9.684   1.727  23.596  0.00  0.00    +0.092 A 
ATOM     31  C   UNL     1       6.123  -0.043  25.037  0.00  0.00    +0.211 A 
BRANCH  31  32
ATOM     32  O   UNL     1       4.937  -0.298  25.631  0.00  0.00    -0.488 OA
ATOM     33  C   UNL     1       4.414  -1.221  26.542  0.00  0.00    +0.277 C 
ENDBRANCH  31  32
BRANCH  27  34
ATOM     34  O   UNL     1      11.215   3.481  23.276  0.00  0.00    -0.495 OA
ATOM     35  C   UNL     1      11.566   4.849  23.469  0.00  0.00    +0.277 C 
ENDBRANCH  27  34
BRANCH  25  36
ATOM     36  O   UNL     1       7.168   4.203  25.747  0.00  0.00    -0.506 OA
ATOM     37  H   UNL     1       6.232   4.007  25.510  0.00  0.00    +0.292 HD
ENDBRANCH  25  36
ENDBRANCH  17  21
BRANCH  20  38
ATOM     38  O   UNL     1       7.067  -6.215  22.339  0.00  0.00    -0.503 OA
ATOM     39  H   UNL     1       6.490  -6.309  21.554  0.00  0.00    +0.292 HD
ENDBRANCH  20  38
ENDBRANCH  14  15
ENDBRANCH   2  14
BRANCH   1  40
ATOM     40  O   UNL     1       3.996  -5.025  25.312  0.00  0.00    -0.337 OA
BRANCH  40  44
ATOM     41  C   UNL     1       8.191  -4.857  26.955  0.00  0.00    +0.041 C 
ATOM     42  C   UNL     1       7.090  -5.905  27.166  0.00  0.00    +0.149 C 
ATOM     43  O   UNL     1       6.028  -5.862  26.191  0.00  0.00    -0.343 OA
ATOM     44  C   UNL     1       4.981  -4.886  26.385  0.00  0.00    +0.282 C 
ATOM     45  C   UNL     1       4.352  -4.983  27.796  0.00  0.00    +0.201 C 
ATOM     46  C   UNL     1       5.451  -4.930  28.865  0.00  0.00    +0.179 C 
ATOM     47  C   UNL     1       6.544  -5.970  28.598  0.00  0.00    +0.174 C 
BRANCH  47  48
ATOM     48  O   UNL     1       5.956  -7.270  28.803  0.00  0.00    -0.387 OA
ATOM     49  H   UNL     1       6.424  -7.659  29.578  0.00  0.00    +0.210 HD
ENDBRANCH  47  48
BRANCH  46  50
ATOM     50  O   UNL     1       4.849  -5.180  30.151  0.00  0.00    -0.386 OA
ATOM     51  H   UNL     1       5.544  -5.613  30.693  0.00  0.00    +0.210 HD
ENDBRANCH  46  50
BRANCH  45  52
ATOM     52  O   UNL     1       3.594  -6.198  27.949  0.00  0.00    -0.384 OA
ATOM     53  H   UNL     1       2.923  -6.173  27.238  0.00  0.00    +0.210 HD
ENDBRANCH  45  52
ENDBRANCH  40  44
ENDBRANCH   1  40
TORSDOF 16
ENDMDL
MODEL 2
REMARK VINA RESULT:      -7.2      2.094      9.690
REMARK  Name = 
REMARK  19 active torsions:
REMARK  status: ('A' for Active; 'I' for Inactive)
REMARK    1  A    between atoms: C_1  and  C_2
REMARK    2  A    between atoms: C_3  and  O_51
REMARK    3  A    between atoms: C_5  and  O_50
REMARK    4  A    between atoms: C_6  and  O_49
REMARK    5  A    between atoms: C_8  and  O_11
REMARK    6  A    between atoms: O_11  and  C_12
REMARK    7  A    between atoms: C_13  and  O_48
REMARK    8  A    between atoms: C_15  and  O_47
REMARK    9  A    between atoms: C_17  and  C_45
REMARK   10  A    between atoms: C_19  and  O_21
REMARK   11  A    between atoms: O_21  and  C_22
REMARK   12  A    between atoms: C_23  and  O_44
REMARK   13  A    between atoms: C_26  and  C_28
REMARK   14  A    between atoms: C_29  and  O_42
REMARK   15  A    between atoms: C_33  and  O_41
REMARK   16  A    between atoms: C_35  and  O_39
REMARK   17  A    between atoms: O_39  and  C_40
REMARK   18  A    between atoms: O_42  and  C_43
REMARK   19  A    between atoms: C_45  and  O_46
REMARK                            x       y       z     vdW  Elec       q    Type
REMARK                         _______ _______ _______ _____ _____    ______ ____
ROOT
ATOM      1  C   UNL     1       8.977   1.430  23.494  0.00  0.00    +0.221 C 
ATOM      2  C   UNL     1       8.452   0.601  24.777  0.00  0.00    +0.340 C 
ATOM      3  O   UNL     1       9.515  -0.305  25.160  0.00  0.00    -0.331 OA
ATOM      4  C   UNL     1       9.899  -1.267  24.142  0.00  0.00    +0.179 C 
ATOM      5  C   UNL     1      10.178  -0.635  22.755  0.00  0.00    +0.177 C 
ATOM      6  C   UNL     1       9.065   0.357  22.386  0.00  0.00    +0.180 C 
ENDROOT
BRANCH   6   7
ATOM      7  O   UNL     1       9.313   0.891  21.074  0.00  0.00    -0.386 OA
ATOM      8  H   UNL     1      10.280   0.928  20.949  0.00  0.00    +0.210 HD
ENDBRANCH   6   7
BRANCH   5   9
ATOM      9  O   UNL     1      10.286  -1.606  21.702  0.00  0.00    -0.386 OA
ATOM     10  H   UNL     1       9.526  -1.427  21.111  0.00  0.00    +0.210 HD
ENDBRANCH   5   9
BRANCH   4  11
ATOM     11  C   UNL     1       8.896  -2.435  24.064  0.00  0.00    +0.190 C 
BRANCH  11  12
ATOM     12  O   UNL     1       9.533  -3.703  23.958  0.00  0.00    -0.392 OA
ATOM     13  H   UNL     1       8.899  -4.310  23.510  0.00  0.00    +0.210 HD
ENDBRANCH  11  12
ENDBRANCH   4  11
BRANCH   2  14
ATOM     14  O   UNL     1       7.948   1.423  25.886  0.00  0.00    -0.457 OA
BRANCH  14  15
ATOM     15  C   UNL     1       6.983   0.908  26.764  0.00  0.00    +0.166 A 
ATOM     16  C   UNL     1       6.503  -0.433  26.554  0.00  0.00    +0.061 A 
ATOM     17  C   UNL     1       5.457  -1.081  27.332  0.00  0.00    +0.025 A 
ATOM     18  C   UNL     1       4.927  -0.297  28.356  0.00  0.00    +0.015 A 
ATOM     19  C   UNL     1       5.347   1.037  28.555  0.00  0.00    +0.050 A 
ATOM     20  C   UNL     1       6.345   1.632  27.765  0.00  0.00    +0.159 A 
BRANCH  17  21
ATOM     21  C   UNL     1       5.050  -2.563  27.118  0.00  0.00    +0.181 A 
ATOM     22  O   UNL     1       5.192  -2.845  25.738  0.00  0.00    -0.451 OA
ATOM     23  C   UNL     1       4.972  -4.103  25.221  0.00  0.00    +0.147 A 
ATOM     24  C   UNL     1       4.591  -5.176  26.009  0.00  0.00    +0.109 A 
ATOM     25  C   UNL     1       4.389  -6.442  25.441  0.00  0.00    +0.135 A 
ATOM     26  C   UNL     1       4.572  -6.638  24.070  0.00  0.00    +0.092 A 
ATOM     27  C   UNL     1       4.950  -5.572  23.272  0.00  0.00    +0.127 A 
ATOM     28  C   UNL     1       4.410  -4.943  27.428  0.00  0.00    +0.238 A 
ATOM     29  O   UNL     1       4.053  -5.886  28.128  0.00  0.00    -0.283 OA
ATOM     30  C   UNL     1       5.150  -4.307  23.854  0.00  0.00    +0.092 A 
ATOM     31  C   UNL     1       4.653  -3.555  27.987  0.00  0.00    +0.211 A 
BRANCH  31  32
ATOM     32  O   UNL     1       4.406  -3.645  29.312  0.00  0.00    -0.488 OA
ATOM     33  C   UNL     1       3.512  -3.096  30.236  0.00  0.00    +0.277 C 
ENDBRANCH  31  32
BRANCH  27  34
ATOM     34  O   UNL     1       5.158  -5.632  21.914  0.00  0.00    -0.495 OA
ATOM     35  C   UNL     1       6.512  -5.749  21.486  0.00  0.00    +0.277 C 
ENDBRANCH  27  34
BRANCH  25  36
ATOM     36  O   UNL     1       4.016  -7.542  26.164  0.00  0.00    -0.506 OA
ATOM     37  H   UNL     1       3.045  -7.488  26.319  0.00  0.00    +0.292 HD
ENDBRANCH  25  36
ENDBRANCH  17  21
BRANCH  20  38
ATOM     38  O   UNL     1       6.574   2.952  28.025  0.00  0.00    -0.503 OA
ATOM     39  H   UNL     1       6.290   3.470  27.243  0.00  0.00    +0.292 HD
ENDBRANCH  20  38
ENDBRANCH  14  15
ENDBRANCH   2  14
BRANCH   1  40
ATOM     40  O   UNL     1      10.283   2.059  23.698  0.00  0.00    -0.337 OA
BRANCH  40  44
ATOM     41  C   UNL     1      12.734   5.544  22.224  0.00  0.00    +0.041 C 
ATOM     42  C   UNL     1      12.072   5.310  23.588  0.00  0.00    +0.149 C 
ATOM     43  O   UNL     1      11.713   3.938  23.852  0.00  0.00    -0.343 OA
ATOM     44  C   UNL     1      10.474   3.451  23.293  0.00  0.00    +0.282 C 
ATOM     45  C   UNL     1       9.274   4.356  23.666  0.00  0.00    +0.201 C 
ATOM     46  C   UNL     1       9.584   5.814  23.304  0.00  0.00    +0.179 C 
ATOM     47  C   UNL     1      10.918   6.270  23.905  0.00  0.00    +0.174 C 
BRANCH  47  48
ATOM     48  O   UNL     1      10.747   6.321  25.336  0.00  0.00    -0.387 OA
ATOM     49  H   UNL     1      10.815   5.389  25.649  0.00  0.00    +0.210 HD
ENDBRANCH  47  48
BRANCH  46  50
ATOM     50  O   UNL     1       8.519   6.645  23.807  0.00  0.00    -0.386 OA
ATOM     51  H   UNL     1       8.822   7.571  23.690  0.00  0.00    +0.210 HD
ENDBRANCH  46  50
BRANCH  45  52
ATOM     52  O   UNL     1       8.967   4.266  25.070  0.00  0.00    -0.384 OA
ATOM     53  H   UNL     1       9.594   4.875  25.509  0.00  0.00    +0.210 HD
ENDBRANCH  45  52
ENDBRANCH  40  44
ENDBRANCH   1  40
TORSDOF 16
ENDMDL
MODEL 3
REMARK VINA RESULT:      -7.1      2.433      5.671
REMARK  Name = 
REMARK  19 active torsions:
REMARK  status: ('A' for Active; 'I' for Inactive)
REMARK    1  A    between atoms: C_1  and  C_2
REMARK    2  A    between atoms: C_3  and  O_51
REMARK    3  A    between atoms: C_5  and  O_50
REMARK    4  A    between atoms: C_6  and  O_49
REMARK    5  A    between atoms: C_8  and  O_11
REMARK    6  A    between atoms: O_11  and  C_12
REMARK    7  A    between atoms: C_13  and  O_48
REMARK    8  A    between atoms: C_15  and  O_47
REMARK    9  A    between atoms: C_17  and  C_45
REMARK   10  A    between atoms: C_19  and  O_21
REMARK   11  A    between atoms: O_21  and  C_22
REMARK   12  A    between atoms: C_23  and  O_44
REMARK   13  A    between atoms: C_26  and  C_28
REMARK   14  A    between atoms: C_29  and  O_42
REMARK   15  A    between atoms: C_33  and  O_41
REMARK   16  A    between atoms: C_35  and  O_39
REMARK   17  A    between atoms: O_39  and  C_40
REMARK   18  A    between atoms: O_42  and  C_43
REMARK   19  A    between atoms: C_45  and  O_46
REMARK                            x       y       z     vdW  Elec       q    Type
REMARK                         _______ _______ _______ _____ _____    ______ ____
ROOT
ATOM      1  C   UNL     1       6.486  -4.662  25.962  0.00  0.00    +0.221 C 
ATOM      2  C   UNL     1       6.408  -3.251  25.180  0.00  0.00    +0.340 C 
ATOM      3  O   UNL     1       6.945  -3.471  23.853  0.00  0.00    -0.331 OA
ATOM      4  C   UNL     1       8.327  -3.917  23.818  0.00  0.00    +0.179 C 
ATOM      5  C   UNL     1       8.621  -5.123  24.746  0.00  0.00    +0.177 C 
ATOM      6  C   UNL     1       8.005  -4.892  26.133  0.00  0.00    +0.180 C 
ENDROOT
BRANCH   6   7
ATOM      7  O   UNL     1       8.334  -5.994  26.996  0.00  0.00    -0.386 OA
ATOM      8  H   UNL     1       9.229  -5.832  27.351  0.00  0.00    +0.210 HD
ENDBRANCH   6   7
BRANCH   5   9
ATOM      9  O   UNL     1      10.025  -5.379  24.912  0.00  0.00    -0.386 OA
ATOM     10  H   UNL     1      10.074  -6.148  25.517  0.00  0.00    +0.210 HD
ENDBRANCH   5   9
BRANCH   4  11
ATOM     11  C   UNL     1       9.303  -2.747  24.048  0.00  0.00    +0.190 C 
BRANCH  11  12
ATOM     12  O   UNL     1      10.554  -2.935  23.396  0.00  0.00    -0.392 OA
ATOM     13  H   UNL     1      10.427  -2.696  22.449  0.00  0.00    +0.210 HD
ENDBRANCH  11  12
ENDBRANCH   4  11
BRANCH   2  14
ATOM     14  O   UNL     1       5.085  -2.611  25.182  0.00  0.00    -0.457 OA
BRANCH  14  15
ATOM     15  C   UNL     1       4.936  -1.300  25.659  0.00  0.00    +0.166 A 
ATOM     16  C   UNL     1       5.774  -0.265  25.111  0.00  0.00    +0.061 A 
ATOM     17  C   UNL     1       5.789   1.122  25.549  0.00  0.00    +0.025 A 
ATOM     18  C   UNL     1       4.889   1.416  26.573  0.00  0.00    +0.015 A 
ATOM     19  C   UNL     1       4.086   0.412  27.159  0.00  0.00    +0.050 A 
ATOM     20  C   UNL     1       4.121  -0.922  26.720  0.00  0.00    +0.159 A 
BRANCH  17  21
ATOM     21  C   UNL     1       6.648   2.211  24.854  0.00  0.00    +0.181 A 
ATOM     22  O   UNL     1       5.757   3.135  24.258  0.00  0.00    -0.451 OA
ATOM     23  C   UNL     1       6.200   4.268  23.611  0.00  0.00    +0.147 A 
ATOM     24  C   UNL     1       7.544   4.580  23.492  0.00  0.00    +0.109 A 
ATOM     25  C   UNL     1       7.950   5.751  22.835  0.00  0.00    +0.135 A 
ATOM     26  C   UNL     1       7.001   6.621  22.293  0.00  0.00    +0.092 A 
ATOM     27  C   UNL     1       5.655   6.318  22.403  0.00  0.00    +0.127 A 
ATOM     28  C   UNL     1       8.505   3.660  24.066  0.00  0.00    +0.238 A 
ATOM     29  O   UNL     1       9.699   3.921  23.946  0.00  0.00    -0.283 OA
ATOM     30  C   UNL     1       5.260   5.140  23.065  0.00  0.00    +0.092 A 
ATOM     31  C   UNL     1       8.008   2.416  24.774  0.00  0.00    +0.211 A 
BRANCH  31  32
ATOM     32  O   UNL     1       9.114   1.764  25.192  0.00  0.00    -0.488 OA
ATOM     33  C   UNL     1       9.917   0.705  24.757  0.00  0.00    +0.277 C 
ENDBRANCH  31  32
BRANCH  27  34
ATOM     34  O   UNL     1       4.626   7.086  21.910  0.00  0.00    -0.495 OA
ATOM     35  C   UNL     1       3.307   6.688  22.278  0.00  0.00    +0.277 C 
ENDBRANCH  27  34
BRANCH  25  36
ATOM     36  O   UNL     1       9.259   6.117  22.688  0.00  0.00    -0.506 OA
ATOM     37  H   UNL     1       9.284   7.078  22.475  0.00  0.00    +0.292 HD
ENDBRANCH  25  36
ENDBRANCH  17  21
BRANCH  20  38
ATOM     38  O   UNL     1       3.354  -1.787  27.447  0.00  0.00    -0.503 OA
ATOM     39  H   UNL     1       2.460  -1.399  27.537  0.00  0.00    +0.292 HD
ENDBRANCH  20  38
ENDBRANCH  14  15
ENDBRANCH   2  14
BRANCH   1  40
ATOM     40  O   UNL     1       5.883  -5.774  25.226  0.00  0.00    -0.337 OA
BRANCH  40  44
ATOM     41  C   UNL     1       1.956  -7.109  26.993  0.00  0.00    +0.041 C 
ATOM     42  C   UNL     1       2.695  -7.605  25.743  0.00  0.00    +0.149 C 
ATOM     43  O   UNL     1       4.092  -7.249  25.693  0.00  0.00    -0.343 OA
ATOM     44  C   UNL     1       4.428  -5.923  25.228  0.00  0.00    +0.282 C 
ATOM     45  C   UNL     1       3.789  -5.611  23.853  0.00  0.00    +0.201 C 
ATOM     46  C   UNL     1       2.280  -5.885  23.902  0.00  0.00    +0.179 C 
ATOM     47  C   UNL     1       1.982  -7.295  24.421  0.00  0.00    +0.174 C 
BRANCH  47  48
ATOM     48  O   UNL     1       2.447  -8.226  23.423  0.00  0.00    -0.387 OA
ATOM     49  H   UNL     1       3.086  -8.818  23.883  0.00  0.00    +0.210 HD
ENDBRANCH  47  48
BRANCH  46  50
ATOM     50  O   UNL     1       1.747  -5.737  22.570  0.00  0.00    -0.386 OA
ATOM     51  H   UNL     1       1.705  -6.643  22.195  0.00  0.00    +0.210 HD
ENDBRANCH  46  50
BRANCH  45  52
ATOM     52  O   UNL     1       4.385  -6.402  22.807  0.00  0.00    -0.384 OA
ATOM     53  H   UNL     1       4.284  -5.869  21.994  0.00  0.00    +0.210 HD
ENDBRANCH  45  52
ENDBRANCH  40  44
ENDBRANCH   1  40
TORSDOF 16
ENDMDL
MODEL 4
REMARK VINA RESULT:      -7.0      2.276      5.365
REMARK  Name = 
REMARK  19 active torsions:
REMARK  status: ('A' for Active; 'I' for Inactive)
REMARK    1  A    between atoms: C_1  and  C_2
REMARK    2  A    between atoms: C_3  and  O_51
REMARK    3  A    between atoms: C_5  and  O_50
REMARK    4  A    between atoms: C_6  and  O_49
REMARK    5  A    between atoms: C_8  and  O_11
REMARK    6  A    between atoms: O_11  and  C_12
REMARK    7  A    between atoms: C_13  and  O_48
REMARK    8  A    between atoms: C_15  and  O_47
REMARK    9  A    between atoms: C_17  and  C_45
REMARK   10  A    between atoms: C_19  and  O_21
REMARK   11  A    between atoms: O_21  and  C_22
REMARK   12  A    between atoms: C_23  and  O_44
REMARK   13  A    between atoms: C_26  and  C_28
REMARK   14  A    between atoms: C_29  and  O_42
REMARK   15  A    between atoms: C_33  and  O_41
REMARK   16  A    between atoms: C_35  and  O_39
REMARK   17  A    between atoms: O_39  and  C_40
REMARK   18  A    between atoms: O_42  and  C_43
REMARK   19  A    between atoms: C_45  and  O_46
REMARK                            x       y       z     vdW  Elec       q    Type
REMARK                         _______ _______ _______ _____ _____    ______ ____
ROOT
ATOM      1  C   UNL     1       6.646  -4.438  25.708  0.00  0.00    +0.221 C 
ATOM      2  C   UNL     1       6.739  -3.010  24.959  0.00  0.00    +0.340 C 
ATOM      3  O   UNL     1       7.361  -3.245  23.672  0.00  0.00    -0.331 OA
ATOM      4  C   UNL     1       8.704  -3.798  23.732  0.00  0.00    +0.179 C 
ATOM      5  C   UNL     1       8.830  -5.041  24.649  0.00  0.00    +0.177 C 
ATOM      6  C   UNL     1       8.125  -4.790  25.990  0.00  0.00    +0.180 C 
ENDROOT
BRANCH   6   7
ATOM      7  O   UNL     1       8.300  -5.932  26.847  0.00  0.00    -0.386 OA
ATOM      8  H   UNL     1       8.894  -5.665  27.574  0.00  0.00    +0.210 HD
ENDBRANCH   6   7
BRANCH   5   9
ATOM      9  O   UNL     1      10.192  -5.410  24.916  0.00  0.00    -0.386 OA
ATOM     10  H   UNL     1      10.200  -5.693  25.854  0.00  0.00    +0.210 HD
ENDBRANCH   5   9
BRANCH   4  11
ATOM     11  C   UNL     1       9.745  -2.712  24.067  0.00  0.00    +0.190 C 
BRANCH  11  12
ATOM     12  O   UNL     1      10.563  -2.370  22.954  0.00  0.00    -0.392 OA
ATOM     13  H   UNL     1      11.231  -3.087  22.853  0.00  0.00    +0.210 HD
ENDBRANCH  11  12
ENDBRANCH   4  11
BRANCH   2  14
ATOM     14  O   UNL     1       5.473  -2.268  24.875  0.00  0.00    -0.457 OA
BRANCH  14  15
ATOM     15  C   UNL     1       5.319  -1.055  25.562  0.00  0.00    +0.166 A 
ATOM     16  C   UNL     1       5.649   0.171  24.882  0.00  0.00    +0.061 A 
ATOM     17  C   UNL     1       5.611   1.498  25.479  0.00  0.00    +0.025 A 
ATOM     18  C   UNL     1       5.201   1.522  26.812  0.00  0.00    +0.015 A 
ATOM     19  C   UNL     1       4.915   0.331  27.516  0.00  0.00    +0.050 A 
ATOM     20  C   UNL     1       4.988  -0.933  26.907  0.00  0.00    +0.159 A 
BRANCH  17  21
ATOM     21  C   UNL     1       5.885   2.791  24.666  0.00  0.00    +0.181 A 
ATOM     22  O   UNL     1       7.243   3.137  24.870  0.00  0.00    -0.451 OA
ATOM     23  C   UNL     1       7.830   4.207  24.230  0.00  0.00    +0.147 A 
ATOM     24  C   UNL     1       7.136   5.023  23.352  0.00  0.00    +0.109 A 
ATOM     25  C   UNL     1       7.777   6.094  22.714  0.00  0.00    +0.135 A 
ATOM     26  C   UNL     1       9.128   6.353  22.956  0.00  0.00    +0.092 A 
ATOM     27  C   UNL     1       9.831   5.547  23.835  0.00  0.00    +0.127 A 
ATOM     28  C   UNL     1       5.736   4.728  23.119  0.00  0.00    +0.238 A 
ATOM     29  O   UNL     1       5.111   5.459  22.356  0.00  0.00    -0.283 OA
ATOM     30  C   UNL     1       9.176   4.474  24.468  0.00  0.00    +0.092 A 
ATOM     31  C   UNL     1       5.099   3.549  23.827  0.00  0.00    +0.211 A 
BRANCH  31  32
ATOM     32  O   UNL     1       3.810   3.530  23.423  0.00  0.00    -0.488 OA
ATOM     33  C   UNL     1       2.546   3.724  23.988  0.00  0.00    +0.277 C 
ENDBRANCH  31  32
BRANCH  27  34
ATOM     34  O   UNL     1      11.158   5.699  24.162  0.00  0.00    -0.495 OA
ATOM     35  C   UNL     1      12.086   4.909  23.421  0.00  0.00    +0.277 C 
ENDBRANCH  27  34
BRANCH  25  36
ATOM     36  O   UNL     1       7.149   6.932  21.834  0.00  0.00    -0.506 OA
ATOM     37  H   UNL     1       6.247   6.575  21.665  0.00  0.00    +0.292 HD
ENDBRANCH  25  36
ENDBRANCH  17  21
BRANCH  20  38
ATOM     38  O   UNL     1       4.769  -1.989  27.744  0.00  0.00    -0.503 OA
ATOM     39  H   UNL     1       4.167  -2.615  27.293  0.00  0.00    +0.292 HD
ENDBRANCH  20  38
ENDBRANCH  14  15
ENDBRANCH   2  14
BRANCH   1  40
ATOM     40  O   UNL     1       6.020  -5.484  24.899  0.00  0.00    -0.337 OA
BRANCH  40  44
ATOM     41  C   UNL     1       2.309  -6.924  27.016  0.00  0.00    +0.041 C 
ATOM     42  C   UNL     1       2.984  -7.448  25.741  0.00  0.00    +0.149 C 
ATOM     43  O   UNL     1       4.351  -7.023  25.570  0.00  0.00    -0.343 OA
ATOM     44  C   UNL     1       4.579  -5.708  25.016  0.00  0.00    +0.282 C 
ATOM     45  C   UNL     1       3.828  -5.504  23.679  0.00  0.00    +0.201 C 
ATOM     46  C   UNL     1       2.344  -5.851  23.853  0.00  0.00    +0.179 C 
ATOM     47  C   UNL     1       2.162  -7.246  24.461  0.00  0.00    +0.174 C 
BRANCH  47  48
ATOM     48  O   UNL     1       2.606  -8.203  23.479  0.00  0.00    -0.387 OA
ATOM     49  H   UNL     1       2.235  -9.071  23.761  0.00  0.00    +0.210 HD
ENDBRANCH  47  48
BRANCH  46  50
ATOM     50  O   UNL     1       1.709  -5.803  22.559  0.00  0.00    -0.386 OA
ATOM     51  H   UNL     1       1.187  -4.972  22.546  0.00  0.00    +0.210 HD
ENDBRANCH  46  50
BRANCH  45  52
ATOM     52  O   UNL     1       4.390  -6.317  22.632  0.00  0.00    -0.384 OA
ATOM     53  H   UNL     1       4.142  -5.870  21.798  0.00  0.00    +0.210 HD
ENDBRANCH  45  52
ENDBRANCH  40  44
ENDBRANCH   1  40
TORSDOF 16
ENDMDL
MODEL 5
REMARK VINA RESULT:      -7.0      1.986      4.046
REMARK  Name = 
REMARK  19 active torsions:
REMARK  status: ('A' for Active; 'I' for Inactive)
REMARK    1  A    between atoms: C_1  and  C_2
REMARK    2  A    between atoms: C_3  and  O_51
REMARK    3  A    between atoms: C_5  and  O_50
REMARK    4  A    between atoms: C_6  and  O_49
REMARK    5  A    between atoms: C_8  and  O_11
REMARK    6  A    between atoms: O_11  and  C_12
REMARK    7  A    between atoms: C_13  and  O_48
REMARK    8  A    between atoms: C_15  and  O_47
REMARK    9  A    between atoms: C_17  and  C_45
REMARK   10  A    between atoms: C_19  and  O_21
REMARK   11  A    between atoms: O_21  and  C_22
REMARK   12  A    between atoms: C_23  and  O_44
REMARK   13  A    between atoms: C_26  and  C_28
REMARK   14  A    between atoms: C_29  and  O_42
REMARK   15  A    between atoms: C_33  and  O_41
REMARK   16  A    between atoms: C_35  and  O_39
REMARK   17  A    between atoms: O_39  and  C_40
REMARK   18  A    between atoms: O_42  and  C_43
REMARK   19  A    between atoms: C_45  and  O_46
REMARK                            x       y       z     vdW  Elec       q    Type
REMARK                         _______ _______ _______ _____ _____    ______ ____
ROOT
ATOM      1  C   UNL     1       6.282  -3.685  26.006  0.00  0.00    +0.221 C 
ATOM      2  C   UNL     1       5.463  -3.828  24.622  0.00  0.00    +0.340 C 
ATOM      3  O   UNL     1       4.166  -4.383  24.951  0.00  0.00    -0.331 OA
ATOM      4  C   UNL     1       4.202  -5.693  25.578  0.00  0.00    +0.179 C 
ATOM      5  C   UNL     1       5.171  -5.785  26.784  0.00  0.00    +0.177 C 
ATOM      6  C   UNL     1       6.524  -5.151  26.432  0.00  0.00    +0.180 C 
ENDROOT
BRANCH   6   7
ATOM      7  O   UNL     1       7.427  -5.296  27.542  0.00  0.00    -0.386 OA
ATOM      8  H   UNL     1       7.087  -6.017  28.105  0.00  0.00    +0.210 HD
ENDBRANCH   6   7
BRANCH   5   9
ATOM      9  O   UNL     1       5.403  -7.135  27.220  0.00  0.00    -0.386 OA
ATOM     10  H   UNL     1       6.377  -7.216  27.289  0.00  0.00    +0.210 HD
ENDBRANCH   5   9
BRANCH   4  11
ATOM     11  C   UNL     1       4.444  -6.807  24.541  0.00  0.00    +0.190 C 
BRANCH  11  12
ATOM     12  O   UNL     1       3.665  -7.972  24.790  0.00  0.00    -0.392 OA
ATOM     13  H   UNL     1       4.058  -8.422  25.573  0.00  0.00    +0.210 HD
ENDBRANCH  11  12
ENDBRANCH   4  11
BRANCH   2  14
ATOM     14  O   UNL     1       5.392  -2.604  23.812  0.00  0.00    -0.457 OA
BRANCH  14  15
ATOM     15  C   UNL     1       6.569  -1.978  23.374  0.00  0.00    +0.166 A 
ATOM     16  C   UNL     1       6.753  -0.578  23.654  0.00  0.00    +0.061 A 
ATOM     17  C   UNL     1       7.881   0.226  23.207  0.00  0.00    +0.025 A 
ATOM     18  C   UNL     1       8.833  -0.473  22.466  0.00  0.00    +0.015 A 
ATOM     19  C   UNL     1       8.656  -1.835  22.138  0.00  0.00    +0.050 A 
ATOM     20  C   UNL     1       7.538  -2.569  22.571  0.00  0.00    +0.159 A 
BRANCH  17  21
ATOM     21  C   UNL     1       8.070   1.709  23.623  0.00  0.00    +0.181 A 
ATOM     22  O   UNL     1       9.424   2.045  23.388  0.00  0.00    -0.451 OA
ATOM     23  C   UNL     1       9.910   3.318  23.592  0.00  0.00    +0.147 A 
ATOM     24  C   UNL     1       9.113   4.355  24.047  0.00  0.00    +0.109 A 
ATOM     25  C   UNL     1       9.648   5.639  24.230  0.00  0.00    +0.135 A 
ATOM     26  C   UNL     1      10.993   5.889  23.952  0.00  0.00    +0.092 A 
ATOM     27  C   UNL     1      11.800   4.859  23.499  0.00  0.00    +0.127 A 
ATOM     28  C   UNL     1       7.721   4.066  24.325  0.00  0.00    +0.238 A 
ATOM     29  O   UNL     1       7.014   4.977  24.748  0.00  0.00    -0.283 OA
ATOM     30  C   UNL     1      11.252   3.576  23.319  0.00  0.00    +0.092 A 
ATOM     31  C   UNL     1       7.196   2.662  24.099  0.00  0.00    +0.211 A 
BRANCH  31  32
ATOM     32  O   UNL     1       5.891   2.698  24.443  0.00  0.00    -0.488 OA
ATOM     33  C   UNL     1       4.650   2.617  23.804  0.00  0.00    +0.277 C 
ENDBRANCH  31  32
BRANCH  27  34
ATOM     34  O   UNL     1      13.137   4.974  23.196  0.00  0.00    -0.495 OA
ATOM     35  C   UNL     1      13.455   5.668  21.992  0.00  0.00    +0.277 C 
ENDBRANCH  27  34
BRANCH  25  36
ATOM     36  O   UNL     1       8.914   6.704  24.673  0.00  0.00    -0.506 OA
ATOM     37  H   UNL     1       9.466   7.514  24.575  0.00  0.00    +0.292 HD
ENDBRANCH  25  36
ENDBRANCH  17  21
BRANCH  20  38
ATOM     38  O   UNL     1       7.470  -3.847  22.096  0.00  0.00    -0.503 OA
ATOM     39  H   UNL     1       6.599  -4.218  22.346  0.00  0.00    +0.292 HD
ENDBRANCH  20  38
ENDBRANCH  14  15
ENDBRANCH   2  14
BRANCH   1  40
ATOM     40  O   UNL     1       5.548  -2.968  27.050  0.00  0.00    -0.337 OA
BRANCH  40  44
ATOM     41  C   UNL     1       7.029   1.268  27.490  0.00  0.00    +0.041 C 
ATOM     42  C   UNL     1       5.923   0.525  28.252  0.00  0.00    +0.149 C 
ATOM     43  O   UNL     1       5.981  -0.912  28.140  0.00  0.00    -0.343 OA
ATOM     44  C   UNL     1       5.415  -1.514  26.956  0.00  0.00    +0.282 C 
ATOM     45  C   UNL     1       3.955  -1.058  26.714  0.00  0.00    +0.201 C 
ATOM     46  C   UNL     1       3.875   0.474  26.727  0.00  0.00    +0.179 C 
ATOM     47  C   UNL     1       4.509   1.059  27.994  0.00  0.00    +0.174 C 
BRANCH  47  48
ATOM     48  O   UNL     1       3.670   0.682  29.104  0.00  0.00    -0.387 OA
ATOM     49  H   UNL     1       4.000  -0.195  29.406  0.00  0.00    +0.210 HD
ENDBRANCH  47  48
BRANCH  46  50
ATOM     50  O   UNL     1       2.488   0.859  26.659  0.00  0.00    -0.386 OA
ATOM     51  H   UNL     1       2.219   0.733  25.723  0.00  0.00    +0.210 HD
ENDBRANCH  46  50
BRANCH  45  52
ATOM     52  O   UNL     1       3.067  -1.591  27.715  0.00  0.00    -0.384 OA
ATOM     53  H   UNL     1       2.752  -2.442  27.351  0.00  0.00    +0.210 HD
ENDBRANCH  45  52
ENDBRANCH  40  44
ENDBRANCH   1  40
TORSDOF 16
ENDMDL
MODEL 6
REMARK VINA RESULT:      -7.0      2.255      5.315
REMARK  Name = 
REMARK  19 active torsions:
REMARK  status: ('A' for Active; 'I' for Inactive)
REMARK    1  A    between atoms: C_1  and  C_2
REMARK    2  A    between atoms: C_3  and  O_51
REMARK    3  A    between atoms: C_5  and  O_50
REMARK    4  A    between atoms: C_6  and  O_49
REMARK    5  A    between atoms: C_8  and  O_11
REMARK    6  A    between atoms: O_11  and  C_12
REMARK    7  A    between atoms: C_13  and  O_48
REMARK    8  A    between atoms: C_15  and  O_47
REMARK    9  A    between atoms: C_17  and  C_45
REMARK   10  A    between atoms: C_19  and  O_21
REMARK   11  A    between atoms: O_21  and  C_22
REMARK   12  A    between atoms: C_23  and  O_44
REMARK   13  A    between atoms: C_26  and  C_28
REMARK   14  A    between atoms: C_29  and  O_42
REMARK   15  A    between atoms: C_33  and  O_41
REMARK   16  A    between atoms: C_35  and  O_39
REMARK   17  A    between atoms: O_39  and  C_40
REMARK   18  A    between atoms: O_42  and  C_43
REMARK   19  A    between atoms: C_45  and  O_46
REMARK                            x       y       z     vdW  Elec       q    Type
REMARK                         _______ _______ _______ _____ _____    ______ ____
ROOT
ATOM      1  C   UNL     1       5.990  -3.591  24.603  0.00  0.00    +0.221 C 
ATOM      2  C   UNL     1       5.472  -3.871  26.107  0.00  0.00    +0.340 C 
ATOM      3  O   UNL     1       5.871  -5.221  26.448  0.00  0.00    -0.331 OA
ATOM      4  C   UNL     1       5.318  -6.257  25.594  0.00  0.00    +0.179 C 
ATOM      5  C   UNL     1       5.504  -5.987  24.079  0.00  0.00    +0.177 C 
ATOM      6  C   UNL     1       5.122  -4.539  23.744  0.00  0.00    +0.180 C 
ENDROOT
BRANCH   6   7
ATOM      7  O   UNL     1       5.247  -4.323  22.328  0.00  0.00    -0.386 OA
ATOM      8  H   UNL     1       4.396  -4.566  21.917  0.00  0.00    +0.210 HD
ENDBRANCH   6   7
BRANCH   5   9
ATOM      9  O   UNL     1       4.726  -6.864  23.249  0.00  0.00    -0.386 OA
ATOM     10  H   UNL     1       5.024  -6.680  22.334  0.00  0.00    +0.210 HD
ENDBRANCH   5   9
BRANCH   4  11
ATOM     11  C   UNL     1       3.854  -6.568  25.960  0.00  0.00    +0.190 C 
BRANCH  11  12
ATOM     12  O   UNL     1       3.466  -7.892  25.610  0.00  0.00    -0.392 OA
ATOM     13  H   UNL     1       4.194  -8.274  25.067  0.00  0.00    +0.210 HD
ENDBRANCH  11  12
ENDBRANCH   4  11
BRANCH   2  14
ATOM     14  O   UNL     1       5.878  -2.867  27.101  0.00  0.00    -0.457 OA
BRANCH  14  15
ATOM     15  C   UNL     1       5.102  -1.715  27.297  0.00  0.00    +0.166 A 
ATOM     16  C   UNL     1       5.338  -0.570  26.455  0.00  0.00    +0.061 A 
ATOM     17  C   UNL     1       4.669   0.716  26.580  0.00  0.00    +0.025 A 
ATOM     18  C   UNL     1       3.724   0.780  27.604  0.00  0.00    +0.015 A 
ATOM     19  C   UNL     1       3.504  -0.312  28.472  0.00  0.00    +0.050 A 
ATOM     20  C   UNL     1       4.190  -1.530  28.330  0.00  0.00    +0.159 A 
BRANCH  17  21
ATOM     21  C   UNL     1       4.899   1.880  25.581  0.00  0.00    +0.181 A 
ATOM     22  O   UNL     1       6.292   2.126  25.532  0.00  0.00    -0.451 OA
ATOM     23  C   UNL     1       6.842   3.062  24.684  0.00  0.00    +0.147 A 
ATOM     24  C   UNL     1       6.074   3.833  23.827  0.00  0.00    +0.109 A 
ATOM     25  C   UNL     1       6.678   4.766  22.972  0.00  0.00    +0.135 A 
ATOM     26  C   UNL     1       8.065   4.929  22.972  0.00  0.00    +0.092 A 
ATOM     27  C   UNL     1       8.842   4.167  23.827  0.00  0.00    +0.127 A 
ATOM     28  C   UNL     1       4.638   3.639  23.847  0.00  0.00    +0.238 A 
ATOM     29  O   UNL     1       3.951   4.334  23.103  0.00  0.00    -0.283 OA
ATOM     30  C   UNL     1       8.224   3.233  24.680  0.00  0.00    +0.092 A 
ATOM     31  C   UNL     1       4.042   2.608  24.784  0.00  0.00    +0.211 A 
BRANCH  31  32
ATOM     32  O   UNL     1       2.708   2.658  24.585  0.00  0.00    -0.488 OA
ATOM     33  C   UNL     1       1.564   2.983  25.321  0.00  0.00    +0.277 C 
ENDBRANCH  31  32
BRANCH  27  34
ATOM     34  O   UNL     1      10.212   4.236  23.927  0.00  0.00    -0.495 OA
ATOM     35  C   UNL     1      10.943   3.151  23.360  0.00  0.00    +0.277 C 
ENDBRANCH  27  34
BRANCH  25  36
ATOM     36  O   UNL     1       5.977   5.553  22.101  0.00  0.00    -0.506 OA
ATOM     37  H   UNL     1       6.493   5.615  21.264  0.00  0.00    +0.292 HD
ENDBRANCH  25  36
ENDBRANCH  17  21
BRANCH  20  38
ATOM     38  O   UNL     1       3.931  -2.453  29.302  0.00  0.00    -0.503 OA
ATOM     39  H   UNL     1       3.123  -2.175  29.779  0.00  0.00    +0.292 HD
ENDBRANCH  20  38
ENDBRANCH  14  15
ENDBRANCH   2  14
BRANCH   1  40
ATOM     40  O   UNL     1       7.410  -3.887  24.407  0.00  0.00    -0.337 OA
BRANCH  40  44
ATOM     41  C   UNL     1       9.665  -0.183  25.641  0.00  0.00    +0.041 C 
ATOM     42  C   UNL     1       8.547  -0.358  24.605  0.00  0.00    +0.149 C 
ATOM     43  O   UNL     1       7.785  -1.574  24.746  0.00  0.00    -0.343 OA
ATOM     44  C   UNL     1       8.343  -2.782  24.183  0.00  0.00    +0.282 C 
ATOM     45  C   UNL     1       8.720  -2.606  22.692  0.00  0.00    +0.201 C 
ATOM     46  C   UNL     1       9.617  -1.374  22.520  0.00  0.00    +0.179 C 
ATOM     47  C   UNL     1       8.987  -0.128  23.153  0.00  0.00    +0.174 C 
BRANCH  47  48
ATOM     48  O   UNL     1       7.823   0.206  22.371  0.00  0.00    -0.387 OA
ATOM     49  H   UNL     1       7.501   1.069  22.722  0.00  0.00    +0.210 HD
ENDBRANCH  47  48
BRANCH  46  50
ATOM     50  O   UNL     1       9.818  -1.149  21.110  0.00  0.00    -0.386 OA
ATOM     51  H   UNL     1       8.949  -1.313  20.685  0.00  0.00    +0.210 HD
ENDBRANCH  46  50
BRANCH  45  52
ATOM     52  O   UNL     1       7.548  -2.464  21.868  0.00  0.00    -0.384 OA
ATOM     53  H   UNL     1       7.613  -1.569  21.481  0.00  0.00    +0.210 HD
ENDBRANCH  45  52
ENDBRANCH  40  44
ENDBRANCH   1  40
TORSDOF 16
ENDMDL
MODEL 7
REMARK VINA RESULT:      -6.9      2.337      9.103
REMARK  Name = 
REMARK  19 active torsions:
REMARK  status: ('A' for Active; 'I' for Inactive)
REMARK    1  A    between atoms: C_1  and  C_2
REMARK    2  A    between atoms: C_3  and  O_51
REMARK    3  A    between atoms: C_5  and  O_50
REMARK    4  A    between atoms: C_6  and  O_49
REMARK    5  A    between atoms: C_8  and  O_11
REMARK    6  A    between atoms: O_11  and  C_12
REMARK    7  A    between atoms: C_13  and  O_48
REMARK    8  A    between atoms: C_15  and  O_47
REMARK    9  A    between atoms: C_17  and  C_45
REMARK   10  A    between atoms: C_19  and  O_21
REMARK   11  A    between atoms: O_21  and  C_22
REMARK   12  A    between atoms: C_23  and  O_44
REMARK   13  A    between atoms: C_26  and  C_28
REMARK   14  A    between atoms: C_29  and  O_42
REMARK   15  A    between atoms: C_33  and  O_41
REMARK   16  A    between atoms: C_35  and  O_39
REMARK   17  A    between atoms: O_39  and  C_40
REMARK   18  A    between atoms: O_42  and  C_43
REMARK   19  A    between atoms: C_45  and  O_46
REMARK                            x       y       z     vdW  Elec       q    Type
REMARK                         _______ _______ _______ _____ _____    ______ ____
ROOT
ATOM      1  C   UNL     1       6.629   2.459  24.281  0.00  0.00    +0.221 C 
ATOM      2  C   UNL     1       5.207   3.187  24.520  0.00  0.00    +0.340 C 
ATOM      3  O   UNL     1       4.681   3.528  23.215  0.00  0.00    -0.331 OA
ATOM      4  C   UNL     1       5.510   4.430  22.436  0.00  0.00    +0.179 C 
ATOM      5  C   UNL     1       6.994   3.995  22.342  0.00  0.00    +0.177 C 
ATOM      6  C   UNL     1       7.522   3.593  23.727  0.00  0.00    +0.180 C 
ENDROOT
BRANCH   6   7
ATOM      7  O   UNL     1       8.914   3.245  23.629  0.00  0.00    -0.386 OA
ATOM      8  H   UNL     1       9.223   3.015  24.527  0.00  0.00    +0.210 HD
ENDBRANCH   6   7
BRANCH   5   9
ATOM      9  O   UNL     1       7.851   5.018  21.811  0.00  0.00    -0.386 OA
ATOM     10  H   UNL     1       8.431   5.277  22.557  0.00  0.00    +0.210 HD
ENDBRANCH   5   9
BRANCH   4  11
ATOM     11  C   UNL     1       5.354   5.889  22.909  0.00  0.00    +0.190 C 
BRANCH  11  12
ATOM     12  O   UNL     1       5.449   6.828  21.844  0.00  0.00    -0.392 OA
ATOM     13  H   UNL     1       4.593   6.804  21.358  0.00  0.00    +0.210 HD
ENDBRANCH  11  12
ENDBRANCH   4  11
BRANCH   2  14
ATOM     14  O   UNL     1       4.261   2.441  25.362  0.00  0.00    -0.457 OA
BRANCH  14  15
ATOM     15  C   UNL     1       4.732   1.626  26.401  0.00  0.00    +0.166 A 
ATOM     16  C   UNL     1       4.526   0.203  26.312  0.00  0.00    +0.061 A 
ATOM     17  C   UNL     1       4.891  -0.764  27.336  0.00  0.00    +0.025 A 
ATOM     18  C   UNL     1       5.497  -0.212  28.464  0.00  0.00    +0.015 A 
ATOM     19  C   UNL     1       5.671   1.184  28.598  0.00  0.00    +0.050 A 
ATOM     20  C   UNL     1       5.282   2.085  27.593  0.00  0.00    +0.159 A 
BRANCH  17  21
ATOM     21  C   UNL     1       4.729  -2.294  27.139  0.00  0.00    +0.181 A 
ATOM     22  O   UNL     1       4.865  -2.558  25.755  0.00  0.00    -0.451 OA
ATOM     23  C   UNL     1       4.839  -3.839  25.247  0.00  0.00    +0.147 A 
ATOM     24  C   UNL     1       4.672  -4.955  26.050  0.00  0.00    +0.109 A 
ATOM     25  C   UNL     1       4.663  -6.241  25.491  0.00  0.00    +0.135 A 
ATOM     26  C   UNL     1       4.826  -6.414  24.115  0.00  0.00    +0.092 A 
ATOM     27  C   UNL     1       4.991  -5.305  23.302  0.00  0.00    +0.127 A 
ATOM     28  C   UNL     1       4.507  -4.745  27.474  0.00  0.00    +0.238 A 
ATOM     29  O   UNL     1       4.339  -5.730  28.188  0.00  0.00    -0.283 OA
ATOM     30  C   UNL     1       4.999  -4.020  23.875  0.00  0.00    +0.092 A 
ATOM     31  C   UNL     1       4.536  -3.333  28.023  0.00  0.00    +0.211 A 
BRANCH  31  32
ATOM     32  O   UNL     1       4.356  -3.453  29.356  0.00  0.00    -0.488 OA
ATOM     33  C   UNL     1       3.600  -2.835  30.357  0.00  0.00    +0.277 C 
ENDBRANCH  31  32
BRANCH  27  34
ATOM     34  O   UNL     1       5.155  -5.340  21.937  0.00  0.00    -0.495 OA
ATOM     35  C   UNL     1       6.305  -6.031  21.456  0.00  0.00    +0.277 C 
ENDBRANCH  27  34
BRANCH  25  36
ATOM     36  O   UNL     1       4.506  -7.382  26.228  0.00  0.00    -0.506 OA
ATOM     37  H   UNL     1       5.095  -7.319  27.015  0.00  0.00    +0.292 HD
ENDBRANCH  25  36
ENDBRANCH  17  21
BRANCH  20  38
ATOM     38  O   UNL     1       5.434   3.404  27.912  0.00  0.00    -0.503 OA
ATOM     39  H   UNL     1       5.116   3.939  27.155  0.00  0.00    +0.292 HD
ENDBRANCH  20  38
ENDBRANCH  14  15
ENDBRANCH   2  14
BRANCH   1  40
ATOM     40  O   UNL     1       6.567   1.350  23.329  0.00  0.00    -0.337 OA
BRANCH  40  44
ATOM     41  C   UNL     1       8.386  -1.870  25.909  0.00  0.00    +0.041 C 
ATOM     42  C   UNL     1       9.054  -0.702  25.170  0.00  0.00    +0.149 C 
ATOM     43  O   UNL     1       8.152   0.352  24.777  0.00  0.00    -0.343 OA
ATOM     44  C   UNL     1       7.393   0.165  23.562  0.00  0.00    +0.282 C 
ATOM     45  C   UNL     1       8.301  -0.182  22.358  0.00  0.00    +0.201 C 
ATOM     46  C   UNL     1       9.207  -1.370  22.709  0.00  0.00    +0.179 C 
ATOM     47  C   UNL     1       9.971  -1.126  24.015  0.00  0.00    +0.174 C 
BRANCH  47  48
ATOM     48  O   UNL     1      10.912  -0.062  23.767  0.00  0.00    -0.387 OA
ATOM     49  H   UNL     1      10.560   0.726  24.242  0.00  0.00    +0.210 HD
ENDBRANCH  47  48
BRANCH  46  50
ATOM     50  O   UNL     1      10.144  -1.563  21.631  0.00  0.00    -0.386 OA
ATOM     51  H   UNL     1       9.961  -0.849  20.984  0.00  0.00    +0.210 HD
ENDBRANCH  46  50
BRANCH  45  52
ATOM     52  O   UNL     1       9.114   0.943  21.974  0.00  0.00    -0.384 OA
ATOM     53  H   UNL     1       9.622   1.178  22.775  0.00  0.00    +0.210 HD
ENDBRANCH  45  52
ENDBRANCH  40  44
ENDBRANCH   1  40
TORSDOF 16
ENDMDL
MODEL 8
REMARK VINA RESULT:      -6.8      3.016      6.075
REMARK  Name = 
REMARK  19 active torsions:
REMARK  status: ('A' for Active; 'I' for Inactive)
REMARK    1  A    between atoms: C_1  and  C_2
REMARK    2  A    between atoms: C_3  and  O_51
REMARK    3  A    between atoms: C_5  and  O_50
REMARK    4  A    between atoms: C_6  and  O_49
REMARK    5  A    between atoms: C_8  and  O_11
REMARK    6  A    between atoms: O_11  and  C_12
REMARK    7  A    between atoms: C_13  and  O_48
REMARK    8  A    between atoms: C_15  and  O_47
REMARK    9  A    between atoms: C_17  and  C_45
REMARK   10  A    between atoms: C_19  and  O_21
REMARK   11  A    between atoms: O_21  and  C_22
REMARK   12  A    between atoms: C_23  and  O_44
REMARK   13  A    between atoms: C_26  and  C_28
REMARK   14  A    between atoms: C_29  and  O_42
REMARK   15  A    between atoms: C_33  and  O_41
REMARK   16  A    between atoms: C_35  and  O_39
REMARK   17  A    between atoms: O_39  and  C_40
REMARK   18  A    between atoms: O_42  and  C_43
REMARK   19  A    between atoms: C_45  and  O_46
REMARK                            x       y       z     vdW  Elec       q    Type
REMARK                         _______ _______ _______ _____ _____    ______ ____
ROOT
ATOM      1  C   UNL     1       7.090  -2.978  24.777  0.00  0.00    +0.221 C 
ATOM      2  C   UNL     1       5.690  -3.136  25.567  0.00  0.00    +0.340 C 
ATOM      3  O   UNL     1       6.013  -3.382  26.957  0.00  0.00    -0.331 OA
ATOM      4  C   UNL     1       6.793  -4.583  27.202  0.00  0.00    +0.179 C 
ATOM      5  C   UNL     1       8.051  -4.707  26.306  0.00  0.00    +0.177 C 
ATOM      6  C   UNL     1       7.700  -4.397  24.844  0.00  0.00    +0.180 C 
ENDROOT
BRANCH   6   7
ATOM      7  O   UNL     1       8.867  -4.570  24.021  0.00  0.00    -0.386 OA
ATOM      8  H   UNL     1       8.564  -4.651  23.096  0.00  0.00    +0.210 HD
ENDBRANCH   6   7
BRANCH   5   9
ATOM      9  O   UNL     1       8.658  -6.008  26.360  0.00  0.00    -0.386 OA
ATOM     10  H   UNL     1       9.238  -5.986  27.148  0.00  0.00    +0.210 HD
ENDBRANCH   5   9
BRANCH   4  11
ATOM     11  C   UNL     1       5.911  -5.846  27.155  0.00  0.00    +0.190 C 
BRANCH  11  12
ATOM     12  O   UNL     1       6.233  -6.782  28.177  0.00  0.00    -0.392 OA
ATOM     13  H   UNL     1       6.918  -6.364  28.749  0.00  0.00    +0.210 HD
ENDBRANCH  11  12
ENDBRANCH   4  11
BRANCH   2  14
ATOM     14  O   UNL     1       4.736  -2.035  25.369  0.00  0.00    -0.457 OA
BRANCH  14  15
ATOM     15  C   UNL     1       4.938  -0.803  26.007  0.00  0.00    +0.166 A 
ATOM     16  C   UNL     1       5.321   0.335  25.211  0.00  0.00    +0.061 A 
ATOM     17  C   UNL     1       5.634   1.657  25.732  0.00  0.00    +0.025 A 
ATOM     18  C   UNL     1       5.523   1.774  27.117  0.00  0.00    +0.015 A 
ATOM     19  C   UNL     1       5.194   0.665  27.927  0.00  0.00    +0.050 A 
ATOM     20  C   UNL     1       4.921  -0.602  27.383  0.00  0.00    +0.159 A 
BRANCH  17  21
ATOM     21  C   UNL     1       5.947   2.867  24.813  0.00  0.00    +0.181 A 
ATOM     22  O   UNL     1       7.247   3.320  25.140  0.00  0.00    -0.451 OA
ATOM     23  C   UNL     1       7.859   4.349  24.457  0.00  0.00    +0.147 A 
ATOM     24  C   UNL     1       7.245   5.016  23.410  0.00  0.00    +0.109 A 
ATOM     25  C   UNL     1       7.909   6.050  22.735  0.00  0.00    +0.135 A 
ATOM     26  C   UNL     1       9.203   6.421  23.110  0.00  0.00    +0.092 A 
ATOM     27  C   UNL     1       9.825   5.763  24.157  0.00  0.00    +0.127 A 
ATOM     28  C   UNL     1       5.904   4.608  23.042  0.00  0.00    +0.238 A 
ATOM     29  O   UNL     1       5.347   5.209  22.128  0.00  0.00    -0.283 OA
ATOM     30  C   UNL     1       9.148   4.727  24.826  0.00  0.00    +0.092 A 
ATOM     31  C   UNL     1       5.239   3.476  23.800  0.00  0.00    +0.211 A 
BRANCH  31  32
ATOM     32  O   UNL     1       4.017   3.330  23.245  0.00  0.00    -0.488 OA
ATOM     33  C   UNL     1       2.681   3.442  23.641  0.00  0.00    +0.277 C 
ENDBRANCH  31  32
BRANCH  27  34
ATOM     34  O   UNL     1      11.089   6.036  24.625  0.00  0.00    -0.495 OA
ATOM     35  C   UNL     1      12.171   5.680  23.767  0.00  0.00    +0.277 C 
ENDBRANCH  27  34
BRANCH  25  36
ATOM     36  O   UNL     1       7.360   6.744  21.692  0.00  0.00    -0.506 OA
ATOM     37  H   UNL     1       7.498   7.704  21.861  0.00  0.00    +0.292 HD
ENDBRANCH  25  36
ENDBRANCH  17  21
BRANCH  20  38
ATOM     38  O   UNL     1       4.708  -1.589  28.302  0.00  0.00    -0.503 OA
ATOM     39  H   UNL     1       4.267  -2.337  27.848  0.00  0.00    +0.292 HD
ENDBRANCH  20  38
ENDBRANCH  14  15
ENDBRANCH   2  14
BRANCH   1  40
ATOM     40  O   UNL     1       7.999  -2.005  25.384  0.00  0.00    -0.337 OA
BRANCH  40  44
ATOM     41  C   UNL     1      11.337   0.928  24.621  0.00  0.00    +0.041 C 
ATOM     42  C   UNL     1       9.862   0.980  24.200  0.00  0.00    +0.149 C 
ATOM     43  O   UNL     1       8.997   0.095  24.941  0.00  0.00    -0.343 OA
ATOM     44  C   UNL     1       8.948  -1.289  24.532  0.00  0.00    +0.282 C 
ATOM     45  C   UNL     1       8.633  -1.438  23.023  0.00  0.00    +0.201 C 
ATOM     46  C   UNL     1       9.604  -0.584  22.198  0.00  0.00    +0.179 C 
ATOM     47  C   UNL     1       9.631   0.867  22.688  0.00  0.00    +0.174 C 
BRANCH  47  48
ATOM     48  O   UNL     1       8.347   1.447  22.379  0.00  0.00    -0.387 OA
ATOM     49  H   UNL     1       7.678   0.866  22.810  0.00  0.00    +0.210 HD
ENDBRANCH  47  48
BRANCH  46  50
ATOM     50  O   UNL     1       9.185  -0.621  20.819  0.00  0.00    -0.386 OA
ATOM     51  H   UNL     1      10.007  -0.711  20.290  0.00  0.00    +0.210 HD
ENDBRANCH  46  50
BRANCH  45  52
ATOM     52  O   UNL     1       7.280  -1.043  22.729  0.00  0.00    -0.384 OA
ATOM     53  H   UNL     1       7.164  -1.216  21.774  0.00  0.00    +0.210 HD
ENDBRANCH  45  52
ENDBRANCH  40  44
ENDBRANCH   1  40
TORSDOF 16
ENDMDL
MODEL 9
REMARK VINA RESULT:      -6.8      2.645      5.095
REMARK  Name = 
REMARK  19 active torsions:
REMARK  status: ('A' for Active; 'I' for Inactive)
REMARK    1  A    between atoms: C_1  and  C_2
REMARK    2  A    between atoms: C_3  and  O_51
REMARK    3  A    between atoms: C_5  and  O_50
REMARK    4  A    between atoms: C_6  and  O_49
REMARK    5  A    between atoms: C_8  and  O_11
REMARK    6  A    between atoms: O_11  and  C_12
REMARK    7  A    between atoms: C_13  and  O_48
REMARK    8  A    between atoms: C_15  and  O_47
REMARK    9  A    between atoms: C_17  and  C_45
REMARK   10  A    between atoms: C_19  and  O_21
REMARK   11  A    between atoms: O_21  and  C_22
REMARK   12  A    between atoms: C_23  and  O_44
REMARK   13  A    between atoms: C_26  and  C_28
REMARK   14  A    between atoms: C_29  and  O_42
REMARK   15  A    between atoms: C_33  and  O_41
REMARK   16  A    between atoms: C_35  and  O_39
REMARK   17  A    between atoms: O_39  and  C_40
REMARK   18  A    between atoms: O_42  and  C_43
REMARK   19  A    between atoms: C_45  and  O_46
REMARK                            x       y       z     vdW  Elec       q    Type
REMARK                         _______ _______ _______ _____ _____    ______ ____
ROOT
ATOM      1  C   UNL     1       4.558  -4.617  26.847  0.00  0.00    +0.221 C 
ATOM      2  C   UNL     1       3.466  -4.252  27.980  0.00  0.00    +0.340 C 
ATOM      3  O   UNL     1       4.125  -4.389  29.263  0.00  0.00    -0.331 OA
ATOM      4  C   UNL     1       4.632  -5.718  29.553  0.00  0.00    +0.179 C 
ATOM      5  C   UNL     1       5.495  -6.322  28.416  0.00  0.00    +0.177 C 
ATOM      6  C   UNL     1       4.803  -6.128  27.059  0.00  0.00    +0.180 C 
ENDROOT
BRANCH   6   7
ATOM      7  O   UNL     1       5.591  -6.743  26.025  0.00  0.00    -0.386 OA
ATOM      8  H   UNL     1       5.014  -6.855  25.245  0.00  0.00    +0.210 HD
ENDBRANCH   6   7
BRANCH   5   9
ATOM      9  O   UNL     1       5.761  -7.723  28.592  0.00  0.00    -0.386 OA
ATOM     10  H   UNL     1       6.571  -7.762  29.140  0.00  0.00    +0.210 HD
ENDBRANCH   5   9
BRANCH   4  11
ATOM     11  C   UNL     1       3.504  -6.667  30.002  0.00  0.00    +0.190 C 
BRANCH  11  12
ATOM     12  O   UNL     1       3.090  -7.559  28.974  0.00  0.00    -0.392 OA
ATOM     13  H   UNL     1       2.114  -7.663  29.055  0.00  0.00    +0.210 HD
ENDBRANCH  11  12
ENDBRANCH   4  11
BRANCH   2  14
ATOM     14  O   UNL     1       2.788  -2.961  27.799  0.00  0.00    -0.457 OA
BRANCH  14  15
ATOM     15  C   UNL     1       3.468  -1.764  28.063  0.00  0.00    +0.166 A 
ATOM     16  C   UNL     1       3.939  -0.976  26.953  0.00  0.00    +0.061 A 
ATOM     17  C   UNL     1       4.719   0.248  27.064  0.00  0.00    +0.025 A 
ATOM     18  C   UNL     1       4.988   0.647  28.373  0.00  0.00    +0.015 A 
ATOM     19  C   UNL     1       4.577  -0.130  29.479  0.00  0.00    +0.050 A 
ATOM     20  C   UNL     1       3.845  -1.319  29.326  0.00  0.00    +0.159 A 
BRANCH  17  21
ATOM     21  C   UNL     1       5.116   1.103  25.831  0.00  0.00    +0.181 A 
ATOM     22  O   UNL     1       6.319   0.566  25.315  0.00  0.00    -0.451 OA
ATOM     23  C   UNL     1       6.910   1.058  24.171  0.00  0.00    +0.147 A 
ATOM     24  C   UNL     1       6.374   2.114  23.451  0.00  0.00    +0.109 A 
ATOM     25  C   UNL     1       7.003   2.575  22.286  0.00  0.00    +0.135 A 
ATOM     26  C   UNL     1       8.179   1.973  21.833  0.00  0.00    +0.092 A 
ATOM     27  C   UNL     1       8.725   0.919  22.546  0.00  0.00    +0.127 A 
ATOM     28  C   UNL     1       5.152   2.717  23.944  0.00  0.00    +0.238 A 
ATOM     29  O   UNL     1       4.684   3.666  23.321  0.00  0.00    -0.283 OA
ATOM     30  C   UNL     1       8.084   0.465  23.714  0.00  0.00    +0.092 A 
ATOM     31  C   UNL     1       4.511   2.170  25.204  0.00  0.00    +0.211 A 
BRANCH  31  32
ATOM     32  O   UNL     1       3.410   2.923  25.413  0.00  0.00    -0.488 OA
ATOM     33  C   UNL     1       2.110   2.743  25.895  0.00  0.00    +0.277 C 
ENDBRANCH  31  32
BRANCH  27  34
ATOM     34  O   UNL     1       9.877   0.247  22.211  0.00  0.00    -0.495 OA
ATOM     35  C   UNL     1       9.728  -1.125  21.854  0.00  0.00    +0.277 C 
ENDBRANCH  27  34
BRANCH  25  36
ATOM     36  O   UNL     1       6.524   3.608  21.530  0.00  0.00    -0.506 OA
ATOM     37  H   UNL     1       7.067   4.406  21.727  0.00  0.00    +0.292 HD
ENDBRANCH  25  36
ENDBRANCH  17  21
BRANCH  20  38
ATOM     38  O   UNL     1       3.602  -1.999  30.485  0.00  0.00    -0.503 OA
ATOM     39  H   UNL     1       2.723  -2.423  30.410  0.00  0.00    +0.292 HD
ENDBRANCH  20  38
ENDBRANCH  14  15
ENDBRANCH   2  14
BRANCH   1  40
ATOM     40  O   UNL     1       5.812  -3.874  26.981  0.00  0.00    -0.337 OA
BRANCH  40  44
ATOM     41  C   UNL     1       6.091  -2.405  22.728  0.00  0.00    +0.041 C 
ATOM     42  C   UNL     1       6.447  -3.773  23.325  0.00  0.00    +0.149 C 
ATOM     43  O   UNL     1       5.867  -4.030  24.620  0.00  0.00    -0.343 OA
ATOM     44  C   UNL     1       6.537  -3.478  25.774  0.00  0.00    +0.282 C 
ATOM     45  C   UNL     1       8.035  -3.868  25.817  0.00  0.00    +0.201 C 
ATOM     46  C   UNL     1       8.707  -3.514  24.485  0.00  0.00    +0.179 C 
ATOM     47  C   UNL     1       7.944  -4.107  23.296  0.00  0.00    +0.174 C 
BRANCH  47  48
ATOM     48  O   UNL     1       8.093  -5.539  23.363  0.00  0.00    -0.387 OA
ATOM     49  H   UNL     1       7.582  -5.827  24.155  0.00  0.00    +0.210 HD
ENDBRANCH  47  48
BRANCH  46  50
ATOM     50  O   UNL     1      10.053  -4.031  24.501  0.00  0.00    -0.386 OA
ATOM     51  H   UNL     1      10.573  -3.411  25.056  0.00  0.00    +0.210 HD
ENDBRANCH  46  50
BRANCH  45  52
ATOM     52  O   UNL     1       8.203  -5.274  26.079  0.00  0.00    -0.384 OA
ATOM     53  H   UNL     1       8.031  -5.379  27.036  0.00  0.00    +0.210 HD
ENDBRANCH  45  52
ENDBRANCH  40  44
ENDBRANCH   1  40
TORSDOF 16
ENDMDL
