MODEL 1
REMARK VINA RESULT:      -7.6      0.000      0.000
REMARK  Name = 
REMARK  13 active torsions:
REMARK  status: ('A' for Active; 'I' for Inactive)
REMARK    1  A    between atoms: C_1  and  O_2
REMARK    2  A    between atoms: O_2  and  C_3
REMARK    3  A    between atoms: C_3  and  C_5
REMARK    4  A    between atoms: C_7  and  O_40
REMARK    5  A    between atoms: C_9  and  O_39
REMARK    6  A    between atoms: C_11  and  O_38
REMARK    7  A    between atoms: C_13  and  O_16
REMARK    8  A    between atoms: O_16  and  C_17
REMARK    9  A    between atoms: C_18  and  C_30
REMARK   10  A    between atoms: C_22  and  O_29
REMARK   11  A    between atoms: C_24  and  O_28
REMARK   12  A    between atoms: C_32  and  O_37
REMARK   13  A    between atoms: C_33  and  O_36
REMARK                            x       y       z     vdW  Elec       q    Type
REMARK                         _______ _______ _______ _____ _____    ______ ____
ROOT
ATOM      1  C   UNL     1       7.560  -2.732  25.186  0.00  0.00    +0.214 A 
ATOM      2  C   UNL     1       8.712  -2.604  24.238  0.00  0.00    +0.238 A 
ATOM      3  O   UNL     1       9.609  -3.440  24.228  0.00  0.00    -0.283 OA
ATOM      4  C   UNL     1       8.748  -1.391  23.396  0.00  0.00    +0.109 A 
ATOM      5  C   UNL     1       7.694  -0.483  23.511  0.00  0.00    +0.147 A 
ATOM      6  C   UNL     1       7.662   0.680  22.734  0.00  0.00    +0.092 A 
ATOM      7  C   UNL     1       8.710   0.944  21.861  0.00  0.00    +0.124 A 
ATOM      8  C   UNL     1       9.782   0.067  21.752  0.00  0.00    +0.091 A 
ATOM      9  O   UNL     1       6.657  -0.642  24.390  0.00  0.00    -0.451 OA
ATOM     10  C   UNL     1       9.799  -1.101  22.517  0.00  0.00    +0.135 A 
ATOM     11  C   UNL     1       6.659  -1.727  25.256  0.00  0.00    +0.181 A 
ENDROOT
BRANCH  11  12
ATOM     12  C   UNL     1       5.577  -1.626  26.289  0.00  0.00    +0.025 A 
ATOM     13  C   UNL     1       4.323  -2.236  26.074  0.00  0.00    +0.015 A 
ATOM     14  C   UNL     1       3.255  -2.046  26.967  0.00  0.00    +0.050 A 
ATOM     15  C   UNL     1       3.439  -1.257  28.086  0.00  0.00    +0.158 A 
ATOM     16  C   UNL     1       4.669  -0.665  28.335  0.00  0.00    +0.159 A 
ATOM     17  C   UNL     1       5.724  -0.830  27.443  0.00  0.00    +0.060 A 
BRANCH  15  18
ATOM     18  O   UNL     1       2.398  -1.045  28.941  0.00  0.00    -0.503 OA
ATOM     19  H   UNL     1       2.551  -1.678  29.671  0.00  0.00    +0.292 HD
ENDBRANCH  15  18
BRANCH  16  20
ATOM     20  O   UNL     1       4.800   0.097  29.464  0.00  0.00    -0.503 OA
ATOM     21  H   UNL     1       5.239   0.931  29.212  0.00  0.00    +0.292 HD
ENDBRANCH  16  20
ENDBRANCH  11  12
BRANCH   7  22
ATOM     22  O   UNL     1       8.735   2.069  21.092  0.00  0.00    -0.507 OA
ATOM     23  H   UNL     1       8.032   2.017  20.423  0.00  0.00    +0.292 HD
ENDBRANCH   7  22
BRANCH  10  24
ATOM     24  O   UNL     1      10.871  -1.940  22.400  0.00  0.00    -0.506 OA
ATOM     25  H   UNL     1      10.583  -2.864  22.478  0.00  0.00    +0.292 HD
ENDBRANCH  10  24
BRANCH   1  26
ATOM     26  O   UNL     1       7.502  -3.808  26.046  0.00  0.00    -0.453 OA
BRANCH  26  29
ATOM     27  C   UNL     1       5.314  -5.979  24.065  0.00  0.00    +0.261 C 
ATOM     28  O   UNL     1       5.977  -4.790  24.504  0.00  0.00    -0.322 OA
ATOM     29  C   UNL     1       6.877  -5.016  25.589  0.00  0.00    +0.340 C 
ATOM     30  C   UNL     1       6.109  -5.558  26.818  0.00  0.00    +0.214 C 
ATOM     31  C   UNL     1       5.274  -6.780  26.422  0.00  0.00    +0.180 C 
ATOM     32  C   UNL     1       4.405  -6.473  25.196  0.00  0.00    +0.185 C 
BRANCH  27  33
ATOM     33  C   UNL     1       4.483  -5.674  22.817  0.00  0.00    +0.339 C 
ATOM     34  O   UNL     1       3.311  -6.011  22.674  0.00  0.00    -0.248 OA
BRANCH  33  36
ATOM     35  C   UNL     1       6.154  -5.821  21.144  0.00  0.00    +0.280 C 
ATOM     36  O   UNL     1       5.231  -5.023  21.886  0.00  0.00    -0.466 OA
ENDBRANCH  33  36
ENDBRANCH  27  33
BRANCH  30  37
ATOM     37  O   UNL     1       7.010  -5.856  27.900  0.00  0.00    -0.383 OA
ATOM     38  H   UNL     1       7.679  -6.486  27.581  0.00  0.00    +0.210 HD
ENDBRANCH  30  37
BRANCH  31  39
ATOM     39  O   UNL     1       4.432  -7.188  27.508  0.00  0.00    -0.386 OA
ATOM     40  H   UNL     1       3.553  -7.348  27.111  0.00  0.00    +0.210 HD
ENDBRANCH  31  39
BRANCH  32  41
ATOM     41  O   UNL     1       3.686  -7.671  24.875  0.00  0.00    -0.386 OA
ATOM     42  H   UNL     1       3.770  -7.794  23.905  0.00  0.00    +0.210 HD
ENDBRANCH  32  41
ENDBRANCH  26  29
ENDBRANCH   1  26
TORSDOF 12
ENDMDL
MODEL 2
REMARK VINA RESULT:      -6.9      3.048      8.042
REMARK  Name = 
REMARK  13 active torsions:
REMARK  status: ('A' for Active; 'I' for Inactive)
REMARK    1  A    between atoms: C_1  and  O_2
REMARK    2  A    between atoms: O_2  and  C_3
REMARK    3  A    between atoms: C_3  and  C_5
REMARK    4  A    between atoms: C_7  and  O_40
REMARK    5  A    between atoms: C_9  and  O_39
REMARK    6  A    between atoms: C_11  and  O_38
REMARK    7  A    between atoms: C_13  and  O_16
REMARK    8  A    between atoms: O_16  and  C_17
REMARK    9  A    between atoms: C_18  and  C_30
REMARK   10  A    between atoms: C_22  and  O_29
REMARK   11  A    between atoms: C_24  and  O_28
REMARK   12  A    between atoms: C_32  and  O_37
REMARK   13  A    between atoms: C_33  and  O_36
REMARK                            x       y       z     vdW  Elec       q    Type
REMARK                         _______ _______ _______ _____ _____    ______ ____
ROOT
ATOM      1  C   UNL     1       6.290  -1.011  24.534  0.00  0.00    +0.214 A 
ATOM      2  C   UNL     1       5.271  -2.096  24.693  0.00  0.00    +0.238 A 
ATOM      3  O   UNL     1       4.320  -1.954  25.454  0.00  0.00    -0.283 OA
ATOM      4  C   UNL     1       5.521  -3.354  23.961  0.00  0.00    +0.109 A 
ATOM      5  C   UNL     1       6.653  -3.426  23.148  0.00  0.00    +0.147 A 
ATOM      6  C   UNL     1       6.942  -4.585  22.421  0.00  0.00    +0.092 A 
ATOM      7  C   UNL     1       6.103  -5.686  22.535  0.00  0.00    +0.124 A 
ATOM      8  C   UNL     1       4.986  -5.646  23.361  0.00  0.00    +0.091 A 
ATOM      9  O   UNL     1       7.559  -2.405  23.030  0.00  0.00    -0.451 OA
ATOM     10  C   UNL     1       4.694  -4.480  24.071  0.00  0.00    +0.135 A 
ATOM     11  C   UNL     1       7.390  -1.254  23.785  0.00  0.00    +0.181 A 
ENDROOT
BRANCH  11  12
ATOM     12  C   UNL     1       8.578  -0.343  23.700  0.00  0.00    +0.025 A 
ATOM     13  C   UNL     1       9.477  -0.236  24.782  0.00  0.00    +0.015 A 
ATOM     14  C   UNL     1      10.521   0.705  24.775  0.00  0.00    +0.050 A 
ATOM     15  C   UNL     1      10.679   1.533  23.681  0.00  0.00    +0.158 A 
ATOM     16  C   UNL     1       9.824   1.432  22.592  0.00  0.00    +0.159 A 
ATOM     17  C   UNL     1       8.775   0.520  22.603  0.00  0.00    +0.060 A 
BRANCH  15  18
ATOM     18  O   UNL     1      11.672   2.468  23.681  0.00  0.00    -0.503 OA
ATOM     19  H   UNL     1      12.052   2.418  22.780  0.00  0.00    +0.292 HD
ENDBRANCH  15  18
BRANCH  16  20
ATOM     20  O   UNL     1      10.033   2.270  21.531  0.00  0.00    -0.503 OA
ATOM     21  H   UNL     1      10.427   3.094  21.873  0.00  0.00    +0.292 HD
ENDBRANCH  16  20
ENDBRANCH  11  12
BRANCH   7  22
ATOM     22  O   UNL     1       6.345  -6.844  21.859  0.00  0.00    -0.507 OA
ATOM     23  H   UNL     1       6.219  -7.600  22.458  0.00  0.00    +0.292 HD
ENDBRANCH   7  22
BRANCH  10  24
ATOM     24  O   UNL     1       3.597  -4.470  24.884  0.00  0.00    -0.506 OA
ATOM     25  H   UNL     1       3.274  -3.563  25.002  0.00  0.00    +0.292 HD
ENDBRANCH  10  24
BRANCH   1  26
ATOM     26  O   UNL     1       6.151   0.164  25.242  0.00  0.00    -0.453 OA
BRANCH  26  29
ATOM     27  C   UNL     1       6.102   3.410  23.541  0.00  0.00    +0.261 C 
ATOM     28  O   UNL     1       6.625   2.242  24.180  0.00  0.00    -0.322 OA
ATOM     29  C   UNL     1       5.615   1.309  24.564  0.00  0.00    +0.340 C 
ATOM     30  C   UNL     1       4.648   1.959  25.583  0.00  0.00    +0.214 C 
ATOM     31  C   UNL     1       4.111   3.284  25.033  0.00  0.00    +0.180 C 
ATOM     32  C   UNL     1       5.260   4.185  24.562  0.00  0.00    +0.185 C 
BRANCH  27  33
ATOM     33  C   UNL     1       7.253   4.282  23.038  0.00  0.00    +0.339 C 
ATOM     34  O   UNL     1       8.388   4.258  23.506  0.00  0.00    -0.248 OA
BRANCH  33  36
ATOM     35  C   UNL     1       7.410   6.413  22.013  0.00  0.00    +0.280 C 
ATOM     36  O   UNL     1       6.833   5.106  22.040  0.00  0.00    -0.466 OA
ENDBRANCH  33  36
ENDBRANCH  27  33
BRANCH  30  37
ATOM     37  O   UNL     1       3.581   1.056  25.932  0.00  0.00    -0.383 OA
ATOM     38  H   UNL     1       2.946   1.030  25.196  0.00  0.00    +0.210 HD
ENDBRANCH  30  37
BRANCH  31  39
ATOM     39  O   UNL     1       3.349   3.973  26.032  0.00  0.00    -0.386 OA
ATOM     40  H   UNL     1       2.501   3.492  26.092  0.00  0.00    +0.210 HD
ENDBRANCH  31  39
BRANCH  32  41
ATOM     41  O   UNL     1       4.674   5.381  24.036  0.00  0.00    -0.386 OA
ATOM     42  H   UNL     1       3.937   5.619  24.640  0.00  0.00    +0.210 HD
ENDBRANCH  32  41
ENDBRANCH  26  29
ENDBRANCH   1  26
TORSDOF 12
ENDMDL
MODEL 3
REMARK VINA RESULT:      -6.8      2.466      7.509
REMARK  Name = 
REMARK  13 active torsions:
REMARK  status: ('A' for Active; 'I' for Inactive)
REMARK    1  A    between atoms: C_1  and  O_2
REMARK    2  A    between atoms: O_2  and  C_3
REMARK    3  A    between atoms: C_3  and  C_5
REMARK    4  A    between atoms: C_7  and  O_40
REMARK    5  A    between atoms: C_9  and  O_39
REMARK    6  A    between atoms: C_11  and  O_38
REMARK    7  A    between atoms: C_13  and  O_16
REMARK    8  A    between atoms: O_16  and  C_17
REMARK    9  A    between atoms: C_18  and  C_30
REMARK   10  A    between atoms: C_22  and  O_29
REMARK   11  A    between atoms: C_24  and  O_28
REMARK   12  A    between atoms: C_32  and  O_37
REMARK   13  A    between atoms: C_33  and  O_36
REMARK                            x       y       z     vdW  Elec       q    Type
REMARK                         _______ _______ _______ _____ _____    ______ ____
ROOT
ATOM      1  C   UNL     1       7.378  -1.360  26.011  0.00  0.00    +0.214 A 
ATOM      2  C   UNL     1       7.114  -0.479  27.192  0.00  0.00    +0.238 A 
ATOM      3  O   UNL     1       8.041   0.010  27.827  0.00  0.00    -0.283 OA
ATOM      4  C   UNL     1       5.701  -0.309  27.591  0.00  0.00    +0.109 A 
ATOM      5  C   UNL     1       4.723  -0.939  26.821  0.00  0.00    +0.147 A 
ATOM      6  C   UNL     1       3.367  -0.809  27.139  0.00  0.00    +0.092 A 
ATOM      7  C   UNL     1       2.998  -0.067  28.254  0.00  0.00    +0.124 A 
ATOM      8  C   UNL     1       3.958   0.544  29.050  0.00  0.00    +0.091 A 
ATOM      9  O   UNL     1       5.011  -1.735  25.744  0.00  0.00    -0.451 OA
ATOM     10  C   UNL     1       5.308   0.426  28.717  0.00  0.00    +0.135 A 
ATOM     11  C   UNL     1       6.336  -1.982  25.415  0.00  0.00    +0.181 A 
ENDROOT
BRANCH  11  12
ATOM     12  C   UNL     1       6.467  -3.039  24.360  0.00  0.00    +0.025 A 
ATOM     13  C   UNL     1       7.248  -4.190  24.593  0.00  0.00    +0.015 A 
ATOM     14  C   UNL     1       7.491  -5.128  23.575  0.00  0.00    +0.050 A 
ATOM     15  C   UNL     1       6.942  -4.926  22.323  0.00  0.00    +0.158 A 
ATOM     16  C   UNL     1       6.149  -3.816  22.073  0.00  0.00    +0.159 A 
ATOM     17  C   UNL     1       5.925  -2.871  23.069  0.00  0.00    +0.060 A 
BRANCH  15  18
ATOM     18  O   UNL     1       7.198  -5.818  21.323  0.00  0.00    -0.503 OA
ATOM     19  H   UNL     1       7.640  -5.285  20.631  0.00  0.00    +0.292 HD
ENDBRANCH  15  18
BRANCH  16  20
ATOM     20  O   UNL     1       5.622  -3.671  20.819  0.00  0.00    -0.503 OA
ATOM     21  H   UNL     1       5.285  -4.540  20.534  0.00  0.00    +0.292 HD
ENDBRANCH  16  20
ENDBRANCH  11  12
BRANCH   7  22
ATOM     22  O   UNL     1       1.692   0.079  28.615  0.00  0.00    -0.507 OA
ATOM     23  H   UNL     1       1.576  -0.222  29.533  0.00  0.00    +0.292 HD
ENDBRANCH   7  22
BRANCH  10  24
ATOM     24  O   UNL     1       6.233   1.027  29.523  0.00  0.00    -0.506 OA
ATOM     25  H   UNL     1       6.774   1.647  29.009  0.00  0.00    +0.292 HD
ENDBRANCH  10  24
BRANCH   1  26
ATOM     26  O   UNL     1       8.678  -1.613  25.627  0.00  0.00    -0.453 OA
BRANCH  26  29
ATOM     27  C   UNL     1       9.261   1.529  23.834  0.00  0.00    +0.261 C 
ATOM     28  O   UNL     1       8.635   0.580  24.703  0.00  0.00    -0.322 OA
ATOM     29  C   UNL     1       9.340  -0.658  24.786  0.00  0.00    +0.340 C 
ATOM     30  C   UNL     1       9.405  -1.330  23.394  0.00  0.00    +0.214 C 
ATOM     31  C   UNL     1       9.967  -0.350  22.359  0.00  0.00    +0.180 C 
ATOM     32  C   UNL     1       9.208   0.983  22.402  0.00  0.00    +0.185 C 
BRANCH  27  33
ATOM     33  C   UNL     1       8.523   2.867  23.914  0.00  0.00    +0.339 C 
ATOM     34  O   UNL     1       8.736   3.718  24.773  0.00  0.00    -0.248 OA
BRANCH  33  36
ATOM     35  C   UNL     1       7.322   4.268  22.427  0.00  0.00    +0.280 C 
ATOM     36  O   UNL     1       7.582   2.958  22.936  0.00  0.00    -0.466 OA
ENDBRANCH  33  36
ENDBRANCH  27  33
BRANCH  30  37
ATOM     37  O   UNL     1      10.172  -2.548  23.443  0.00  0.00    -0.383 OA
ATOM     38  H   UNL     1      10.995  -2.416  22.942  0.00  0.00    +0.210 HD
ENDBRANCH  30  37
BRANCH  31  39
ATOM     39  O   UNL     1       9.877  -0.902  21.040  0.00  0.00    -0.386 OA
ATOM     40  H   UNL     1       9.349  -1.719  21.135  0.00  0.00    +0.210 HD
ENDBRANCH  31  39
BRANCH  32  41
ATOM     41  O   UNL     1       9.813   1.848  21.433  0.00  0.00    -0.386 OA
ATOM     42  H   UNL     1       9.389   1.640  20.572  0.00  0.00    +0.210 HD
ENDBRANCH  32  41
ENDBRANCH  26  29
ENDBRANCH   1  26
TORSDOF 12
ENDMDL
MODEL 4
REMARK VINA RESULT:      -6.8      2.235      5.132
REMARK  Name = 
REMARK  13 active torsions:
REMARK  status: ('A' for Active; 'I' for Inactive)
REMARK    1  A    between atoms: C_1  and  O_2
REMARK    2  A    between atoms: O_2  and  C_3
REMARK    3  A    between atoms: C_3  and  C_5
REMARK    4  A    between atoms: C_7  and  O_40
REMARK    5  A    between atoms: C_9  and  O_39
REMARK    6  A    between atoms: C_11  and  O_38
REMARK    7  A    between atoms: C_13  and  O_16
REMARK    8  A    between atoms: O_16  and  C_17
REMARK    9  A    between atoms: C_18  and  C_30
REMARK   10  A    between atoms: C_22  and  O_29
REMARK   11  A    between atoms: C_24  and  O_28
REMARK   12  A    between atoms: C_32  and  O_37
REMARK   13  A    between atoms: C_33  and  O_36
REMARK                            x       y       z     vdW  Elec       q    Type
REMARK                         _______ _______ _______ _____ _____    ______ ____
ROOT
ATOM      1  C   UNL     1       6.667  -0.393  24.805  0.00  0.00    +0.214 A 
ATOM      2  C   UNL     1       6.784   1.055  25.164  0.00  0.00    +0.238 A 
ATOM      3  O   UNL     1       5.921   1.604  25.841  0.00  0.00    -0.283 OA
ATOM      4  C   UNL     1       7.930   1.791  24.591  0.00  0.00    +0.109 A 
ATOM      5  C   UNL     1       8.835   1.080  23.802  0.00  0.00    +0.147 A 
ATOM      6  C   UNL     1       9.948   1.715  23.238  0.00  0.00    +0.092 A 
ATOM      7  C   UNL     1      10.131   3.077  23.446  0.00  0.00    +0.124 A 
ATOM      8  C   UNL     1       9.226   3.808  24.205  0.00  0.00    +0.091 A 
ATOM      9  O   UNL     1       8.691  -0.248  23.502  0.00  0.00    -0.451 OA
ATOM     10  C   UNL     1       8.128   3.165  24.779  0.00  0.00    +0.135 A 
ATOM     11  C   UNL     1       7.569  -0.929  23.953  0.00  0.00    +0.181 A 
ENDROOT
BRANCH  11  12
ATOM     12  C   UNL     1       7.463  -2.299  23.354  0.00  0.00    +0.025 A 
ATOM     13  C   UNL     1       6.546  -2.557  22.314  0.00  0.00    +0.015 A 
ATOM     14  C   UNL     1       6.337  -3.859  21.828  0.00  0.00    +0.050 A 
ATOM     15  C   UNL     1       7.055  -4.907  22.370  0.00  0.00    +0.158 A 
ATOM     16  C   UNL     1       7.983  -4.680  23.377  0.00  0.00    +0.159 A 
ATOM     17  C   UNL     1       8.176  -3.397  23.879  0.00  0.00    +0.060 A 
BRANCH  15  18
ATOM     18  O   UNL     1       6.837  -6.178  21.923  0.00  0.00    -0.503 OA
ATOM     19  H   UNL     1       7.712  -6.477  21.606  0.00  0.00    +0.292 HD
ENDBRANCH  15  18
BRANCH  16  20
ATOM     20  O   UNL     1       8.674  -5.752  23.870  0.00  0.00    -0.503 OA
ATOM     21  H   UNL     1       8.108  -6.541  23.778  0.00  0.00    +0.292 HD
ENDBRANCH  16  20
ENDBRANCH  11  12
BRANCH   7  22
ATOM     22  O   UNL     1      11.189   3.746  22.909  0.00  0.00    -0.507 OA
ATOM     23  H   UNL     1      11.615   3.189  22.236  0.00  0.00    +0.292 HD
ENDBRANCH   7  22
BRANCH  10  24
ATOM     24  O   UNL     1       7.246   3.909  25.510  0.00  0.00    -0.506 OA
ATOM     25  H   UNL     1       6.401   3.987  25.040  0.00  0.00    +0.292 HD
ENDBRANCH  10  24
BRANCH   1  26
ATOM     26  O   UNL     1       5.585  -1.121  25.254  0.00  0.00    -0.453 OA
BRANCH  26  29
ATOM     27  C   UNL     1       6.052  -3.898  27.598  0.00  0.00    +0.261 C 
ATOM     28  O   UNL     1       5.982  -3.194  26.355  0.00  0.00    -0.322 OA
ATOM     29  C   UNL     1       5.694  -1.804  26.510  0.00  0.00    +0.340 C 
ATOM     30  C   UNL     1       4.315  -1.617  27.187  0.00  0.00    +0.214 C 
ATOM     31  C   UNL     1       4.250  -2.427  28.486  0.00  0.00    +0.180 C 
ATOM     32  C   UNL     1       4.661  -3.885  28.241  0.00  0.00    +0.185 C 
BRANCH  27  33
ATOM     33  C   UNL     1       6.503  -5.339  27.350  0.00  0.00    +0.339 C 
ATOM     34  O   UNL     1       6.987  -6.065  28.213  0.00  0.00    -0.248 OA
BRANCH  33  36
ATOM     35  C   UNL     1       5.178  -6.468  25.742  0.00  0.00    +0.280 C 
ATOM     36  O   UNL     1       6.331  -5.680  26.044  0.00  0.00    -0.466 OA
ENDBRANCH  33  36
ENDBRANCH  27  33
BRANCH  30  37
ATOM     37  O   UNL     1       4.036  -0.223  27.414  0.00  0.00    -0.383 OA
ATOM     38  H   UNL     1       4.697   0.127  28.036  0.00  0.00    +0.210 HD
ENDBRANCH  30  37
BRANCH  31  39
ATOM     39  O   UNL     1       2.926  -2.395  29.034  0.00  0.00    -0.386 OA
ATOM     40  H   UNL     1       2.506  -3.231  28.751  0.00  0.00    +0.210 HD
ENDBRANCH  31  39
BRANCH  32  41
ATOM     41  O   UNL     1       4.603  -4.559  29.504  0.00  0.00    -0.386 OA
ATOM     42  H   UNL     1       4.512  -3.861  30.188  0.00  0.00    +0.210 HD
ENDBRANCH  32  41
ENDBRANCH  26  29
ENDBRANCH   1  26
TORSDOF 12
ENDMDL
MODEL 5
REMARK VINA RESULT:      -6.8      2.553      7.627
REMARK  Name = 
REMARK  13 active torsions:
REMARK  status: ('A' for Active; 'I' for Inactive)
REMARK    1  A    between atoms: C_1  and  O_2
REMARK    2  A    between atoms: O_2  and  C_3
REMARK    3  A    between atoms: C_3  and  C_5
REMARK    4  A    between atoms: C_7  and  O_40
REMARK    5  A    between atoms: C_9  and  O_39
REMARK    6  A    between atoms: C_11  and  O_38
REMARK    7  A    between atoms: C_13  and  O_16
REMARK    8  A    between atoms: O_16  and  C_17
REMARK    9  A    between atoms: C_18  and  C_30
REMARK   10  A    between atoms: C_22  and  O_29
REMARK   11  A    between atoms: C_24  and  O_28
REMARK   12  A    between atoms: C_32  and  O_37
REMARK   13  A    between atoms: C_33  and  O_36
REMARK                            x       y       z     vdW  Elec       q    Type
REMARK                         _______ _______ _______ _____ _____    ______ ____
ROOT
ATOM      1  C   UNL     1       6.334  -5.524  26.656  0.00  0.00    +0.214 A 
ATOM      2  C   UNL     1       5.959  -6.034  28.013  0.00  0.00    +0.238 A 
ATOM      3  O   UNL     1       6.811  -6.489  28.768  0.00  0.00    -0.283 OA
ATOM      4  C   UNL     1       4.520  -6.038  28.346  0.00  0.00    +0.109 A 
ATOM      5  C   UNL     1       3.628  -5.531  27.401  0.00  0.00    +0.147 A 
ATOM      6  C   UNL     1       2.253  -5.496  27.658  0.00  0.00    +0.092 A 
ATOM      7  C   UNL     1       1.773  -6.002  28.860  0.00  0.00    +0.124 A 
ATOM      8  C   UNL     1       2.642  -6.538  29.802  0.00  0.00    +0.091 A 
ATOM      9  O   UNL     1       4.016  -5.070  26.171  0.00  0.00    -0.451 OA
ATOM     10  C   UNL     1       4.014  -6.553  29.547  0.00  0.00    +0.135 A 
ATOM     11  C   UNL     1       5.353  -5.149  25.806  0.00  0.00    +0.181 A 
ENDROOT
BRANCH  11  12
ATOM     12  C   UNL     1       5.564  -4.810  24.361  0.00  0.00    +0.025 A 
ATOM     13  C   UNL     1       5.556  -3.467  23.932  0.00  0.00    +0.015 A 
ATOM     14  C   UNL     1       5.621  -3.134  22.568  0.00  0.00    +0.050 A 
ATOM     15  C   UNL     1       5.710  -4.143  21.628  0.00  0.00    +0.158 A 
ATOM     16  C   UNL     1       5.745  -5.472  22.023  0.00  0.00    +0.159 A 
ATOM     17  C   UNL     1       5.656  -5.809  23.370  0.00  0.00    +0.060 A 
BRANCH  15  18
ATOM     18  O   UNL     1       5.744  -3.827  20.301  0.00  0.00    -0.503 OA
ATOM     19  H   UNL     1       4.961  -3.256  20.168  0.00  0.00    +0.292 HD
ENDBRANCH  15  18
BRANCH  16  20
ATOM     20  O   UNL     1       5.844  -6.430  21.052  0.00  0.00    -0.503 OA
ATOM     21  H   UNL     1       5.982  -7.289  21.491  0.00  0.00    +0.292 HD
ENDBRANCH  16  20
ENDBRANCH  11  12
BRANCH   7  22
ATOM     22  O   UNL     1       0.443  -6.005  29.155  0.00  0.00    -0.507 OA
ATOM     23  H   UNL     1      -0.068  -6.133  28.338  0.00  0.00    +0.292 HD
ENDBRANCH   7  22
BRANCH  10  24
ATOM     24  O   UNL     1       4.846  -7.096  30.485  0.00  0.00    -0.506 OA
ATOM     25  H   UNL     1       5.023  -6.452  31.189  0.00  0.00    +0.292 HD
ENDBRANCH  10  24
BRANCH   1  26
ATOM     26  O   UNL     1       7.655  -5.555  26.258  0.00  0.00    -0.453 OA
BRANCH  26  29
ATOM     27  C   UNL     1       8.303  -1.956  26.481  0.00  0.00    +0.261 C 
ATOM     28  O   UNL     1       7.578  -3.188  26.501  0.00  0.00    -0.322 OA
ATOM     29  C   UNL     1       8.402  -4.331  26.278  0.00  0.00    +0.340 C 
ATOM     30  C   UNL     1       9.066  -4.247  24.883  0.00  0.00    +0.214 C 
ATOM     31  C   UNL     1       9.785  -2.904  24.719  0.00  0.00    +0.180 C 
ATOM     32  C   UNL     1       8.850  -1.738  25.066  0.00  0.00    +0.185 C 
BRANCH  27  33
ATOM     33  C   UNL     1       7.374  -0.803  26.868  0.00  0.00    +0.339 C 
ATOM     34  O   UNL     1       7.667   0.075  27.674  0.00  0.00    -0.248 OA
BRANCH  33  36
ATOM     35  C   UNL     1       5.862   0.114  25.291  0.00  0.00    +0.280 C 
ATOM     36  O   UNL     1       6.177  -0.915  26.231  0.00  0.00    -0.466 OA
ENDBRANCH  33  36
ENDBRANCH  27  33
BRANCH  30  37
ATOM     37  O   UNL     1       9.956  -5.358  24.665  0.00  0.00    -0.383 OA
ATOM     38  H   UNL     1       9.457  -6.183  24.792  0.00  0.00    +0.210 HD
ENDBRANCH  30  37
BRANCH  31  39
ATOM     39  O   UNL     1      10.260  -2.746  23.376  0.00  0.00    -0.386 OA
ATOM     40  H   UNL     1       9.810  -1.949  23.033  0.00  0.00    +0.210 HD
ENDBRANCH  31  39
BRANCH  32  41
ATOM     41  O   UNL     1       9.606  -0.530  24.920  0.00  0.00    -0.386 OA
ATOM     42  H   UNL     1      10.385  -0.754  24.365  0.00  0.00    +0.210 HD
ENDBRANCH  32  41
ENDBRANCH  26  29
ENDBRANCH   1  26
TORSDOF 12
ENDMDL
MODEL 6
REMARK VINA RESULT:      -6.6      2.995      7.059
REMARK  Name = 
REMARK  13 active torsions:
REMARK  status: ('A' for Active; 'I' for Inactive)
REMARK    1  A    between atoms: C_1  and  O_2
REMARK    2  A    between atoms: O_2  and  C_3
REMARK    3  A    between atoms: C_3  and  C_5
REMARK    4  A    between atoms: C_7  and  O_40
REMARK    5  A    between atoms: C_9  and  O_39
REMARK    6  A    between atoms: C_11  and  O_38
REMARK    7  A    between atoms: C_13  and  O_16
REMARK    8  A    between atoms: O_16  and  C_17
REMARK    9  A    between atoms: C_18  and  C_30
REMARK   10  A    between atoms: C_22  and  O_29
REMARK   11  A    between atoms: C_24  and  O_28
REMARK   12  A    between atoms: C_32  and  O_37
REMARK   13  A    between atoms: C_33  and  O_36
REMARK                            x       y       z     vdW  Elec       q    Type
REMARK                         _______ _______ _______ _____ _____    ______ ____
ROOT
ATOM      1  C   UNL     1       6.369  -0.786  24.812  0.00  0.00    +0.214 A 
ATOM      2  C   UNL     1       6.634  -1.865  23.809  0.00  0.00    +0.238 A 
ATOM      3  O   UNL     1       6.133  -1.816  22.691  0.00  0.00    -0.283 OA
ATOM      4  C   UNL     1       7.446  -3.011  24.265  0.00  0.00    +0.109 A 
ATOM      5  C   UNL     1       7.939  -2.986  25.570  0.00  0.00    +0.147 A 
ATOM      6  C   UNL     1       8.723  -4.036  26.061  0.00  0.00    +0.092 A 
ATOM      7  C   UNL     1       8.986  -5.128  25.243  0.00  0.00    +0.124 A 
ATOM      8  C   UNL     1       8.481  -5.186  23.951  0.00  0.00    +0.091 A 
ATOM      9  O   UNL     1       7.674  -1.975  26.455  0.00  0.00    -0.451 OA
ATOM     10  C   UNL     1       7.714  -4.127  23.461  0.00  0.00    +0.135 A 
ATOM     11  C   UNL     1       6.834  -0.939  26.073  0.00  0.00    +0.181 A 
ENDROOT
BRANCH  11  12
ATOM     12  C   UNL     1       6.479  -0.046  27.223  0.00  0.00    +0.025 A 
ATOM     13  C   UNL     1       5.308  -0.278  27.975  0.00  0.00    +0.015 A 
ATOM     14  C   UNL     1       4.890   0.620  28.972  0.00  0.00    +0.050 A 
ATOM     15  C   UNL     1       5.647   1.746  29.232  0.00  0.00    +0.158 A 
ATOM     16  C   UNL     1       6.817   1.985  28.525  0.00  0.00    +0.159 A 
ATOM     17  C   UNL     1       7.224   1.114  27.520  0.00  0.00    +0.060 A 
BRANCH  15  18
ATOM     18  O   UNL     1       5.230   2.636  30.178  0.00  0.00    -0.503 OA
ATOM     19  H   UNL     1       5.854   2.508  30.921  0.00  0.00    +0.292 HD
ENDBRANCH  15  18
BRANCH  16  20
ATOM     20  O   UNL     1       7.534   3.110  28.830  0.00  0.00    -0.503 OA
ATOM     21  H   UNL     1       6.904   3.846  28.938  0.00  0.00    +0.292 HD
ENDBRANCH  16  20
ENDBRANCH  11  12
BRANCH   7  22
ATOM     22  O   UNL     1       9.733  -6.183  25.676  0.00  0.00    -0.507 OA
ATOM     23  H   UNL     1      10.232  -5.920  26.468  0.00  0.00    +0.292 HD
ENDBRANCH   7  22
BRANCH  10  24
ATOM     24  O   UNL     1       7.219  -4.214  22.191  0.00  0.00    -0.506 OA
ATOM     25  H   UNL     1       6.588  -4.947  22.126  0.00  0.00    +0.292 HD
ENDBRANCH  10  24
BRANCH   1  26
ATOM     26  O   UNL     1       5.563   0.280  24.470  0.00  0.00    -0.453 OA
BRANCH  26  29
ATOM     27  C   UNL     1       7.977   2.345  22.644  0.00  0.00    +0.261 C 
ATOM     28  O   UNL     1       7.475   1.371  23.563  0.00  0.00    -0.322 OA
ATOM     29  C   UNL     1       6.055   1.229  23.514  0.00  0.00    +0.340 C 
ATOM     30  C   UNL     1       5.371   2.565  23.889  0.00  0.00    +0.214 C 
ATOM     31  C   UNL     1       5.924   3.703  23.026  0.00  0.00    +0.180 C 
ATOM     32  C   UNL     1       7.458   3.724  23.068  0.00  0.00    +0.185 C 
BRANCH  27  33
ATOM     33  C   UNL     1       9.506   2.331  22.662  0.00  0.00    +0.339 C 
ATOM     34  O   UNL     1      10.195   1.657  21.903  0.00  0.00    -0.248 OA
BRANCH  33  36
ATOM     35  C   UNL     1      11.231   3.781  23.397  0.00  0.00    +0.280 C 
ATOM     36  O   UNL     1       9.985   3.130  23.654  0.00  0.00    -0.466 OA
ENDBRANCH  33  36
ENDBRANCH  27  33
BRANCH  30  37
ATOM     37  O   UNL     1       3.939   2.461  23.779  0.00  0.00    -0.383 OA
ATOM     38  H   UNL     1       3.575   2.257  24.658  0.00  0.00    +0.210 HD
ENDBRANCH  30  37
BRANCH  31  39
ATOM     39  O   UNL     1       5.422   4.967  23.476  0.00  0.00    -0.386 OA
ATOM     40  H   UNL     1       5.400   5.537  22.683  0.00  0.00    +0.210 HD
ENDBRANCH  31  39
BRANCH  32  41
ATOM     41  O   UNL     1       7.891   4.790  22.215  0.00  0.00    -0.386 OA
ATOM     42  H   UNL     1       7.875   4.437  21.299  0.00  0.00    +0.210 HD
ENDBRANCH  32  41
ENDBRANCH  26  29
ENDBRANCH   1  26
TORSDOF 12
ENDMDL
MODEL 7
REMARK VINA RESULT:      -6.5      2.590      7.616
REMARK  Name = 
REMARK  13 active torsions:
REMARK  status: ('A' for Active; 'I' for Inactive)
REMARK    1  A    between atoms: C_1  and  O_2
REMARK    2  A    between atoms: O_2  and  C_3
REMARK    3  A    between atoms: C_3  and  C_5
REMARK    4  A    between atoms: C_7  and  O_40
REMARK    5  A    between atoms: C_9  and  O_39
REMARK    6  A    between atoms: C_11  and  O_38
REMARK    7  A    between atoms: C_13  and  O_16
REMARK    8  A    between atoms: O_16  and  C_17
REMARK    9  A    between atoms: C_18  and  C_30
REMARK   10  A    between atoms: C_22  and  O_29
REMARK   11  A    between atoms: C_24  and  O_28
REMARK   12  A    between atoms: C_32  and  O_37
REMARK   13  A    between atoms: C_33  and  O_36
REMARK                            x       y       z     vdW  Elec       q    Type
REMARK                         _______ _______ _______ _____ _____    ______ ____
ROOT
ATOM      1  C   UNL     1       7.258  -1.632  25.168  0.00  0.00    +0.214 A 
ATOM      2  C   UNL     1       6.557  -2.916  25.489  0.00  0.00    +0.238 A 
ATOM      3  O   UNL     1       6.256  -3.192  26.645  0.00  0.00    -0.283 OA
ATOM      4  C   UNL     1       6.333  -3.849  24.366  0.00  0.00    +0.109 A 
ATOM      5  C   UNL     1       6.747  -3.453  23.093  0.00  0.00    +0.147 A 
ATOM      6  C   UNL     1       6.555  -4.286  21.986  0.00  0.00    +0.092 A 
ATOM      7  C   UNL     1       5.972  -5.534  22.166  0.00  0.00    +0.124 A 
ATOM      8  C   UNL     1       5.579  -5.959  23.429  0.00  0.00    +0.091 A 
ATOM      9  O   UNL     1       7.382  -2.266  22.844  0.00  0.00    -0.451 OA
ATOM     10  C   UNL     1       5.757  -5.116  24.528  0.00  0.00    +0.135 A 
ATOM     11  C   UNL     1       7.686  -1.421  23.903  0.00  0.00    +0.181 A 
ENDROOT
BRANCH  11  12
ATOM     12  C   UNL     1       8.568  -0.285  23.482  0.00  0.00    +0.025 A 
ATOM     13  C   UNL     1       9.870  -0.156  24.009  0.00  0.00    +0.015 A 
ATOM     14  C   UNL     1      10.664   0.970  23.730  0.00  0.00    +0.050 A 
ATOM     15  C   UNL     1      10.166   1.964  22.912  0.00  0.00    +0.158 A 
ATOM     16  C   UNL     1       8.898   1.852  22.359  0.00  0.00    +0.159 A 
ATOM     17  C   UNL     1       8.097   0.752  22.651  0.00  0.00    +0.060 A 
BRANCH  15  18
ATOM     18  O   UNL     1      10.920   3.073  22.660  0.00  0.00    -0.503 OA
ATOM     19  H   UNL     1      11.843   2.768  22.774  0.00  0.00    +0.292 HD
ENDBRANCH  15  18
BRANCH  16  20
ATOM     20  O   UNL     1       8.458   2.861  21.547  0.00  0.00    -0.503 OA
ATOM     21  H   UNL     1       7.950   2.459  20.818  0.00  0.00    +0.292 HD
ENDBRANCH  16  20
ENDBRANCH  11  12
BRANCH   7  22
ATOM     22  O   UNL     1       5.774  -6.389  21.124  0.00  0.00    -0.507 OA
ATOM     23  H   UNL     1       5.029  -6.073  20.585  0.00  0.00    +0.292 HD
ENDBRANCH   7  22
BRANCH  10  24
ATOM     24  O   UNL     1       5.373  -5.562  25.760  0.00  0.00    -0.506 OA
ATOM     25  H   UNL     1       5.290  -6.529  25.756  0.00  0.00    +0.292 HD
ENDBRANCH  10  24
BRANCH   1  26
ATOM     26  O   UNL     1       7.556  -0.746  26.182  0.00  0.00    -0.453 OA
BRANCH  26  29
ATOM     27  C   UNL     1       6.790   2.836  26.259  0.00  0.00    +0.261 C 
ATOM     28  O   UNL     1       7.548   1.633  26.106  0.00  0.00    -0.322 OA
ATOM     29  C   UNL     1       6.773   0.450  26.296  0.00  0.00    +0.340 C 
ATOM     30  C   UNL     1       6.196   0.414  27.731  0.00  0.00    +0.214 C 
ATOM     31  C   UNL     1       5.449   1.716  28.034  0.00  0.00    +0.180 C 
ATOM     32  C   UNL     1       6.327   2.934  27.717  0.00  0.00    +0.185 C 
BRANCH  27  33
ATOM     33  C   UNL     1       7.659   4.043  25.901  0.00  0.00    +0.339 C 
ATOM     34  O   UNL     1       8.059   4.867  26.717  0.00  0.00    -0.248 OA
BRANCH  33  36
ATOM     35  C   UNL     1       8.541   5.265  24.072  0.00  0.00    +0.280 C 
ATOM     36  O   UNL     1       7.887   4.092  24.560  0.00  0.00    -0.466 OA
ENDBRANCH  33  36
ENDBRANCH  27  33
BRANCH  30  37
ATOM     37  O   UNL     1       5.354  -0.739  27.921  0.00  0.00    -0.383 OA
ATOM     38  H   UNL     1       5.224  -1.171  27.060  0.00  0.00    +0.210 HD
ENDBRANCH  30  37
BRANCH  31  39
ATOM     39  O   UNL     1       5.056   1.764  29.412  0.00  0.00    -0.386 OA
ATOM     40  H   UNL     1       4.728   0.867  29.620  0.00  0.00    +0.210 HD
ENDBRANCH  31  39
BRANCH  32  41
ATOM     41  O   UNL     1       5.546   4.104  27.996  0.00  0.00    -0.386 OA
ATOM     42  H   UNL     1       6.028   4.599  28.694  0.00  0.00    +0.210 HD
ENDBRANCH  32  41
ENDBRANCH  26  29
ENDBRANCH   1  26
TORSDOF 12
ENDMDL
MODEL 8
REMARK VINA RESULT:      -6.5      2.469      7.110
REMARK  Name = 
REMARK  13 active torsions:
REMARK  status: ('A' for Active; 'I' for Inactive)
REMARK    1  A    between atoms: C_1  and  O_2
REMARK    2  A    between atoms: O_2  and  C_3
REMARK    3  A    between atoms: C_3  and  C_5
REMARK    4  A    between atoms: C_7  and  O_40
REMARK    5  A    between atoms: C_9  and  O_39
REMARK    6  A    between atoms: C_11  and  O_38
REMARK    7  A    between atoms: C_13  and  O_16
REMARK    8  A    between atoms: O_16  and  C_17
REMARK    9  A    between atoms: C_18  and  C_30
REMARK   10  A    between atoms: C_22  and  O_29
REMARK   11  A    between atoms: C_24  and  O_28
REMARK   12  A    between atoms: C_32  and  O_37
REMARK   13  A    between atoms: C_33  and  O_36
REMARK                            x       y       z     vdW  Elec       q    Type
REMARK                         _______ _______ _______ _____ _____    ______ ____
ROOT
ATOM      1  C   UNL     1       7.504  -1.750  25.336  0.00  0.00    +0.214 A 
ATOM      2  C   UNL     1       6.856  -3.074  25.595  0.00  0.00    +0.238 A 
ATOM      3  O   UNL     1       6.649  -3.456  26.741  0.00  0.00    -0.283 OA
ATOM      4  C   UNL     1       6.566  -3.913  24.414  0.00  0.00    +0.109 A 
ATOM      5  C   UNL     1       6.874  -3.399  23.153  0.00  0.00    +0.147 A 
ATOM      6  C   UNL     1       6.615  -4.138  21.994  0.00  0.00    +0.092 A 
ATOM      7  C   UNL     1       6.072  -5.412  22.108  0.00  0.00    +0.124 A 
ATOM      8  C   UNL     1       5.785  -5.954  23.354  0.00  0.00    +0.091 A 
ATOM      9  O   UNL     1       7.464  -2.178  22.963  0.00  0.00    -0.451 OA
ATOM     10  C   UNL     1       6.029  -5.204  24.506  0.00  0.00    +0.135 A 
ATOM     11  C   UNL     1       7.830  -1.420  24.066  0.00  0.00    +0.181 A 
ENDROOT
BRANCH  11  12
ATOM     12  C   UNL     1       8.655  -0.228  23.683  0.00  0.00    +0.025 A 
ATOM     13  C   UNL     1       9.952  -0.055  24.209  0.00  0.00    +0.015 A 
ATOM     14  C   UNL     1      10.690   1.116  23.967  0.00  0.00    +0.050 A 
ATOM     15  C   UNL     1      10.141   2.114  23.186  0.00  0.00    +0.158 A 
ATOM     16  C   UNL     1       8.877   1.960  22.634  0.00  0.00    +0.159 A 
ATOM     17  C   UNL     1       8.131   0.814  22.890  0.00  0.00    +0.060 A 
BRANCH  15  18
ATOM     18  O   UNL     1      10.840   3.265  22.971  0.00  0.00    -0.503 OA
ATOM     19  H   UNL     1      10.372   3.698  22.229  0.00  0.00    +0.292 HD
ENDBRANCH  15  18
BRANCH  16  20
ATOM     20  O   UNL     1       8.385   2.974  21.859  0.00  0.00    -0.503 OA
ATOM     21  H   UNL     1       7.552   3.282  22.262  0.00  0.00    +0.292 HD
ENDBRANCH  16  20
ENDBRANCH  11  12
BRANCH   7  22
ATOM     22  O   UNL     1       5.813  -6.180  21.012  0.00  0.00    -0.507 OA
ATOM     23  H   UNL     1       5.975  -7.114  21.228  0.00  0.00    +0.292 HD
ENDBRANCH   7  22
BRANCH  10  24
ATOM     24  O   UNL     1       5.749  -5.764  25.720  0.00  0.00    -0.506 OA
ATOM     25  H   UNL     1       6.567  -5.894  26.226  0.00  0.00    +0.292 HD
ENDBRANCH  10  24
BRANCH   1  26
ATOM     26  O   UNL     1       7.860  -0.946  26.399  0.00  0.00    -0.453 OA
BRANCH  26  29
ATOM     27  C   UNL     1       5.102   1.464  26.491  0.00  0.00    +0.261 C 
ATOM     28  O   UNL     1       6.067   0.554  25.955  0.00  0.00    -0.322 OA
ATOM     29  C   UNL     1       6.870  -0.070  26.955  0.00  0.00    +0.340 C 
ATOM     30  C   UNL     1       7.675   0.996  27.737  0.00  0.00    +0.214 C 
ATOM     31  C   UNL     1       6.736   2.084  28.267  0.00  0.00    +0.180 C 
ATOM     32  C   UNL     1       5.849   2.634  27.142  0.00  0.00    +0.185 C 
BRANCH  27  33
ATOM     33  C   UNL     1       4.196   1.976  25.370  0.00  0.00    +0.339 C 
ATOM     34  O   UNL     1       3.073   2.437  25.552  0.00  0.00    -0.248 OA
BRANCH  33  36
ATOM     35  C   UNL     1       4.954   2.991  23.367  0.00  0.00    +0.280 C 
ATOM     36  O   UNL     1       4.790   1.812  24.157  0.00  0.00    -0.466 OA
ENDBRANCH  33  36
ENDBRANCH  27  33
BRANCH  30  37
ATOM     37  O   UNL     1       8.440   0.391  28.797  0.00  0.00    -0.383 OA
ATOM     38  H   UNL     1       8.217  -0.555  28.838  0.00  0.00    +0.210 HD
ENDBRANCH  30  37
BRANCH  31  39
ATOM     39  O   UNL     1       7.485   3.159  28.846  0.00  0.00    -0.386 OA
ATOM     40  H   UNL     1       8.222   3.327  28.226  0.00  0.00    +0.210 HD
ENDBRANCH  31  39
BRANCH  32  41
ATOM     41  O   UNL     1       4.985   3.617  27.725  0.00  0.00    -0.386 OA
ATOM     42  H   UNL     1       5.014   4.400  27.133  0.00  0.00    +0.210 HD
ENDBRANCH  32  41
ENDBRANCH  26  29
ENDBRANCH   1  26
TORSDOF 12
ENDMDL
MODEL 9
REMARK VINA RESULT:      -6.4      2.579      5.436
REMARK  Name = 
REMARK  13 active torsions:
REMARK  status: ('A' for Active; 'I' for Inactive)
REMARK    1  A    between atoms: C_1  and  O_2
REMARK    2  A    between atoms: O_2  and  C_3
REMARK    3  A    between atoms: C_3  and  C_5
REMARK    4  A    between atoms: C_7  and  O_40
REMARK    5  A    between atoms: C_9  and  O_39
REMARK    6  A    between atoms: C_11  and  O_38
REMARK    7  A    between atoms: C_13  and  O_16
REMARK    8  A    between atoms: O_16  and  C_17
REMARK    9  A    between atoms: C_18  and  C_30
REMARK   10  A    between atoms: C_22  and  O_29
REMARK   11  A    between atoms: C_24  and  O_28
REMARK   12  A    between atoms: C_32  and  O_37
REMARK   13  A    between atoms: C_33  and  O_36
REMARK                            x       y       z     vdW  Elec       q    Type
REMARK                         _______ _______ _______ _____ _____    ______ ____
ROOT
ATOM      1  C   UNL     1       6.422  -0.569  24.956  0.00  0.00    +0.214 A 
ATOM      2  C   UNL     1       6.193   0.852  24.543  0.00  0.00    +0.238 A 
ATOM      3  O   UNL     1       5.055   1.298  24.441  0.00  0.00    -0.283 OA
ATOM      4  C   UNL     1       7.390   1.642  24.189  0.00  0.00    +0.109 A 
ATOM      5  C   UNL     1       8.638   1.029  24.306  0.00  0.00    +0.147 A 
ATOM      6  C   UNL     1       9.811   1.725  23.996  0.00  0.00    +0.092 A 
ATOM      7  C   UNL     1       9.724   3.034  23.539  0.00  0.00    +0.124 A 
ATOM      8  C   UNL     1       8.490   3.654  23.389  0.00  0.00    +0.091 A 
ATOM      9  O   UNL     1       8.801  -0.275  24.691  0.00  0.00    -0.451 OA
ATOM     10  C   UNL     1       7.324   2.959  23.716  0.00  0.00    +0.135 A 
ATOM     11  C   UNL     1       7.682  -1.059  24.934  0.00  0.00    +0.181 A 
ENDROOT
BRANCH  11  12
ATOM     12  C   UNL     1       8.036  -2.503  25.126  0.00  0.00    +0.025 A 
ATOM     13  C   UNL     1       8.577  -2.951  26.349  0.00  0.00    +0.015 A 
ATOM     14  C   UNL     1       9.035  -4.270  26.507  0.00  0.00    +0.050 A 
ATOM     15  C   UNL     1       8.941  -5.151  25.447  0.00  0.00    +0.158 A 
ATOM     16  C   UNL     1       8.389  -4.745  24.241  0.00  0.00    +0.159 A 
ATOM     17  C   UNL     1       7.956  -3.434  24.070  0.00  0.00    +0.060 A 
BRANCH  15  18
ATOM     18  O   UNL     1       9.411  -6.425  25.585  0.00  0.00    -0.503 OA
ATOM     19  H   UNL     1       8.798  -6.968  25.050  0.00  0.00    +0.292 HD
ENDBRANCH  15  18
BRANCH  16  20
ATOM     20  O   UNL     1       8.310  -5.661  23.228  0.00  0.00    -0.503 OA
ATOM     21  H   UNL     1       7.560  -6.254  23.419  0.00  0.00    +0.292 HD
ENDBRANCH  16  20
ENDBRANCH  11  12
BRANCH   7  22
ATOM     22  O   UNL     1      10.834   3.753  23.210  0.00  0.00    -0.507 OA
ATOM     23  H   UNL     1      11.277   4.051  24.023  0.00  0.00    +0.292 HD
ENDBRANCH   7  22
BRANCH  10  24
ATOM     24  O   UNL     1       6.123   3.588  23.549  0.00  0.00    -0.506 OA
ATOM     25  H   UNL     1       5.660   3.227  22.776  0.00  0.00    +0.292 HD
ENDBRANCH  10  24
BRANCH   1  26
ATOM     26  O   UNL     1       5.343  -1.380  25.236  0.00  0.00    -0.453 OA
BRANCH  26  29
ATOM     27  C   UNL     1       4.950  -3.470  28.219  0.00  0.00    +0.261 C 
ATOM     28  O   UNL     1       5.250  -3.110  26.868  0.00  0.00    -0.322 OA
ATOM     29  C   UNL     1       5.080  -1.718  26.605  0.00  0.00    +0.340 C 
ATOM     30  C   UNL     1       3.607  -1.305  26.841  0.00  0.00    +0.214 C 
ATOM     31  C   UNL     1       3.152  -1.747  28.236  0.00  0.00    +0.180 C 
ATOM     32  C   UNL     1       3.454  -3.234  28.463  0.00  0.00    +0.185 C 
BRANCH  27  33
ATOM     33  C   UNL     1       5.293  -4.943  28.449  0.00  0.00    +0.339 C 
ATOM     34  O   UNL     1       6.412  -5.348  28.751  0.00  0.00    -0.248 OA
BRANCH  33  36
ATOM     35  C   UNL     1       4.091  -6.892  29.060  0.00  0.00    +0.280 C 
ATOM     36  O   UNL     1       4.205  -5.731  28.234  0.00  0.00    -0.466 OA
ENDBRANCH  33  36
ENDBRANCH  27  33
BRANCH  30  37
ATOM     37  O   UNL     1       3.429   0.111  26.647  0.00  0.00    -0.383 OA
ATOM     38  H   UNL     1       4.249   0.563  26.908  0.00  0.00    +0.210 HD
ENDBRANCH  30  37
BRANCH  31  39
ATOM     39  O   UNL     1       1.746  -1.520  28.403  0.00  0.00    -0.386 OA
ATOM     40  H   UNL     1       1.569  -0.656  27.982  0.00  0.00    +0.210 HD
ENDBRANCH  31  39
BRANCH  32  41
ATOM     41  O   UNL     1       3.030  -3.555  29.793  0.00  0.00    -0.386 OA
ATOM     42  H   UNL     1       3.704  -4.168  30.160  0.00  0.00    +0.210 HD
ENDBRANCH  32  41
ENDBRANCH  26  29
ENDBRANCH   1  26
TORSDOF 12
ENDMDL
