MODEL 1
REMARK VINA RESULT:      -8.0      0.000      0.000
REMARK  Name = 
REMARK  12 active torsions:
REMARK  status: ('A' for Active; 'I' for Inactive)
REMARK    1  A    between atoms: C_3  and  O_22
REMARK    2  A    between atoms: C_4  and  O_21
REMARK    3  A    between atoms: C_6  and  C_7
REMARK    4  A    between atoms: C_8  and  O_20
REMARK    5  A    between atoms: C_12  and  O_19
REMARK    6  A    between atoms: C_14  and  O_18
REMARK    7  A    between atoms: O_22  and  C_23
REMARK    8  A    between atoms: C_24  and  O_33
REMARK    9  A    between atoms: C_25  and  O_32
REMARK   10  A    between atoms: C_26  and  O_31
REMARK   11  A    between atoms: C_27  and  C_29
REMARK   12  A    between atoms: C_29  and  O_30
REMARK                            x       y       z     vdW  Elec       q    Type
REMARK                         _______ _______ _______ _____ _____    ______ ____
ROOT
ATOM      1  C   UNL     1       8.524  -0.330  22.371  0.00  0.00    +0.015 A 
ATOM      2  C   UNL     1       8.957   0.207  23.591  0.00  0.00    +0.025 A 
ATOM      3  C   UNL     1       9.064  -0.676  24.681  0.00  0.00    +0.060 A 
ATOM      4  C   UNL     1       8.696  -2.022  24.551  0.00  0.00    +0.159 A 
ATOM      5  C   UNL     1       8.157  -2.519  23.362  0.00  0.00    +0.165 A 
ATOM      6  C   UNL     1       8.138  -1.664  22.259  0.00  0.00    +0.050 A 
ENDROOT
BRANCH   2   7
ATOM      7  C   UNL     1       9.154   1.685  23.661  0.00  0.00    +0.181 A 
ATOM      8  O   UNL     1      10.465   2.041  23.369  0.00  0.00    -0.451 OA
ATOM      9  C   UNL     1      10.854   3.352  23.465  0.00  0.00    +0.147 A 
ATOM     10  C   UNL     1       9.955   4.377  23.714  0.00  0.00    +0.109 A 
ATOM     11  C   UNL     1      10.406   5.700  23.780  0.00  0.00    +0.135 A 
ATOM     12  C   UNL     1      11.757   5.998  23.612  0.00  0.00    +0.091 A 
ATOM     13  C   UNL     1      12.650   4.962  23.370  0.00  0.00    +0.124 A 
ATOM     14  C   UNL     1       8.547   4.030  23.929  0.00  0.00    +0.238 A 
ATOM     15  O   UNL     1       7.728   4.928  24.111  0.00  0.00    -0.283 OA
ATOM     16  C   UNL     1      12.211   3.640  23.293  0.00  0.00    +0.092 A 
ATOM     17  C   UNL     1       8.187   2.584  23.963  0.00  0.00    +0.208 A 
BRANCH  11  18
ATOM     18  O   UNL     1       9.574   6.762  24.016  0.00  0.00    -0.506 OA
ATOM     19  H   UNL     1       8.692   6.404  24.266  0.00  0.00    +0.292 HD
ENDBRANCH  11  18
BRANCH  13  20
ATOM     20  O   UNL     1      13.985   5.198  23.205  0.00  0.00    -0.507 OA
ATOM     21  H   UNL     1      14.107   5.768  22.427  0.00  0.00    +0.292 HD
ENDBRANCH  13  20
BRANCH  17  22
ATOM     22  O   UNL     1       6.896   2.275  24.336  0.00  0.00    -0.501 OA
ATOM     23  H   UNL     1       6.875   1.364  24.676  0.00  0.00    +0.292 HD
ENDBRANCH  17  22
ENDBRANCH   2   7
BRANCH   4  24
ATOM     24  O   UNL     1       8.852  -2.836  25.640  0.00  0.00    -0.503 OA
ATOM     25  H   UNL     1       9.641  -2.505  26.111  0.00  0.00    +0.292 HD
ENDBRANCH   4  24
BRANCH   5  26
ATOM     26  O   UNL     1       7.619  -3.797  23.381  0.00  0.00    -0.457 OA
BRANCH  26  27
ATOM     27  C   UNL     1       6.232  -3.829  23.776  0.00  0.00    +0.339 C 
ATOM     28  O   UNL     1       6.094  -4.054  25.192  0.00  0.00    -0.331 OA
ATOM     29  C   UNL     1       6.344  -5.423  25.564  0.00  0.00    +0.179 C 
ATOM     30  C   UNL     1       5.113  -6.184  25.081  0.00  0.00    +0.177 C 
ATOM     31  C   UNL     1       5.137  -6.183  23.552  0.00  0.00    +0.180 C 
ATOM     32  C   UNL     1       5.311  -4.776  22.957  0.00  0.00    +0.214 C 
BRANCH  30  33
ATOM     33  O   UNL     1       3.909  -5.518  25.514  0.00  0.00    -0.386 OA
ATOM     34  H   UNL     1       3.153  -6.052  25.184  0.00  0.00    +0.210 HD
ENDBRANCH  30  33
BRANCH  31  35
ATOM     35  O   UNL     1       3.901  -6.733  23.066  0.00  0.00    -0.386 OA
ATOM     36  H   UNL     1       4.137  -7.267  22.278  0.00  0.00    +0.210 HD
ENDBRANCH  31  35
BRANCH  32  37
ATOM     37  O   UNL     1       5.702  -4.848  21.582  0.00  0.00    -0.383 OA
ATOM     38  H   UNL     1       5.452  -5.738  21.263  0.00  0.00    +0.210 HD
ENDBRANCH  32  37
BRANCH  29  39
ATOM     39  C   UNL     1       6.510  -5.512  27.086  0.00  0.00    +0.190 C 
BRANCH  39  40
ATOM     40  O   UNL     1       7.847  -5.867  27.438  0.00  0.00    -0.392 OA
ATOM     41  H   UNL     1       8.461  -5.349  26.892  0.00  0.00    +0.210 HD
ENDBRANCH  39  40
ENDBRANCH  29  39
ENDBRANCH  26  27
ENDBRANCH   5  26
TORSDOF 12
ENDMDL
MODEL 2
REMARK VINA RESULT:      -7.6      1.822      3.226
REMARK  Name = 
REMARK  12 active torsions:
REMARK  status: ('A' for Active; 'I' for Inactive)
REMARK    1  A    between atoms: C_3  and  O_22
REMARK    2  A    between atoms: C_4  and  O_21
REMARK    3  A    between atoms: C_6  and  C_7
REMARK    4  A    between atoms: C_8  and  O_20
REMARK    5  A    between atoms: C_12  and  O_19
REMARK    6  A    between atoms: C_14  and  O_18
REMARK    7  A    between atoms: O_22  and  C_23
REMARK    8  A    between atoms: C_24  and  O_33
REMARK    9  A    between atoms: C_25  and  O_32
REMARK   10  A    between atoms: C_26  and  O_31
REMARK   11  A    between atoms: C_27  and  C_29
REMARK   12  A    between atoms: C_29  and  O_30
REMARK                            x       y       z     vdW  Elec       q    Type
REMARK                         _______ _______ _______ _____ _____    ______ ____
ROOT
ATOM      1  C   UNL     1       6.449  -1.776  22.588  0.00  0.00    +0.015 A 
ATOM      2  C   UNL     1       7.775  -1.655  23.024  0.00  0.00    +0.025 A 
ATOM      3  C   UNL     1       8.426  -2.832  23.437  0.00  0.00    +0.060 A 
ATOM      4  C   UNL     1       7.746  -4.056  23.459  0.00  0.00    +0.159 A 
ATOM      5  C   UNL     1       6.391  -4.144  23.133  0.00  0.00    +0.165 A 
ATOM      6  C   UNL     1       5.774  -2.994  22.636  0.00  0.00    +0.050 A 
ENDROOT
BRANCH   2   7
ATOM      7  C   UNL     1       8.344  -0.279  23.123  0.00  0.00    +0.181 A 
ATOM      8  O   UNL     1       7.828   0.412  24.212  0.00  0.00    -0.451 OA
ATOM      9  C   UNL     1       8.173   1.722  24.415  0.00  0.00    +0.147 A 
ATOM     10  C   UNL     1       9.133   2.365  23.649  0.00  0.00    +0.109 A 
ATOM     11  C   UNL     1       9.460   3.700  23.915  0.00  0.00    +0.135 A 
ATOM     12  C   UNL     1       8.819   4.397  24.937  0.00  0.00    +0.091 A 
ATOM     13  C   UNL     1       7.854   3.744  25.694  0.00  0.00    +0.124 A 
ATOM     14  C   UNL     1       9.760   1.621  22.553  0.00  0.00    +0.238 A 
ATOM     15  O   UNL     1      10.642   2.160  21.887  0.00  0.00    -0.283 OA
ATOM     16  C   UNL     1       7.525   2.412  25.444  0.00  0.00    +0.092 A 
ATOM     17  C   UNL     1       9.256   0.248  22.270  0.00  0.00    +0.208 A 
BRANCH  11  18
ATOM     18  O   UNL     1      10.401   4.395  23.203  0.00  0.00    -0.506 OA
ATOM     19  H   UNL     1      10.670   3.839  22.437  0.00  0.00    +0.292 HD
ENDBRANCH  11  18
BRANCH  13  20
ATOM     20  O   UNL     1       7.190   4.383  26.703  0.00  0.00    -0.507 OA
ATOM     21  H   UNL     1       7.442   3.974  27.550  0.00  0.00    +0.292 HD
ENDBRANCH  13  20
BRANCH  17  22
ATOM     22  O   UNL     1       9.735  -0.368  21.132  0.00  0.00    -0.501 OA
ATOM     23  H   UNL     1       9.142  -1.101  20.896  0.00  0.00    +0.292 HD
ENDBRANCH  17  22
ENDBRANCH   2   7
BRANCH   4  24
ATOM     24  O   UNL     1       8.444  -5.170  23.843  0.00  0.00    -0.503 OA
ATOM     25  H   UNL     1       7.833  -5.690  24.400  0.00  0.00    +0.292 HD
ENDBRANCH   4  24
BRANCH   5  26
ATOM     26  O   UNL     1       5.740  -5.342  23.387  0.00  0.00    -0.457 OA
BRANCH  26  27
ATOM     27  C   UNL     1       4.649  -5.214  24.322  0.00  0.00    +0.339 C 
ATOM     28  O   UNL     1       5.117  -4.813  25.624  0.00  0.00    -0.331 OA
ATOM     29  C   UNL     1       5.751  -5.888  26.343  0.00  0.00    +0.179 C 
ATOM     30  C   UNL     1       4.601  -6.793  26.773  0.00  0.00    +0.177 C 
ATOM     31  C   UNL     1       4.029  -7.447  25.514  0.00  0.00    +0.180 C 
ATOM     32  C   UNL     1       3.684  -6.429  24.415  0.00  0.00    +0.214 C 
BRANCH  30  33
ATOM     33  O   UNL     1       3.555  -6.017  27.393  0.00  0.00    -0.386 OA
ATOM     34  H   UNL     1       3.993  -5.309  27.913  0.00  0.00    +0.210 HD
ENDBRANCH  30  33
BRANCH  31  35
ATOM     35  O   UNL     1       2.833  -8.163  25.863  0.00  0.00    -0.386 OA
ATOM     36  H   UNL     1       2.161  -7.479  26.068  0.00  0.00    +0.210 HD
ENDBRANCH  31  35
BRANCH  32  37
ATOM     37  O   UNL     1       3.517  -7.080  23.151  0.00  0.00    -0.383 OA
ATOM     38  H   UNL     1       3.725  -6.418  22.462  0.00  0.00    +0.210 HD
ENDBRANCH  32  37
BRANCH  29  39
ATOM     39  C   UNL     1       6.508  -5.315  27.547  0.00  0.00    +0.190 C 
BRANCH  39  40
ATOM     40  O   UNL     1       7.463  -6.251  28.047  0.00  0.00    -0.392 OA
ATOM     41  H   UNL     1       8.356  -5.913  27.864  0.00  0.00    +0.210 HD
ENDBRANCH  39  40
ENDBRANCH  29  39
ENDBRANCH  26  27
ENDBRANCH   5  26
TORSDOF 12
ENDMDL
MODEL 3
REMARK VINA RESULT:      -7.5      1.803      3.073
REMARK  Name = 
REMARK  12 active torsions:
REMARK  status: ('A' for Active; 'I' for Inactive)
REMARK    1  A    between atoms: C_3  and  O_22
REMARK    2  A    between atoms: C_4  and  O_21
REMARK    3  A    between atoms: C_6  and  C_7
REMARK    4  A    between atoms: C_8  and  O_20
REMARK    5  A    between atoms: C_12  and  O_19
REMARK    6  A    between atoms: C_14  and  O_18
REMARK    7  A    between atoms: O_22  and  C_23
REMARK    8  A    between atoms: C_24  and  O_33
REMARK    9  A    between atoms: C_25  and  O_32
REMARK   10  A    between atoms: C_26  and  O_31
REMARK   11  A    between atoms: C_27  and  C_29
REMARK   12  A    between atoms: C_29  and  O_30
REMARK                            x       y       z     vdW  Elec       q    Type
REMARK                         _______ _______ _______ _____ _____    ______ ____
ROOT
ATOM      1  C   UNL     1       7.956  -1.790  22.632  0.00  0.00    +0.015 A 
ATOM      2  C   UNL     1       8.345  -1.082  23.778  0.00  0.00    +0.025 A 
ATOM      3  C   UNL     1       8.367  -1.789  24.994  0.00  0.00    +0.060 A 
ATOM      4  C   UNL     1       7.960  -3.128  25.051  0.00  0.00    +0.159 A 
ATOM      5  C   UNL     1       7.464  -3.788  23.925  0.00  0.00    +0.165 A 
ATOM      6  C   UNL     1       7.530  -3.115  22.704  0.00  0.00    +0.050 A 
ENDROOT
BRANCH   2   7
ATOM      7  C   UNL     1       8.590   0.383  23.630  0.00  0.00    +0.181 A 
ATOM      8  O   UNL     1       7.408   1.081  23.420  0.00  0.00    -0.451 OA
ATOM      9  C   UNL     1       7.445   2.430  23.179  0.00  0.00    +0.147 A 
ATOM     10  C   UNL     1       8.615   3.169  23.269  0.00  0.00    +0.109 A 
ATOM     11  C   UNL     1       8.589   4.548  23.033  0.00  0.00    +0.135 A 
ATOM     12  C   UNL     1       7.399   5.188  22.693  0.00  0.00    +0.091 A 
ATOM     13  C   UNL     1       6.234   4.436  22.598  0.00  0.00    +0.124 A 
ATOM     14  C   UNL     1       9.859   2.463  23.586  0.00  0.00    +0.238 A 
ATOM     15  O   UNL     1      10.900   3.105  23.711  0.00  0.00    -0.283 OA
ATOM     16  C   UNL     1       6.245   3.062  22.840  0.00  0.00    +0.092 A 
ATOM     17  C   UNL     1       9.806   0.977  23.697  0.00  0.00    +0.208 A 
BRANCH  11  18
ATOM     18  O   UNL     1       9.704   5.339  23.110  0.00  0.00    -0.506 OA
ATOM     19  H   UNL     1      10.026   5.497  22.194  0.00  0.00    +0.292 HD
ENDBRANCH  11  18
BRANCH  13  20
ATOM     20  O   UNL     1       5.042   5.011  22.261  0.00  0.00    -0.507 OA
ATOM     21  H   UNL     1       4.511   4.362  21.767  0.00  0.00    +0.292 HD
ENDBRANCH  13  20
BRANCH  17  22
ATOM     22  O   UNL     1      11.011   0.320  23.824  0.00  0.00    -0.501 OA
ATOM     23  H   UNL     1      10.841  -0.614  24.033  0.00  0.00    +0.292 HD
ENDBRANCH  17  22
ENDBRANCH   2   7
BRANCH   4  24
ATOM     24  O   UNL     1       8.032  -3.768  26.260  0.00  0.00    -0.503 OA
ATOM     25  H   UNL     1       8.806  -4.361  26.202  0.00  0.00    +0.292 HD
ENDBRANCH   4  24
BRANCH   5  26
ATOM     26  O   UNL     1       6.883  -5.034  24.110  0.00  0.00    -0.457 OA
BRANCH  26  27
ATOM     27  C   UNL     1       5.468  -4.969  24.390  0.00  0.00    +0.339 C 
ATOM     28  O   UNL     1       5.211  -5.027  25.806  0.00  0.00    -0.331 OA
ATOM     29  C   UNL     1       5.368  -6.352  26.347  0.00  0.00    +0.179 C 
ATOM     30  C   UNL     1       4.145  -7.117  25.851  0.00  0.00    +0.177 C 
ATOM     31  C   UNL     1       4.288  -7.292  24.339  0.00  0.00    +0.180 C 
ATOM     32  C   UNL     1       4.572  -5.970  23.608  0.00  0.00    +0.214 C 
BRANCH  30  33
ATOM     33  O   UNL     1       2.942  -6.363  26.106  0.00  0.00    -0.386 OA
ATOM     34  H   UNL     1       3.201  -5.585  26.646  0.00  0.00    +0.210 HD
ENDBRANCH  30  33
BRANCH  31  35
ATOM     35  O   UNL     1       3.070  -7.849  23.816  0.00  0.00    -0.386 OA
ATOM     36  H   UNL     1       2.541  -8.114  24.597  0.00  0.00    +0.210 HD
ENDBRANCH  31  35
BRANCH  32  37
ATOM     37  O   UNL     1       5.066  -6.213  22.286  0.00  0.00    -0.383 OA
ATOM     38  H   UNL     1       4.330  -6.025  21.670  0.00  0.00    +0.210 HD
ENDBRANCH  32  37
BRANCH  29  39
ATOM     39  C   UNL     1       5.410  -6.273  27.878  0.00  0.00    +0.190 C 
BRANCH  39  40
ATOM     40  O   UNL     1       5.433  -7.576  28.460  0.00  0.00    -0.392 OA
ATOM     41  H   UNL     1       4.801  -8.141  27.986  0.00  0.00    +0.210 HD
ENDBRANCH  39  40
ENDBRANCH  29  39
ENDBRANCH  26  27
ENDBRANCH   5  26
TORSDOF 12
ENDMDL
MODEL 4
REMARK VINA RESULT:      -7.2      1.335      1.550
REMARK  Name = 
REMARK  12 active torsions:
REMARK  status: ('A' for Active; 'I' for Inactive)
REMARK    1  A    between atoms: C_3  and  O_22
REMARK    2  A    between atoms: C_4  and  O_21
REMARK    3  A    between atoms: C_6  and  C_7
REMARK    4  A    between atoms: C_8  and  O_20
REMARK    5  A    between atoms: C_12  and  O_19
REMARK    6  A    between atoms: C_14  and  O_18
REMARK    7  A    between atoms: O_22  and  C_23
REMARK    8  A    between atoms: C_24  and  O_33
REMARK    9  A    between atoms: C_25  and  O_32
REMARK   10  A    between atoms: C_26  and  O_31
REMARK   11  A    between atoms: C_27  and  C_29
REMARK   12  A    between atoms: C_29  and  O_30
REMARK                            x       y       z     vdW  Elec       q    Type
REMARK                         _______ _______ _______ _____ _____    ______ ____
ROOT
ATOM      1  C   UNL     1       7.365  -1.279  22.639  0.00  0.00    +0.015 A 
ATOM      2  C   UNL     1       7.833  -0.664  23.808  0.00  0.00    +0.025 A 
ATOM      3  C   UNL     1       8.039  -1.487  24.930  0.00  0.00    +0.060 A 
ATOM      4  C   UNL     1       7.731  -2.852  24.882  0.00  0.00    +0.159 A 
ATOM      5  C   UNL     1       7.156  -3.431  23.749  0.00  0.00    +0.165 A 
ATOM      6  C   UNL     1       7.039  -2.634  22.609  0.00  0.00    +0.050 A 
ENDROOT
BRANCH   2   7
ATOM      7  C   UNL     1       7.961   0.823  23.797  0.00  0.00    +0.181 A 
ATOM      8  O   UNL     1       9.267   1.223  23.547  0.00  0.00    -0.451 OA
ATOM      9  C   UNL     1       9.593   2.554  23.582  0.00  0.00    +0.147 A 
ATOM     10  C   UNL     1       8.638   3.549  23.727  0.00  0.00    +0.109 A 
ATOM     11  C   UNL     1       9.027   4.894  23.735  0.00  0.00    +0.135 A 
ATOM     12  C   UNL     1      10.369   5.245  23.613  0.00  0.00    +0.091 A 
ATOM     13  C   UNL     1      11.318   4.239  23.476  0.00  0.00    +0.124 A 
ATOM     14  C   UNL     1       7.238   3.149  23.896  0.00  0.00    +0.238 A 
ATOM     15  O   UNL     1       6.372   4.016  23.985  0.00  0.00    -0.283 OA
ATOM     16  C   UNL     1      10.943   2.896  23.457  0.00  0.00    +0.092 A 
ATOM     17  C   UNL     1       6.941   1.692  23.999  0.00  0.00    +0.208 A 
BRANCH  11  18
ATOM     18  O   UNL     1       8.138   5.927  23.868  0.00  0.00    -0.506 OA
ATOM     19  H   UNL     1       7.916   6.251  22.966  0.00  0.00    +0.292 HD
ENDBRANCH  11  18
BRANCH  13  20
ATOM     20  O   UNL     1      12.649   4.528  23.360  0.00  0.00    -0.507 OA
ATOM     21  H   UNL     1      13.111   3.738  23.029  0.00  0.00    +0.292 HD
ENDBRANCH  13  20
BRANCH  17  22
ATOM     22  O   UNL     1       5.648   1.344  24.330  0.00  0.00    -0.501 OA
ATOM     23  H   UNL     1       5.286   0.775  23.630  0.00  0.00    +0.292 HD
ENDBRANCH  17  22
ENDBRANCH   2   7
BRANCH   4  24
ATOM     24  O   UNL     1       7.982  -3.604  25.998  0.00  0.00    -0.503 OA
ATOM     25  H   UNL     1       8.585  -3.070  26.551  0.00  0.00    +0.292 HD
ENDBRANCH   4  24
BRANCH   5  26
ATOM     26  O   UNL     1       6.684  -4.731  23.855  0.00  0.00    -0.457 OA
BRANCH  26  27
ATOM     27  C   UNL     1       5.301  -4.805  24.263  0.00  0.00    +0.339 C 
ATOM     28  O   UNL     1       5.182  -4.948  25.691  0.00  0.00    -0.331 OA
ATOM     29  C   UNL     1       5.501  -6.276  26.147  0.00  0.00    +0.179 C 
ATOM     30  C   UNL     1       4.307  -7.125  25.723  0.00  0.00    +0.177 C 
ATOM     31  C   UNL     1       4.323  -7.220  24.196  0.00  0.00    +0.180 C 
ATOM     32  C   UNL     1       4.424  -5.846  23.513  0.00  0.00    +0.214 C 
BRANCH  30  33
ATOM     33  O   UNL     1       3.073  -6.493  26.122  0.00  0.00    -0.386 OA
ATOM     34  H   UNL     1       3.274  -5.545  26.276  0.00  0.00    +0.210 HD
ENDBRANCH  30  33
BRANCH  31  35
ATOM     35  O   UNL     1       3.113  -7.859  23.756  0.00  0.00    -0.386 OA
ATOM     36  H   UNL     1       3.074  -7.718  22.786  0.00  0.00    +0.210 HD
ENDBRANCH  31  35
BRANCH  32  37
ATOM     37  O   UNL     1       4.811  -5.986  22.141  0.00  0.00    -0.383 OA
ATOM     38  H   UNL     1       3.988  -5.993  21.614  0.00  0.00    +0.210 HD
ENDBRANCH  32  37
BRANCH  29  39
ATOM     39  C   UNL     1       5.679  -6.261  27.670  0.00  0.00    +0.190 C 
BRANCH  39  40
ATOM     40  O   UNL     1       5.318  -7.517  28.243  0.00  0.00    -0.392 OA
ATOM     41  H   UNL     1       5.512  -7.493  29.194  0.00  0.00    +0.210 HD
ENDBRANCH  39  40
ENDBRANCH  29  39
ENDBRANCH  26  27
ENDBRANCH   5  26
TORSDOF 12
ENDMDL
MODEL 5
REMARK VINA RESULT:      -7.2      1.295      9.992
REMARK  Name = 
REMARK  12 active torsions:
REMARK  status: ('A' for Active; 'I' for Inactive)
REMARK    1  A    between atoms: C_3  and  O_22
REMARK    2  A    between atoms: C_4  and  O_21
REMARK    3  A    between atoms: C_6  and  C_7
REMARK    4  A    between atoms: C_8  and  O_20
REMARK    5  A    between atoms: C_12  and  O_19
REMARK    6  A    between atoms: C_14  and  O_18
REMARK    7  A    between atoms: O_22  and  C_23
REMARK    8  A    between atoms: C_24  and  O_33
REMARK    9  A    between atoms: C_25  and  O_32
REMARK   10  A    between atoms: C_26  and  O_31
REMARK   11  A    between atoms: C_27  and  C_29
REMARK   12  A    between atoms: C_29  and  O_30
REMARK                            x       y       z     vdW  Elec       q    Type
REMARK                         _______ _______ _______ _____ _____    ______ ____
ROOT
ATOM      1  C   UNL     1       8.351  -1.461  25.450  0.00  0.00    +0.015 A 
ATOM      2  C   UNL     1       8.142  -2.016  24.180  0.00  0.00    +0.025 A 
ATOM      3  C   UNL     1       8.786  -1.398  23.093  0.00  0.00    +0.060 A 
ATOM      4  C   UNL     1       9.555  -0.242  23.281  0.00  0.00    +0.159 A 
ATOM      5  C   UNL     1       9.661   0.369  24.531  0.00  0.00    +0.165 A 
ATOM      6  C   UNL     1       9.098  -0.297  25.622  0.00  0.00    +0.050 A 
ENDROOT
BRANCH   2   7
ATOM      7  C   UNL     1       7.166  -3.141  24.074  0.00  0.00    +0.181 A 
ATOM      8  O   UNL     1       6.957  -3.756  25.302  0.00  0.00    -0.451 OA
ATOM      9  C   UNL     1       6.155  -4.864  25.383  0.00  0.00    +0.147 A 
ATOM     10  C   UNL     1       5.421  -5.330  24.303  0.00  0.00    +0.109 A 
ATOM     11  C   UNL     1       4.601  -6.455  24.450  0.00  0.00    +0.135 A 
ATOM     12  C   UNL     1       4.524  -7.122  25.671  0.00  0.00    +0.091 A 
ATOM     13  C   UNL     1       5.269  -6.650  26.744  0.00  0.00    +0.124 A 
ATOM     14  C   UNL     1       5.554  -4.635  23.020  0.00  0.00    +0.238 A 
ATOM     15  O   UNL     1       4.882  -5.008  22.061  0.00  0.00    -0.283 OA
ATOM     16  C   UNL     1       6.084  -5.525  26.613  0.00  0.00    +0.092 A 
ATOM     17  C   UNL     1       6.546  -3.525  22.932  0.00  0.00    +0.208 A 
BRANCH  11  18
ATOM     18  O   UNL     1       3.845  -6.967  23.429  0.00  0.00    -0.506 OA
ATOM     19  H   UNL     1       3.515  -6.212  22.892  0.00  0.00    +0.292 HD
ENDBRANCH  11  18
BRANCH  13  20
ATOM     20  O   UNL     1       5.237  -7.271  27.961  0.00  0.00    -0.507 OA
ATOM     21  H   UNL     1       5.877  -6.836  28.550  0.00  0.00    +0.292 HD
ENDBRANCH  13  20
BRANCH  17  22
ATOM     22  O   UNL     1       6.780  -3.000  21.679  0.00  0.00    -0.501 OA
ATOM     23  H   UNL     1       6.066  -2.378  21.459  0.00  0.00    +0.292 HD
ENDBRANCH  17  22
ENDBRANCH   2   7
BRANCH   4  24
ATOM     24  O   UNL     1      10.180   0.295  22.187  0.00  0.00    -0.503 OA
ATOM     25  H   UNL     1       9.652   1.078  21.935  0.00  0.00    +0.292 HD
ENDBRANCH   4  24
BRANCH   5  26
ATOM     26  O   UNL     1      10.256   1.621  24.592  0.00  0.00    -0.457 OA
BRANCH  26  27
ATOM     27  C   UNL     1       9.606   2.604  23.760  0.00  0.00    +0.339 C 
ATOM     28  O   UNL     1      10.562   3.359  22.994  0.00  0.00    -0.331 OA
ATOM     29  C   UNL     1      11.265   4.335  23.786  0.00  0.00    +0.179 C 
ATOM     30  C   UNL     1      10.240   5.436  24.038  0.00  0.00    +0.177 C 
ATOM     31  C   UNL     1       9.170   4.870  24.972  0.00  0.00    +0.180 C 
ATOM     32  C   UNL     1       8.588   3.536  24.475  0.00  0.00    +0.214 C 
BRANCH  30  33
ATOM     33  O   UNL     1       9.602   5.822  22.803  0.00  0.00    -0.386 OA
ATOM     34  H   UNL     1       9.325   4.994  22.353  0.00  0.00    +0.210 HD
ENDBRANCH  30  33
BRANCH  31  35
ATOM     35  O   UNL     1       8.097   5.821  25.083  0.00  0.00    -0.386 OA
ATOM     36  H   UNL     1       7.834   6.036  24.164  0.00  0.00    +0.210 HD
ENDBRANCH  31  35
BRANCH  32  37
ATOM     37  O   UNL     1       7.889   2.861  25.527  0.00  0.00    -0.383 OA
ATOM     38  H   UNL     1       7.387   2.133  25.112  0.00  0.00    +0.210 HD
ENDBRANCH  32  37
BRANCH  29  39
ATOM     39  C   UNL     1      12.476   4.851  22.999  0.00  0.00    +0.190 C 
BRANCH  39  40
ATOM     40  O   UNL     1      13.254   5.754  23.785  0.00  0.00    -0.392 OA
ATOM     41  H   UNL     1      13.148   6.651  23.426  0.00  0.00    +0.210 HD
ENDBRANCH  39  40
ENDBRANCH  29  39
ENDBRANCH  26  27
ENDBRANCH   5  26
TORSDOF 12
ENDMDL
MODEL 6
REMARK VINA RESULT:      -7.1      1.558      2.732
REMARK  Name = 
REMARK  12 active torsions:
REMARK  status: ('A' for Active; 'I' for Inactive)
REMARK    1  A    between atoms: C_3  and  O_22
REMARK    2  A    between atoms: C_4  and  O_21
REMARK    3  A    between atoms: C_6  and  C_7
REMARK    4  A    between atoms: C_8  and  O_20
REMARK    5  A    between atoms: C_12  and  O_19
REMARK    6  A    between atoms: C_14  and  O_18
REMARK    7  A    between atoms: O_22  and  C_23
REMARK    8  A    between atoms: C_24  and  O_33
REMARK    9  A    between atoms: C_25  and  O_32
REMARK   10  A    between atoms: C_26  and  O_31
REMARK   11  A    between atoms: C_27  and  C_29
REMARK   12  A    between atoms: C_29  and  O_30
REMARK                            x       y       z     vdW  Elec       q    Type
REMARK                         _______ _______ _______ _____ _____    ______ ____
ROOT
ATOM      1  C   UNL     1       7.484   0.297  22.919  0.00  0.00    +0.015 A 
ATOM      2  C   UNL     1       8.735   0.617  23.464  0.00  0.00    +0.025 A 
ATOM      3  C   UNL     1       9.616  -0.448  23.722  0.00  0.00    +0.060 A 
ATOM      4  C   UNL     1       9.224  -1.773  23.491  0.00  0.00    +0.159 A 
ATOM      5  C   UNL     1       7.935  -2.088  23.057  0.00  0.00    +0.165 A 
ATOM      6  C   UNL     1       7.095  -1.026  22.715  0.00  0.00    +0.050 A 
ENDROOT
BRANCH   2   7
ATOM      7  C   UNL     1       8.980   2.043  23.831  0.00  0.00    +0.181 A 
ATOM      8  O   UNL     1       8.211   2.431  24.921  0.00  0.00    -0.451 OA
ATOM      9  C   UNL     1       8.241   3.733  25.349  0.00  0.00    +0.147 A 
ATOM     10  C   UNL     1       9.119   4.668  24.822  0.00  0.00    +0.109 A 
ATOM     11  C   UNL     1       9.119   5.979  25.314  0.00  0.00    +0.135 A 
ATOM     12  C   UNL     1       8.235   6.359  26.321  0.00  0.00    +0.091 A 
ATOM     13  C   UNL     1       7.355   5.415  26.836  0.00  0.00    +0.124 A 
ATOM     14  C   UNL     1      10.008   4.251  23.735  0.00  0.00    +0.238 A 
ATOM     15  O   UNL     1      10.821   5.053  23.282  0.00  0.00    -0.283 OA
ATOM     16  C   UNL     1       7.350   4.104  26.361  0.00  0.00    +0.092 A 
ATOM     17  C   UNL     1       9.845   2.871  23.197  0.00  0.00    +0.208 A 
BRANCH  11  18
ATOM     18  O   UNL     1       9.962   6.951  24.845  0.00  0.00    -0.506 OA
ATOM     19  H   UNL     1      10.058   7.632  25.549  0.00  0.00    +0.292 HD
ENDBRANCH  11  18
BRANCH  13  20
ATOM     20  O   UNL     1       6.462   5.737  27.819  0.00  0.00    -0.507 OA
ATOM     21  H   UNL     1       6.925   6.249  28.505  0.00  0.00    +0.292 HD
ENDBRANCH  13  20
BRANCH  17  22
ATOM     22  O   UNL     1      10.568   2.556  22.065  0.00  0.00    -0.501 OA
ATOM     23  H   UNL     1       9.951   2.367  21.338  0.00  0.00    +0.292 HD
ENDBRANCH  17  22
ENDBRANCH   2   7
BRANCH   4  24
ATOM     24  O   UNL     1      10.139  -2.763  23.735  0.00  0.00    -0.503 OA
ATOM     25  H   UNL     1      10.807  -2.369  24.330  0.00  0.00    +0.292 HD
ENDBRANCH   4  24
BRANCH   5  26
ATOM     26  O   UNL     1       7.558  -3.423  23.061  0.00  0.00    -0.457 OA
BRANCH  26  27
ATOM     27  C   UNL     1       6.238  -3.643  23.600  0.00  0.00    +0.339 C 
ATOM     28  O   UNL     1       6.268  -3.755  25.035  0.00  0.00    -0.331 OA
ATOM     29  C   UNL     1       6.782  -5.024  25.484  0.00  0.00    +0.179 C 
ATOM     30  C   UNL     1       5.662  -6.017  25.191  0.00  0.00    +0.177 C 
ATOM     31  C   UNL     1       5.548  -6.155  23.672  0.00  0.00    +0.180 C 
ATOM     32  C   UNL     1       5.424  -4.800  22.957  0.00  0.00    +0.214 C 
BRANCH  30  33
ATOM     33  O   UNL     1       4.404  -5.520  25.694  0.00  0.00    -0.386 OA
ATOM     34  H   UNL     1       4.096  -4.832  25.065  0.00  0.00    +0.210 HD
ENDBRANCH  30  33
BRANCH  31  35
ATOM     35  O   UNL     1       4.386  -6.942  23.361  0.00  0.00    -0.386 OA
ATOM     36  H   UNL     1       3.941  -7.112  24.218  0.00  0.00    +0.210 HD
ENDBRANCH  31  35
BRANCH  32  37
ATOM     37  O   UNL     1       5.696  -4.936  21.557  0.00  0.00    -0.383 OA
ATOM     38  H   UNL     1       4.833  -4.941  21.100  0.00  0.00    +0.210 HD
ENDBRANCH  32  37
BRANCH  29  39
ATOM     39  C   UNL     1       7.097  -4.943  26.982  0.00  0.00    +0.190 C 
BRANCH  39  40
ATOM     40  O   UNL     1       7.943  -6.017  27.390  0.00  0.00    -0.392 OA
ATOM     41  H   UNL     1       7.598  -6.390  28.218  0.00  0.00    +0.210 HD
ENDBRANCH  39  40
ENDBRANCH  29  39
ENDBRANCH  26  27
ENDBRANCH   5  26
TORSDOF 12
ENDMDL
MODEL 7
REMARK VINA RESULT:      -7.1      1.733      9.444
REMARK  Name = 
REMARK  12 active torsions:
REMARK  status: ('A' for Active; 'I' for Inactive)
REMARK    1  A    between atoms: C_3  and  O_22
REMARK    2  A    between atoms: C_4  and  O_21
REMARK    3  A    between atoms: C_6  and  C_7
REMARK    4  A    between atoms: C_8  and  O_20
REMARK    5  A    between atoms: C_12  and  O_19
REMARK    6  A    between atoms: C_14  and  O_18
REMARK    7  A    between atoms: O_22  and  C_23
REMARK    8  A    between atoms: C_24  and  O_33
REMARK    9  A    between atoms: C_25  and  O_32
REMARK   10  A    between atoms: C_26  and  O_31
REMARK   11  A    between atoms: C_27  and  C_29
REMARK   12  A    between atoms: C_29  and  O_30
REMARK                            x       y       z     vdW  Elec       q    Type
REMARK                         _______ _______ _______ _____ _____    ______ ____
ROOT
ATOM      1  C   UNL     1       8.621  -2.318  24.699  0.00  0.00    +0.015 A 
ATOM      2  C   UNL     1       8.017  -2.801  23.529  0.00  0.00    +0.025 A 
ATOM      3  C   UNL     1       8.358  -2.167  22.320  0.00  0.00    +0.060 A 
ATOM      4  C   UNL     1       9.222  -1.065  22.309  0.00  0.00    +0.159 A 
ATOM      5  C   UNL     1       9.726  -0.521  23.492  0.00  0.00    +0.165 A 
ATOM      6  C   UNL     1       9.461  -1.206  24.679  0.00  0.00    +0.050 A 
ENDROOT
BRANCH   2   7
ATOM      7  C   UNL     1       6.981  -3.864  23.680  0.00  0.00    +0.181 A 
ATOM      8  O   UNL     1       6.876  -4.295  24.996  0.00  0.00    -0.451 OA
ATOM      9  C   UNL     1       6.032  -5.328  25.311  0.00  0.00    +0.147 A 
ATOM     10  C   UNL     1       5.164  -5.887  24.386  0.00  0.00    +0.109 A 
ATOM     11  C   UNL     1       4.310  -6.927  24.771  0.00  0.00    +0.135 A 
ATOM     12  C   UNL     1       4.332  -7.419  26.074  0.00  0.00    +0.091 A 
ATOM     13  C   UNL     1       5.212  -6.856  26.991  0.00  0.00    +0.124 A 
ATOM     14  C   UNL     1       5.192  -5.379  23.012  0.00  0.00    +0.238 A 
ATOM     15  O   UNL     1       4.402  -5.833  22.187  0.00  0.00    -0.283 OA
ATOM     16  C   UNL     1       6.062  -5.813  26.623  0.00  0.00    +0.092 A 
ATOM     17  C   UNL     1       6.223  -4.358  22.671  0.00  0.00    +0.208 A 
BRANCH  11  18
ATOM     18  O   UNL     1       3.423  -7.521  23.912  0.00  0.00    -0.506 OA
ATOM     19  H   UNL     1       3.691  -8.462  23.805  0.00  0.00    +0.292 HD
ENDBRANCH  11  18
BRANCH  13  20
ATOM     20  O   UNL     1       5.279  -7.305  28.279  0.00  0.00    -0.507 OA
ATOM     21  H   UNL     1       4.449  -7.077  28.733  0.00  0.00    +0.292 HD
ENDBRANCH  13  20
BRANCH  17  22
ATOM     22  O   UNL     1       6.346  -4.021  21.339  0.00  0.00    -0.501 OA
ATOM     23  H   UNL     1       7.284  -4.066  21.088  0.00  0.00    +0.292 HD
ENDBRANCH  17  22
ENDBRANCH   2   7
BRANCH   4  24
ATOM     24  O   UNL     1       9.537  -0.512  21.097  0.00  0.00    -0.503 OA
ATOM     25  H   UNL     1       9.540   0.455  21.237  0.00  0.00    +0.292 HD
ENDBRANCH   4  24
BRANCH   5  26
ATOM     26  O   UNL     1      10.394   0.692  23.413  0.00  0.00    -0.457 OA
BRANCH  26  27
ATOM     27  C   UNL     1       9.822   1.716  24.254  0.00  0.00    +0.339 C 
ATOM     28  O   UNL     1       8.489   1.368  24.672  0.00  0.00    -0.331 OA
ATOM     29  C   UNL     1       7.515   1.532  23.624  0.00  0.00    +0.179 C 
ATOM     30  C   UNL     1       7.338   3.041  23.497  0.00  0.00    +0.177 C 
ATOM     31  C   UNL     1       8.634   3.615  22.922  0.00  0.00    +0.180 C 
ATOM     32  C   UNL     1       9.883   3.167  23.698  0.00  0.00    +0.214 C 
BRANCH  30  33
ATOM     33  O   UNL     1       7.120   3.633  24.795  0.00  0.00    -0.386 OA
ATOM     34  H   UNL     1       6.193   3.956  24.810  0.00  0.00    +0.210 HD
ENDBRANCH  30  33
BRANCH  31  35
ATOM     35  O   UNL     1       8.566   5.051  22.959  0.00  0.00    -0.386 OA
ATOM     36  H   UNL     1       9.495   5.362  22.971  0.00  0.00    +0.210 HD
ENDBRANCH  31  35
BRANCH  32  37
ATOM     37  O   UNL     1      11.070   3.400  22.933  0.00  0.00    -0.383 OA
ATOM     38  H   UNL     1      11.555   4.123  23.376  0.00  0.00    +0.210 HD
ENDBRANCH  32  37
BRANCH  29  39
ATOM     39  C   UNL     1       6.211   0.835  24.030  0.00  0.00    +0.190 C 
BRANCH  39  40
ATOM     40  O   UNL     1       5.085   1.686  23.816  0.00  0.00    -0.392 OA
ATOM     41  H   UNL     1       4.679   1.888  24.676  0.00  0.00    +0.210 HD
ENDBRANCH  39  40
ENDBRANCH  29  39
ENDBRANCH  26  27
ENDBRANCH   5  26
TORSDOF 12
ENDMDL
MODEL 8
REMARK VINA RESULT:      -7.0      2.214      9.885
REMARK  Name = 
REMARK  12 active torsions:
REMARK  status: ('A' for Active; 'I' for Inactive)
REMARK    1  A    between atoms: C_3  and  O_22
REMARK    2  A    between atoms: C_4  and  O_21
REMARK    3  A    between atoms: C_6  and  C_7
REMARK    4  A    between atoms: C_8  and  O_20
REMARK    5  A    between atoms: C_12  and  O_19
REMARK    6  A    between atoms: C_14  and  O_18
REMARK    7  A    between atoms: O_22  and  C_23
REMARK    8  A    between atoms: C_24  and  O_33
REMARK    9  A    between atoms: C_25  and  O_32
REMARK   10  A    between atoms: C_26  and  O_31
REMARK   11  A    between atoms: C_27  and  C_29
REMARK   12  A    between atoms: C_29  and  O_30
REMARK                            x       y       z     vdW  Elec       q    Type
REMARK                         _______ _______ _______ _____ _____    ______ ____
ROOT
ATOM      1  C   UNL     1       5.414  -1.160  25.659  0.00  0.00    +0.015 A 
ATOM      2  C   UNL     1       6.153  -2.276  26.077  0.00  0.00    +0.025 A 
ATOM      3  C   UNL     1       7.466  -2.047  26.527  0.00  0.00    +0.060 A 
ATOM      4  C   UNL     1       8.018  -0.760  26.499  0.00  0.00    +0.159 A 
ATOM      5  C   UNL     1       7.313   0.325  25.972  0.00  0.00    +0.165 A 
ATOM      6  C   UNL     1       5.981   0.112  25.613  0.00  0.00    +0.050 A 
ENDROOT
BRANCH   2   7
ATOM      7  C   UNL     1       5.527  -3.619  25.902  0.00  0.00    +0.181 A 
ATOM      8  O   UNL     1       4.652  -3.640  24.823  0.00  0.00    -0.451 OA
ATOM      9  C   UNL     1       3.920  -4.768  24.559  0.00  0.00    +0.147 A 
ATOM     10  C   UNL     1       4.112  -5.956  25.247  0.00  0.00    +0.109 A 
ATOM     11  C   UNL     1       3.350  -7.084  24.919  0.00  0.00    +0.135 A 
ATOM     12  C   UNL     1       2.386  -7.021  23.915  0.00  0.00    +0.091 A 
ATOM     13  C   UNL     1       2.198  -5.823  23.237  0.00  0.00    +0.124 A 
ATOM     14  C   UNL     1       5.102  -5.982  26.327  0.00  0.00    +0.238 A 
ATOM     15  O   UNL     1       5.316  -7.035  26.922  0.00  0.00    -0.283 OA
ATOM     16  C   UNL     1       2.957  -4.695  23.548  0.00  0.00    +0.092 A 
ATOM     17  C   UNL     1       5.773  -4.699  26.683  0.00  0.00    +0.208 A 
BRANCH  11  18
ATOM     18  O   UNL     1       3.491  -8.290  25.553  0.00  0.00    -0.506 OA
ATOM     19  H   UNL     1       3.115  -8.201  26.457  0.00  0.00    +0.292 HD
ENDBRANCH  11  18
BRANCH  13  20
ATOM     20  O   UNL     1       1.261  -5.705  22.249  0.00  0.00    -0.507 OA
ATOM     21  H   UNL     1       0.511  -6.287  22.460  0.00  0.00    +0.292 HD
ENDBRANCH  13  20
BRANCH  17  22
ATOM     22  O   UNL     1       6.569  -4.706  27.809  0.00  0.00    -0.501 OA
ATOM     23  H   UNL     1       6.199  -5.333  28.453  0.00  0.00    +0.292 HD
ENDBRANCH  17  22
ENDBRANCH   2   7
BRANCH   4  24
ATOM     24  O   UNL     1       9.291  -0.599  26.977  0.00  0.00    -0.503 OA
ATOM     25  H   UNL     1       9.225  -0.691  27.948  0.00  0.00    +0.292 HD
ENDBRANCH   4  24
BRANCH   5  26
ATOM     26  O   UNL     1       8.003   1.513  25.780  0.00  0.00    -0.457 OA
BRANCH  26  27
ATOM     27  C   UNL     1       8.020   1.949  24.405  0.00  0.00    +0.339 C 
ATOM     28  O   UNL     1       8.491   0.908  23.529  0.00  0.00    -0.331 OA
ATOM     29  C   UNL     1       9.917   0.723  23.601  0.00  0.00    +0.179 C 
ATOM     30  C   UNL     1      10.499   1.929  22.871  0.00  0.00    +0.177 C 
ATOM     31  C   UNL     1      10.221   3.167  23.724  0.00  0.00    +0.180 C 
ATOM     32  C   UNL     1       8.743   3.297  24.126  0.00  0.00    +0.214 C 
BRANCH  30  33
ATOM     33  O   UNL     1       9.850   2.106  21.595  0.00  0.00    -0.386 OA
ATOM     34  H   UNL     1       8.989   1.636  21.644  0.00  0.00    +0.210 HD
ENDBRANCH  30  33
BRANCH  31  35
ATOM     35  O   UNL     1      10.595   4.339  22.981  0.00  0.00    -0.386 OA
ATOM     36  H   UNL     1      10.971   4.964  23.637  0.00  0.00    +0.210 HD
ENDBRANCH  31  35
BRANCH  32  37
ATOM     37  O   UNL     1       8.587   4.223  25.206  0.00  0.00    -0.383 OA
ATOM     38  H   UNL     1       7.996   3.800  25.860  0.00  0.00    +0.210 HD
ENDBRANCH  32  37
BRANCH  29  39
ATOM     39  C   UNL     1      10.293  -0.596  22.915  0.00  0.00    +0.190 C 
BRANCH  39  40
ATOM     40  O   UNL     1       9.892  -0.597  21.545  0.00  0.00    -0.392 OA
ATOM     41  H   UNL     1       9.657   0.310  21.289  0.00  0.00    +0.210 HD
ENDBRANCH  39  40
ENDBRANCH  29  39
ENDBRANCH  26  27
ENDBRANCH   5  26
TORSDOF 12
ENDMDL
MODEL 9
REMARK VINA RESULT:      -7.0      1.413      9.690
REMARK  Name = 
REMARK  12 active torsions:
REMARK  status: ('A' for Active; 'I' for Inactive)
REMARK    1  A    between atoms: C_3  and  O_22
REMARK    2  A    between atoms: C_4  and  O_21
REMARK    3  A    between atoms: C_6  and  C_7
REMARK    4  A    between atoms: C_8  and  O_20
REMARK    5  A    between atoms: C_12  and  O_19
REMARK    6  A    between atoms: C_14  and  O_18
REMARK    7  A    between atoms: O_22  and  C_23
REMARK    8  A    between atoms: C_24  and  O_33
REMARK    9  A    between atoms: C_25  and  O_32
REMARK   10  A    between atoms: C_26  and  O_31
REMARK   11  A    between atoms: C_27  and  C_29
REMARK   12  A    between atoms: C_29  and  O_30
REMARK                            x       y       z     vdW  Elec       q    Type
REMARK                         _______ _______ _______ _____ _____    ______ ____
ROOT
ATOM      1  C   UNL     1       9.471  -1.341  24.117  0.00  0.00    +0.015 A 
ATOM      2  C   UNL     1       8.107  -1.587  23.912  0.00  0.00    +0.025 A 
ATOM      3  C   UNL     1       7.377  -0.615  23.203  0.00  0.00    +0.060 A 
ATOM      4  C   UNL     1       7.990   0.569  22.776  0.00  0.00    +0.159 A 
ATOM      5  C   UNL     1       9.321   0.856  23.087  0.00  0.00    +0.165 A 
ATOM      6  C   UNL     1      10.066  -0.148  23.709  0.00  0.00    +0.050 A 
ENDROOT
BRANCH   2   7
ATOM      7  C   UNL     1       7.522  -2.797  24.560  0.00  0.00    +0.181 A 
ATOM      8  O   UNL     1       6.671  -3.479  23.699  0.00  0.00    -0.451 OA
ATOM      9  C   UNL     1       5.976  -4.572  24.149  0.00  0.00    +0.147 A 
ATOM     10  C   UNL     1       6.186  -5.120  25.405  0.00  0.00    +0.109 A 
ATOM     11  C   UNL     1       5.462  -6.250  25.803  0.00  0.00    +0.135 A 
ATOM     12  C   UNL     1       4.519  -6.824  24.954  0.00  0.00    +0.091 A 
ATOM     13  C   UNL     1       4.312  -6.261  23.700  0.00  0.00    +0.124 A 
ATOM     14  C   UNL     1       7.153  -4.471  26.294  0.00  0.00    +0.238 A 
ATOM     15  O   UNL     1       7.383  -4.964  27.396  0.00  0.00    -0.283 OA
ATOM     16  C   UNL     1       5.033  -5.141  23.288  0.00  0.00    +0.092 A 
ATOM     17  C   UNL     1       7.781  -3.202  25.827  0.00  0.00    +0.208 A 
BRANCH  11  18
ATOM     18  O   UNL     1       5.622  -6.847  27.025  0.00  0.00    -0.506 OA
ATOM     19  H   UNL     1       6.570  -7.096  27.117  0.00  0.00    +0.292 HD
ENDBRANCH  11  18
BRANCH  13  20
ATOM     20  O   UNL     1       3.394  -6.780  22.831  0.00  0.00    -0.507 OA
ATOM     21  H   UNL     1       3.853  -7.045  22.015  0.00  0.00    +0.292 HD
ENDBRANCH  13  20
BRANCH  17  22
ATOM     22  O   UNL     1       8.553  -2.517  26.743  0.00  0.00    -0.501 OA
ATOM     23  H   UNL     1       8.278  -1.585  26.753  0.00  0.00    +0.292 HD
ENDBRANCH  17  22
ENDBRANCH   2   7
BRANCH   4  24
ATOM     24  O   UNL     1       7.233   1.462  22.065  0.00  0.00    -0.503 OA
ATOM     25  H   UNL     1       6.589   1.832  22.701  0.00  0.00    +0.292 HD
ENDBRANCH   4  24
BRANCH   5  26
ATOM     26  O   UNL     1       9.788   2.134  22.819  0.00  0.00    -0.457 OA
BRANCH  26  27
ATOM     27  C   UNL     1      10.036   2.913  24.008  0.00  0.00    +0.339 C 
ATOM     28  O   UNL     1       8.868   2.977  24.847  0.00  0.00    -0.331 OA
ATOM     29  C   UNL     1       7.864   3.874  24.338  0.00  0.00    +0.179 C 
ATOM     30  C   UNL     1       8.423   5.268  24.602  0.00  0.00    +0.177 C 
ATOM     31  C   UNL     1       9.630   5.467  23.683  0.00  0.00    +0.180 C 
ATOM     32  C   UNL     1      10.652   4.323  23.782  0.00  0.00    +0.214 C 
BRANCH  30  33
ATOM     33  O   UNL     1       8.874   5.378  25.968  0.00  0.00    -0.386 OA
ATOM     34  H   UNL     1       8.420   6.156  26.358  0.00  0.00    +0.210 HD
ENDBRANCH  30  33
BRANCH  31  35
ATOM     35  O   UNL     1      10.287   6.696  24.036  0.00  0.00    -0.386 OA
ATOM     36  H   UNL     1       9.928   7.375  23.428  0.00  0.00    +0.210 HD
ENDBRANCH  31  35
BRANCH  32  37
ATOM     37  O   UNL     1      11.551   4.344  22.668  0.00  0.00    -0.383 OA
ATOM     38  H   UNL     1      11.045   4.040  21.890  0.00  0.00    +0.210 HD
ENDBRANCH  32  37
BRANCH  29  39
ATOM     39  C   UNL     1       6.546   3.637  25.083  0.00  0.00    +0.190 C 
BRANCH  39  40
ATOM     40  O   UNL     1       5.690   2.761  24.350  0.00  0.00    -0.392 OA
ATOM     41  H   UNL     1       5.429   3.199  23.523  0.00  0.00    +0.210 HD
ENDBRANCH  39  40
ENDBRANCH  29  39
ENDBRANCH  26  27
ENDBRANCH   5  26
TORSDOF 12
ENDMDL
