MODEL 1
REMARK VINA RESULT:      -7.0      0.000      0.000
REMARK  Name = 
REMARK  21 active torsions:
REMARK  status: ('A' for Active; 'I' for Inactive)
REMARK    1  A    between atoms: C_1  and  C_2
REMARK    2  A    between atoms: C_4  and  O_59
REMARK    3  A    between atoms: C_6  and  O_58
REMARK    4  A    between atoms: C_8  and  O_57
REMARK    5  A    between atoms: C_10  and  O_13
REMARK    6  A    between atoms: O_13  and  C_14
REMARK    7  A    between atoms: C_16  and  O_56
REMARK    8  A    between atoms: C_18  and  O_55
REMARK    9  A    between atoms: C_20  and  C_47
REMARK   10  A    between atoms: C_23  and  O_25
REMARK   11  A    between atoms: O_25  and  C_26
REMARK   12  A    between atoms: C_27  and  C_39
REMARK   13  A    between atoms: C_31  and  O_38
REMARK   14  A    between atoms: C_33  and  O_37
REMARK   15  A    between atoms: C_41  and  O_46
REMARK   16  A    between atoms: C_42  and  O_45
REMARK   17  A    between atoms: C_47  and  O_48
REMARK   18  A    between atoms: O_48  and  C_49
REMARK   19  A    between atoms: C_49  and  C_51
REMARK   20  A    between atoms: C_51  and  C_52
REMARK   21  A    between atoms: C_52  and  O_54
REMARK                            x       y       z     vdW  Elec       q    Type
REMARK                         _______ _______ _______ _____ _____    ______ ____
ROOT
ATOM      1  C   UNL     1       4.355   2.512  25.184  0.00  0.00    +0.221 C 
ATOM      2  C   UNL     1       5.757   1.872  24.989  0.00  0.00    +0.340 C 
ATOM      3  O   UNL     1       5.664   0.485  25.402  0.00  0.00    -0.330 OA
ATOM      4  C   UNL     1       5.487   0.381  26.838  0.00  0.00    +0.191 C 
ATOM      5  C   UNL     1       4.096   0.913  27.216  0.00  0.00    +0.178 C 
ATOM      6  C   UNL     1       3.965   2.326  26.666  0.00  0.00    +0.180 C 
ENDROOT
BRANCH   5   7
ATOM      7  O   UNL     1       3.946   1.022  28.646  0.00  0.00    -0.386 OA
ATOM      8  H   UNL     1       4.257   0.161  28.998  0.00  0.00    +0.210 HD
ENDBRANCH   5   7
BRANCH   6   9
ATOM      9  O   UNL     1       2.660   2.848  26.938  0.00  0.00    -0.386 OA
ATOM     10  H   UNL     1       2.723   3.801  26.728  0.00  0.00    +0.210 HD
ENDBRANCH   6   9
BRANCH   4  11
ATOM     11  C   UNL     1       5.712  -1.056  27.347  0.00  0.00    +0.266 C 
BRANCH  11  12
ATOM     12  O   UNL     1       6.975  -1.594  26.872  0.00  0.00    -0.462 OA
BRANCH  12  13
ATOM     13  C   UNL     1       7.013  -2.941  26.648  0.00  0.00    +0.318 C 
ATOM     14  O   UNL     1       6.032  -3.657  26.523  0.00  0.00    -0.250 OA
BRANCH  13  15
ATOM     15  C   UNL     1       8.418  -3.467  26.679  0.00  0.00    +0.240 C 
BRANCH  15  16
ATOM     16  C   UNL     1       8.552  -4.932  26.412  0.00  0.00    +0.316 C 
ATOM     17  O   UNL     1       9.057  -5.392  25.398  0.00  0.00    -0.250 OA
BRANCH  16  18
ATOM     18  O   UNL     1       7.992  -5.725  27.352  0.00  0.00    -0.480 OA
ATOM     19  H   UNL     1       8.634  -6.320  27.795  0.00  0.00    +0.295 HD
ENDBRANCH  16  18
ENDBRANCH  15  16
ENDBRANCH  13  15
ENDBRANCH  12  13
ENDBRANCH  11  12
ENDBRANCH   4  11
BRANCH   2  20
ATOM     20  O   UNL     1       6.232   2.040  23.628  0.00  0.00    -0.453 OA
BRANCH  20  21
ATOM     21  C   UNL     1       7.561   2.458  23.447  0.00  0.00    +0.214 A 
ATOM     22  C   UNL     1       7.915   3.929  23.396  0.00  0.00    +0.238 A 
ATOM     23  O   UNL     1       7.079   4.796  23.162  0.00  0.00    -0.283 OA
ATOM     24  C   UNL     1       9.322   4.323  23.503  0.00  0.00    +0.109 A 
ATOM     25  C   UNL     1      10.269   3.323  23.377  0.00  0.00    +0.147 A 
ATOM     26  C   UNL     1      11.634   3.624  23.426  0.00  0.00    +0.092 A 
ATOM     27  C   UNL     1      12.035   4.945  23.595  0.00  0.00    +0.124 A 
ATOM     28  C   UNL     1      11.097   5.963  23.709  0.00  0.00    +0.091 A 
ATOM     29  O   UNL     1       9.926   2.023  23.146  0.00  0.00    -0.451 OA
ATOM     30  C   UNL     1       9.739   5.652  23.663  0.00  0.00    +0.135 A 
ATOM     31  C   UNL     1       8.600   1.602  23.262  0.00  0.00    +0.181 A 
BRANCH  31  32
ATOM     32  C   UNL     1       8.551   0.099  23.088  0.00  0.00    +0.025 A 
ATOM     33  C   UNL     1       7.347  -0.498  22.625  0.00  0.00    +0.015 A 
ATOM     34  C   UNL     1       7.145  -1.885  22.614  0.00  0.00    +0.050 A 
ATOM     35  C   UNL     1       8.161  -2.710  23.043  0.00  0.00    +0.158 A 
ATOM     36  C   UNL     1       9.374  -2.163  23.460  0.00  0.00    +0.159 A 
ATOM     37  C   UNL     1       9.573  -0.776  23.492  0.00  0.00    +0.060 A 
BRANCH  35  38
ATOM     38  O   UNL     1       7.960  -4.059  23.071  0.00  0.00    -0.503 OA
ATOM     39  H   UNL     1       8.782  -4.441  22.703  0.00  0.00    +0.292 HD
ENDBRANCH  35  38
BRANCH  36  40
ATOM     40  O   UNL     1      10.350  -3.046  23.847  0.00  0.00    -0.503 OA
ATOM     41  H   UNL     1      10.410  -3.754  23.177  0.00  0.00    +0.292 HD
ENDBRANCH  36  40
ENDBRANCH  31  32
BRANCH  30  42
ATOM     42  O   UNL     1       8.834   6.669  23.779  0.00  0.00    -0.506 OA
ATOM     43  H   UNL     1       7.978   6.400  23.410  0.00  0.00    +0.292 HD
ENDBRANCH  30  42
BRANCH  27  44
ATOM     44  O   UNL     1      13.348   5.299  23.652  0.00  0.00    -0.507 OA
ATOM     45  H   UNL     1      13.598   5.750  22.829  0.00  0.00    +0.292 HD
ENDBRANCH  27  44
ENDBRANCH  20  21
ENDBRANCH   2  20
BRANCH   1  46
ATOM     46  O   UNL     1       4.221   3.906  24.789  0.00  0.00    -0.337 OA
BRANCH  46  50
ATOM     47  C   UNL     1       0.571   5.635  23.602  0.00  0.00    +0.041 C 
ATOM     48  C   UNL     1       0.828   4.134  23.512  0.00  0.00    +0.149 C 
ATOM     49  O   UNL     1       1.963   3.742  24.275  0.00  0.00    -0.343 OA
ATOM     50  C   UNL     1       3.225   4.179  23.798  0.00  0.00    +0.282 C 
ATOM     51  C   UNL     1       3.506   3.427  22.485  0.00  0.00    +0.201 C 
ATOM     52  C   UNL     1       2.357   3.729  21.493  0.00  0.00    +0.179 C 
ATOM     53  C   UNL     1       0.964   3.516  22.116  0.00  0.00    +0.174 C 
BRANCH  51  54
ATOM     54  O   UNL     1       4.771   3.806  21.924  0.00  0.00    -0.384 OA
ATOM     55  H   UNL     1       5.010   3.111  21.278  0.00  0.00    +0.210 HD
ENDBRANCH  51  54
BRANCH  52  56
ATOM     56  O   UNL     1       2.527   5.051  20.955  0.00  0.00    -0.386 OA
ATOM     57  H   UNL     1       2.816   5.015  20.030  0.00  0.00    +0.210 HD
ENDBRANCH  52  56
BRANCH  53  58
ATOM     58  O   UNL     1       0.762   2.098  22.254  0.00  0.00    -0.387 OA
ATOM     59  H   UNL     1       0.858   1.855  23.199  0.00  0.00    +0.210 HD
ENDBRANCH  53  58
ENDBRANCH  46  50
ENDBRANCH   1  46
TORSDOF 20
ENDMDL
MODEL 2
REMARK VINA RESULT:      -7.0      2.945      7.344
REMARK  Name = 
REMARK  21 active torsions:
REMARK  status: ('A' for Active; 'I' for Inactive)
REMARK    1  A    between atoms: C_1  and  C_2
REMARK    2  A    between atoms: C_4  and  O_59
REMARK    3  A    between atoms: C_6  and  O_58
REMARK    4  A    between atoms: C_8  and  O_57
REMARK    5  A    between atoms: C_10  and  O_13
REMARK    6  A    between atoms: O_13  and  C_14
REMARK    7  A    between atoms: C_16  and  O_56
REMARK    8  A    between atoms: C_18  and  O_55
REMARK    9  A    between atoms: C_20  and  C_47
REMARK   10  A    between atoms: C_23  and  O_25
REMARK   11  A    between atoms: O_25  and  C_26
REMARK   12  A    between atoms: C_27  and  C_39
REMARK   13  A    between atoms: C_31  and  O_38
REMARK   14  A    between atoms: C_33  and  O_37
REMARK   15  A    between atoms: C_41  and  O_46
REMARK   16  A    between atoms: C_42  and  O_45
REMARK   17  A    between atoms: C_47  and  O_48
REMARK   18  A    between atoms: O_48  and  C_49
REMARK   19  A    between atoms: C_49  and  C_51
REMARK   20  A    between atoms: C_51  and  C_52
REMARK   21  A    between atoms: C_52  and  O_54
REMARK                            x       y       z     vdW  Elec       q    Type
REMARK                         _______ _______ _______ _____ _____    ______ ____
ROOT
ATOM      1  C   UNL     1       7.407  -3.933  26.605  0.00  0.00    +0.221 C 
ATOM      2  C   UNL     1       7.847  -2.455  26.418  0.00  0.00    +0.340 C 
ATOM      3  O   UNL     1       8.344  -2.316  25.063  0.00  0.00    -0.330 OA
ATOM      4  C   UNL     1       9.599  -3.024  24.893  0.00  0.00    +0.191 C 
ATOM      5  C   UNL     1       9.342  -4.536  24.979  0.00  0.00    +0.178 C 
ATOM      6  C   UNL     1       8.631  -4.822  26.293  0.00  0.00    +0.180 C 
ENDROOT
BRANCH   5   7
ATOM      7  O   UNL     1      10.579  -5.277  25.021  0.00  0.00    -0.386 OA
ATOM      8  H   UNL     1      10.858  -5.248  25.960  0.00  0.00    +0.210 HD
ENDBRANCH   5   7
BRANCH   6   9
ATOM      9  O   UNL     1       8.313  -6.213  26.396  0.00  0.00    -0.386 OA
ATOM     10  H   UNL     1       9.117  -6.628  26.766  0.00  0.00    +0.210 HD
ENDBRANCH   6   9
BRANCH   4  11
ATOM     11  C   UNL     1      10.313  -2.633  23.585  0.00  0.00    +0.266 C 
BRANCH  11  12
ATOM     12  O   UNL     1      10.729  -1.241  23.604  0.00  0.00    -0.462 OA
BRANCH  12  13
ATOM     13  C   UNL     1      10.053  -0.396  22.771  0.00  0.00    +0.318 C 
ATOM     14  O   UNL     1       9.830  -0.608  21.590  0.00  0.00    -0.250 OA
BRANCH  13  15
ATOM     15  C   UNL     1       9.702   0.892  23.458  0.00  0.00    +0.240 C 
BRANCH  15  16
ATOM     16  C   UNL     1      10.124   2.131  22.734  0.00  0.00    +0.316 C 
ATOM     17  O   UNL     1      10.670   3.079  23.279  0.00  0.00    -0.250 OA
BRANCH  16  18
ATOM     18  O   UNL     1       9.780   2.160  21.428  0.00  0.00    -0.480 OA
ATOM     19  H   UNL     1       9.558   3.058  21.102  0.00  0.00    +0.295 HD
ENDBRANCH  16  18
ENDBRANCH  15  16
ENDBRANCH  13  15
ENDBRANCH  12  13
ENDBRANCH  11  12
ENDBRANCH   4  11
BRANCH   2  20
ATOM     20  O   UNL     1       6.770  -1.537  26.737  0.00  0.00    -0.453 OA
BRANCH  20  21
ATOM     21  C   UNL     1       6.543  -0.465  25.858  0.00  0.00    +0.214 A 
ATOM     22  C   UNL     1       6.835   0.961  26.275  0.00  0.00    +0.238 A 
ATOM     23  O   UNL     1       6.941   1.289  27.452  0.00  0.00    -0.283 OA
ATOM     24  C   UNL     1       6.868   2.006  25.249  0.00  0.00    +0.109 A 
ATOM     25  C   UNL     1       6.369   1.681  24.001  0.00  0.00    +0.147 A 
ATOM     26  C   UNL     1       6.326   2.636  22.979  0.00  0.00    +0.092 A 
ATOM     27  C   UNL     1       6.786   3.925  23.233  0.00  0.00    +0.124 A 
ATOM     28  C   UNL     1       7.276   4.271  24.485  0.00  0.00    +0.091 A 
ATOM     29  O   UNL     1       5.850   0.450  23.724  0.00  0.00    -0.451 OA
ATOM     30  C   UNL     1       7.318   3.311  25.494  0.00  0.00    +0.135 A 
ATOM     31  C   UNL     1       6.014  -0.612  24.615  0.00  0.00    +0.181 A 
BRANCH  31  32
ATOM     32  C   UNL     1       5.459  -1.869  23.978  0.00  0.00    +0.025 A 
ATOM     33  C   UNL     1       4.558  -2.674  24.726  0.00  0.00    +0.015 A 
ATOM     34  C   UNL     1       4.144  -3.943  24.299  0.00  0.00    +0.050 A 
ATOM     35  C   UNL     1       4.606  -4.424  23.094  0.00  0.00    +0.158 A 
ATOM     36  C   UNL     1       5.455  -3.644  22.311  0.00  0.00    +0.159 A 
ATOM     37  C   UNL     1       5.888  -2.383  22.743  0.00  0.00    +0.060 A 
BRANCH  35  38
ATOM     38  O   UNL     1       4.238  -5.674  22.688  0.00  0.00    -0.503 OA
ATOM     39  H   UNL     1       4.304  -6.228  23.491  0.00  0.00    +0.292 HD
ENDBRANCH  35  38
BRANCH  36  40
ATOM     40  O   UNL     1       5.852  -4.177  21.110  0.00  0.00    -0.503 OA
ATOM     41  H   UNL     1       6.789  -3.942  20.964  0.00  0.00    +0.292 HD
ENDBRANCH  36  40
ENDBRANCH  31  32
BRANCH  30  42
ATOM     42  O   UNL     1       7.806   3.673  26.718  0.00  0.00    -0.506 OA
ATOM     43  H   UNL     1       8.043   2.885  27.231  0.00  0.00    +0.292 HD
ENDBRANCH  30  42
BRANCH  27  44
ATOM     44  O   UNL     1       6.771   4.896  22.279  0.00  0.00    -0.507 OA
ATOM     45  H   UNL     1       7.674   5.220  22.132  0.00  0.00    +0.292 HD
ENDBRANCH  27  44
ENDBRANCH  20  21
ENDBRANCH   2  20
BRANCH   1  46
ATOM     46  O   UNL     1       6.839  -4.279  27.899  0.00  0.00    -0.337 OA
BRANCH  46  50
ATOM     47  C   UNL     1       2.839  -2.967  27.922  0.00  0.00    +0.041 C 
ATOM     48  C   UNL     1       3.418  -3.832  29.038  0.00  0.00    +0.149 C 
ATOM     49  O   UNL     1       4.841  -3.860  29.004  0.00  0.00    -0.343 OA
ATOM     50  C   UNL     1       5.432  -4.542  27.909  0.00  0.00    +0.282 C 
ATOM     51  C   UNL     1       5.133  -6.041  28.086  0.00  0.00    +0.201 C 
ATOM     52  C   UNL     1       3.598  -6.230  28.146  0.00  0.00    +0.179 C 
ATOM     53  C   UNL     1       2.922  -5.277  29.151  0.00  0.00    +0.174 C 
BRANCH  51  54
ATOM     54  O   UNL     1       5.696  -6.817  27.018  0.00  0.00    -0.384 OA
ATOM     55  H   UNL     1       5.247  -7.687  27.037  0.00  0.00    +0.210 HD
ENDBRANCH  51  54
BRANCH  52  56
ATOM     56  O   UNL     1       3.051  -6.117  26.821  0.00  0.00    -0.386 OA
ATOM     57  H   UNL     1       2.920  -6.991  26.423  0.00  0.00    +0.210 HD
ENDBRANCH  52  56
BRANCH  53  58
ATOM     58  O   UNL     1       3.247  -5.740  30.474  0.00  0.00    -0.387 OA
ATOM     59  H   UNL     1       3.566  -4.979  31.006  0.00  0.00    +0.210 HD
ENDBRANCH  53  58
ENDBRANCH  46  50
ENDBRANCH   1  46
TORSDOF 20
ENDMDL
MODEL 3
REMARK VINA RESULT:      -6.9      2.799      7.770
REMARK  Name = 
REMARK  21 active torsions:
REMARK  status: ('A' for Active; 'I' for Inactive)
REMARK    1  A    between atoms: C_1  and  C_2
REMARK    2  A    between atoms: C_4  and  O_59
REMARK    3  A    between atoms: C_6  and  O_58
REMARK    4  A    between atoms: C_8  and  O_57
REMARK    5  A    between atoms: C_10  and  O_13
REMARK    6  A    between atoms: O_13  and  C_14
REMARK    7  A    between atoms: C_16  and  O_56
REMARK    8  A    between atoms: C_18  and  O_55
REMARK    9  A    between atoms: C_20  and  C_47
REMARK   10  A    between atoms: C_23  and  O_25
REMARK   11  A    between atoms: O_25  and  C_26
REMARK   12  A    between atoms: C_27  and  C_39
REMARK   13  A    between atoms: C_31  and  O_38
REMARK   14  A    between atoms: C_33  and  O_37
REMARK   15  A    between atoms: C_41  and  O_46
REMARK   16  A    between atoms: C_42  and  O_45
REMARK   17  A    between atoms: C_47  and  O_48
REMARK   18  A    between atoms: O_48  and  C_49
REMARK   19  A    between atoms: C_49  and  C_51
REMARK   20  A    between atoms: C_51  and  C_52
REMARK   21  A    between atoms: C_52  and  O_54
REMARK                            x       y       z     vdW  Elec       q    Type
REMARK                         _______ _______ _______ _____ _____    ______ ____
ROOT
ATOM      1  C   UNL     1       7.257   0.061  23.398  0.00  0.00    +0.221 C 
ATOM      2  C   UNL     1       6.545  -1.208  23.940  0.00  0.00    +0.340 C 
ATOM      3  O   UNL     1       7.512  -1.947  24.728  0.00  0.00    -0.330 OA
ATOM      4  C   UNL     1       8.542  -2.522  23.884  0.00  0.00    +0.191 C 
ATOM      5  C   UNL     1       9.408  -1.394  23.304  0.00  0.00    +0.178 C 
ATOM      6  C   UNL     1       8.490  -0.409  22.595  0.00  0.00    +0.180 C 
ENDROOT
BRANCH   5   7
ATOM      7  O   UNL     1      10.316  -1.892  22.300  0.00  0.00    -0.386 OA
ATOM      8  H   UNL     1       9.820  -1.825  21.457  0.00  0.00    +0.210 HD
ENDBRANCH   5   7
BRANCH   6   9
ATOM      9  O   UNL     1       9.242   0.698  22.087  0.00  0.00    -0.386 OA
ATOM     10  H   UNL     1       8.671   1.093  21.398  0.00  0.00    +0.210 HD
ENDBRANCH   6   9
BRANCH   4  11
ATOM     11  C   UNL     1       9.387  -3.571  24.633  0.00  0.00    +0.266 C 
BRANCH  11  12
ATOM     12  O   UNL     1       9.158  -4.907  24.110  0.00  0.00    -0.462 OA
BRANCH  12  13
ATOM     13  C   UNL     1       7.855  -5.267  23.919  0.00  0.00    +0.318 C 
ATOM     14  O   UNL     1       7.034  -5.423  24.809  0.00  0.00    -0.250 OA
BRANCH  13  15
ATOM     15  C   UNL     1       7.568  -5.556  22.474  0.00  0.00    +0.240 C 
BRANCH  15  16
ATOM     16  C   UNL     1       6.133  -5.421  22.073  0.00  0.00    +0.316 C 
ATOM     17  O   UNL     1       5.697  -4.479  21.429  0.00  0.00    -0.250 OA
BRANCH  16  18
ATOM     18  O   UNL     1       5.325  -6.392  22.553  0.00  0.00    -0.480 OA
ATOM     19  H   UNL     1       5.500  -6.619  23.490  0.00  0.00    +0.295 HD
ENDBRANCH  16  18
ENDBRANCH  15  16
ENDBRANCH  13  15
ENDBRANCH  12  13
ENDBRANCH  11  12
ENDBRANCH   4  11
BRANCH   2  20
ATOM     20  O   UNL     1       5.339  -0.868  24.673  0.00  0.00    -0.453 OA
BRANCH  20  21
ATOM     21  C   UNL     1       4.937  -1.731  25.706  0.00  0.00    +0.214 A 
ATOM     22  C   UNL     1       4.512  -3.154  25.411  0.00  0.00    +0.238 A 
ATOM     23  O   UNL     1       4.167  -3.515  24.291  0.00  0.00    -0.283 OA
ATOM     24  C   UNL     1       4.386  -4.100  26.523  0.00  0.00    +0.109 A 
ATOM     25  C   UNL     1       4.403  -3.575  27.803  0.00  0.00    +0.147 A 
ATOM     26  C   UNL     1       4.246  -4.408  28.916  0.00  0.00    +0.092 A 
ATOM     27  C   UNL     1       4.065  -5.774  28.725  0.00  0.00    +0.124 A 
ATOM     28  C   UNL     1       4.032  -6.314  27.446  0.00  0.00    +0.091 A 
ATOM     29  O   UNL     1       4.514  -2.236  28.038  0.00  0.00    -0.451 OA
ATOM     30  C   UNL     1       4.192  -5.477  26.344  0.00  0.00    +0.135 A 
ATOM     31  C   UNL     1       4.855  -1.356  27.009  0.00  0.00    +0.181 A 
BRANCH  31  32
ATOM     32  C   UNL     1       5.039   0.028  27.596  0.00  0.00    +0.025 A 
ATOM     33  C   UNL     1       3.890   0.836  27.816  0.00  0.00    +0.015 A 
ATOM     34  C   UNL     1       3.974   2.189  28.173  0.00  0.00    +0.050 A 
ATOM     35  C   UNL     1       5.217   2.757  28.345  0.00  0.00    +0.158 A 
ATOM     36  C   UNL     1       6.366   1.983  28.184  0.00  0.00    +0.159 A 
ATOM     37  C   UNL     1       6.288   0.636  27.807  0.00  0.00    +0.060 A 
BRANCH  35  38
ATOM     38  O   UNL     1       5.309   4.082  28.656  0.00  0.00    -0.503 OA
ATOM     39  H   UNL     1       6.090   4.148  29.242  0.00  0.00    +0.292 HD
ENDBRANCH  35  38
BRANCH  36  40
ATOM     40  O   UNL     1       7.568   2.609  28.398  0.00  0.00    -0.503 OA
ATOM     41  H   UNL     1       8.212   2.274  27.746  0.00  0.00    +0.292 HD
ENDBRANCH  36  40
ENDBRANCH  31  32
BRANCH  30  42
ATOM     42  O   UNL     1       4.158  -6.030  25.095  0.00  0.00    -0.506 OA
ATOM     43  H   UNL     1       4.744  -5.541  24.495  0.00  0.00    +0.292 HD
ENDBRANCH  30  42
BRANCH  27  44
ATOM     44  O   UNL     1       3.909  -6.634  29.768  0.00  0.00    -0.507 OA
ATOM     45  H   UNL     1       4.724  -7.146  29.892  0.00  0.00    +0.292 HD
ENDBRANCH  27  44
ENDBRANCH  20  21
ENDBRANCH   2  20
BRANCH   1  46
ATOM     46  O   UNL     1       6.443   0.968  22.602  0.00  0.00    -0.337 OA
BRANCH  46  50
ATOM     47  C   UNL     1       7.295   5.074  22.235  0.00  0.00    +0.041 C 
ATOM     48  C   UNL     1       7.766   4.249  23.429  0.00  0.00    +0.149 C 
ATOM     49  O   UNL     1       7.672   2.851  23.179  0.00  0.00    -0.343 OA
ATOM     50  C   UNL     1       6.363   2.314  23.082  0.00  0.00    +0.282 C 
ATOM     51  C   UNL     1       5.732   2.384  24.484  0.00  0.00    +0.201 C 
ATOM     52  C   UNL     1       5.738   3.859  24.950  0.00  0.00    +0.179 C 
ATOM     53  C   UNL     1       7.117   4.527  24.789  0.00  0.00    +0.174 C 
BRANCH  51  54
ATOM     54  O   UNL     1       4.397   1.858  24.485  0.00  0.00    -0.384 OA
ATOM     55  H   UNL     1       3.920   2.306  23.757  0.00  0.00    +0.210 HD
ENDBRANCH  51  54
BRANCH  52  56
ATOM     56  O   UNL     1       4.692   4.577  24.273  0.00  0.00    -0.386 OA
ATOM     57  H   UNL     1       3.903   4.022  24.166  0.00  0.00    +0.210 HD
ENDBRANCH  52  56
BRANCH  53  58
ATOM     58  O   UNL     1       7.985   3.981  25.798  0.00  0.00    -0.387 OA
ATOM     59  H   UNL     1       8.682   3.447  25.360  0.00  0.00    +0.210 HD
ENDBRANCH  53  58
ENDBRANCH  46  50
ENDBRANCH   1  46
TORSDOF 20
ENDMDL
MODEL 4
REMARK VINA RESULT:      -6.8      3.406      7.988
REMARK  Name = 
REMARK  21 active torsions:
REMARK  status: ('A' for Active; 'I' for Inactive)
REMARK    1  A    between atoms: C_1  and  C_2
REMARK    2  A    between atoms: C_4  and  O_59
REMARK    3  A    between atoms: C_6  and  O_58
REMARK    4  A    between atoms: C_8  and  O_57
REMARK    5  A    between atoms: C_10  and  O_13
REMARK    6  A    between atoms: O_13  and  C_14
REMARK    7  A    between atoms: C_16  and  O_56
REMARK    8  A    between atoms: C_18  and  O_55
REMARK    9  A    between atoms: C_20  and  C_47
REMARK   10  A    between atoms: C_23  and  O_25
REMARK   11  A    between atoms: O_25  and  C_26
REMARK   12  A    between atoms: C_27  and  C_39
REMARK   13  A    between atoms: C_31  and  O_38
REMARK   14  A    between atoms: C_33  and  O_37
REMARK   15  A    between atoms: C_41  and  O_46
REMARK   16  A    between atoms: C_42  and  O_45
REMARK   17  A    between atoms: C_47  and  O_48
REMARK   18  A    between atoms: O_48  and  C_49
REMARK   19  A    between atoms: C_49  and  C_51
REMARK   20  A    between atoms: C_51  and  C_52
REMARK   21  A    between atoms: C_52  and  O_54
REMARK                            x       y       z     vdW  Elec       q    Type
REMARK                         _______ _______ _______ _____ _____    ______ ____
ROOT
ATOM      1  C   UNL     1       7.717  -2.441  24.039  0.00  0.00    +0.221 C 
ATOM      2  C   UNL     1       6.446  -3.226  24.463  0.00  0.00    +0.340 C 
ATOM      3  O   UNL     1       6.713  -3.822  25.757  0.00  0.00    -0.330 OA
ATOM      4  C   UNL     1       7.696  -4.884  25.649  0.00  0.00    +0.191 C 
ATOM      5  C   UNL     1       9.062  -4.274  25.298  0.00  0.00    +0.178 C 
ATOM      6  C   UNL     1       8.896  -3.438  24.038  0.00  0.00    +0.180 C 
ENDROOT
BRANCH   5   7
ATOM      7  O   UNL     1      10.027  -5.297  24.979  0.00  0.00    -0.386 OA
ATOM      8  H   UNL     1      10.881  -4.822  24.899  0.00  0.00    +0.210 HD
ENDBRANCH   5   7
BRANCH   6   9
ATOM      9  O   UNL     1      10.130  -2.796  23.699  0.00  0.00    -0.386 OA
ATOM     10  H   UNL     1      10.524  -2.540  24.557  0.00  0.00    +0.210 HD
ENDBRANCH   6   9
BRANCH   4  11
ATOM     11  C   UNL     1       7.761  -5.746  26.924  0.00  0.00    +0.266 C 
BRANCH  11  12
ATOM     12  O   UNL     1       6.965  -5.170  27.995  0.00  0.00    -0.462 OA
BRANCH  12  13
ATOM     13  C   UNL     1       6.150  -6.030  28.673  0.00  0.00    +0.318 C 
ATOM     14  O   UNL     1       6.393  -7.208  28.880  0.00  0.00    -0.250 OA
BRANCH  13  15
ATOM     15  C   UNL     1       4.852  -5.378  29.052  0.00  0.00    +0.240 C 
BRANCH  15  16
ATOM     16  C   UNL     1       3.657  -6.276  29.008  0.00  0.00    +0.316 C 
ATOM     17  O   UNL     1       2.505  -5.874  29.092  0.00  0.00    -0.250 OA
BRANCH  16  18
ATOM     18  O   UNL     1       3.949  -7.593  28.949  0.00  0.00    -0.480 OA
ATOM     19  H   UNL     1       3.762  -8.073  29.784  0.00  0.00    +0.295 HD
ENDBRANCH  16  18
ENDBRANCH  15  16
ENDBRANCH  13  15
ENDBRANCH  12  13
ENDBRANCH  11  12
ENDBRANCH   4  11
BRANCH   2  20
ATOM     20  O   UNL     1       5.269  -2.377  24.448  0.00  0.00    -0.453 OA
BRANCH  20  21
ATOM     21  C   UNL     1       4.429  -2.405  25.574  0.00  0.00    +0.214 A 
ATOM     22  C   UNL     1       4.527  -1.341  26.646  0.00  0.00    +0.238 A 
ATOM     23  O   UNL     1       5.522  -0.634  26.777  0.00  0.00    -0.283 OA
ATOM     24  C   UNL     1       3.455  -1.235  27.639  0.00  0.00    +0.109 A 
ATOM     25  C   UNL     1       2.550  -2.278  27.704  0.00  0.00    +0.147 A 
ATOM     26  C   UNL     1       1.522  -2.272  28.653  0.00  0.00    +0.092 A 
ATOM     27  C   UNL     1       1.422  -1.205  29.541  0.00  0.00    +0.124 A 
ATOM     28  C   UNL     1       2.332  -0.157  29.498  0.00  0.00    +0.091 A 
ATOM     29  O   UNL     1       2.645  -3.374  26.897  0.00  0.00    -0.451 OA
ATOM     30  C   UNL     1       3.349  -0.171  28.546  0.00  0.00    +0.135 A 
ATOM     31  C   UNL     1       3.519  -3.387  25.808  0.00  0.00    +0.181 A 
BRANCH  31  32
ATOM     32  C   UNL     1       3.303  -4.666  25.028  0.00  0.00    +0.025 A 
ATOM     33  C   UNL     1       2.612  -4.604  23.788  0.00  0.00    +0.015 A 
ATOM     34  C   UNL     1       2.200  -5.749  23.093  0.00  0.00    +0.050 A 
ATOM     35  C   UNL     1       2.498  -6.988  23.614  0.00  0.00    +0.158 A 
ATOM     36  C   UNL     1       3.216  -7.090  24.805  0.00  0.00    +0.159 A 
ATOM     37  C   UNL     1       3.611  -5.948  25.515  0.00  0.00    +0.060 A 
BRANCH  35  38
ATOM     38  O   UNL     1       2.069  -8.108  22.963  0.00  0.00    -0.503 OA
ATOM     39  H   UNL     1       1.212  -8.327  23.381  0.00  0.00    +0.292 HD
ENDBRANCH  35  38
BRANCH  36  40
ATOM     40  O   UNL     1       3.500  -8.356  25.250  0.00  0.00    -0.503 OA
ATOM     41  H   UNL     1       4.031  -8.811  24.569  0.00  0.00    +0.292 HD
ENDBRANCH  36  40
ENDBRANCH  31  32
BRANCH  30  42
ATOM     42  O   UNL     1       4.232   0.872  28.521  0.00  0.00    -0.506 OA
ATOM     43  H   UNL     1       3.909   1.599  29.077  0.00  0.00    +0.292 HD
ENDBRANCH  30  42
BRANCH  27  44
ATOM     44  O   UNL     1       0.443  -1.142  30.485  0.00  0.00    -0.507 OA
ATOM     45  H   UNL     1       0.125  -2.038  30.683  0.00  0.00    +0.292 HD
ENDBRANCH  27  44
ENDBRANCH  20  21
ENDBRANCH   2  20
BRANCH   1  46
ATOM     46  O   UNL     1       7.645  -1.730  22.771  0.00  0.00    -0.337 OA
BRANCH  46  50
ATOM     47  C   UNL     1       9.827   1.647  21.524  0.00  0.00    +0.041 C 
ATOM     48  C   UNL     1       9.806   1.182  22.977  0.00  0.00    +0.149 C 
ATOM     49  O   UNL     1       9.307  -0.144  23.104  0.00  0.00    -0.343 OA
ATOM     50  C   UNL     1       7.928  -0.328  22.827  0.00  0.00    +0.282 C 
ATOM     51  C   UNL     1       7.137   0.370  23.947  0.00  0.00    +0.201 C 
ATOM     52  C   UNL     1       7.544   1.862  23.976  0.00  0.00    +0.179 C 
ATOM     53  C   UNL     1       9.072   2.060  23.996  0.00  0.00    +0.174 C 
BRANCH  51  54
ATOM     54  O   UNL     1       5.721   0.236  23.751  0.00  0.00    -0.384 OA
ATOM     55  H   UNL     1       5.600  -0.375  22.995  0.00  0.00    +0.210 HD
ENDBRANCH  51  54
BRANCH  52  56
ATOM     56  O   UNL     1       6.910   2.551  22.885  0.00  0.00    -0.386 OA
ATOM     57  H   UNL     1       6.993   2.046  22.060  0.00  0.00    +0.210 HD
ENDBRANCH  52  56
BRANCH  53  58
ATOM     58  O   UNL     1       9.542   1.684  25.303  0.00  0.00    -0.387 OA
ATOM     59  H   UNL     1       9.707   0.717  25.314  0.00  0.00    +0.210 HD
ENDBRANCH  53  58
ENDBRANCH  46  50
ENDBRANCH   1  46
TORSDOF 20
ENDMDL
MODEL 5
REMARK VINA RESULT:      -6.8      2.453      6.303
REMARK  Name = 
REMARK  21 active torsions:
REMARK  status: ('A' for Active; 'I' for Inactive)
REMARK    1  A    between atoms: C_1  and  C_2
REMARK    2  A    between atoms: C_4  and  O_59
REMARK    3  A    between atoms: C_6  and  O_58
REMARK    4  A    between atoms: C_8  and  O_57
REMARK    5  A    between atoms: C_10  and  O_13
REMARK    6  A    between atoms: O_13  and  C_14
REMARK    7  A    between atoms: C_16  and  O_56
REMARK    8  A    between atoms: C_18  and  O_55
REMARK    9  A    between atoms: C_20  and  C_47
REMARK   10  A    between atoms: C_23  and  O_25
REMARK   11  A    between atoms: O_25  and  C_26
REMARK   12  A    between atoms: C_27  and  C_39
REMARK   13  A    between atoms: C_31  and  O_38
REMARK   14  A    between atoms: C_33  and  O_37
REMARK   15  A    between atoms: C_41  and  O_46
REMARK   16  A    between atoms: C_42  and  O_45
REMARK   17  A    between atoms: C_47  and  O_48
REMARK   18  A    between atoms: O_48  and  C_49
REMARK   19  A    between atoms: C_49  and  C_51
REMARK   20  A    between atoms: C_51  and  C_52
REMARK   21  A    between atoms: C_52  and  O_54
REMARK                            x       y       z     vdW  Elec       q    Type
REMARK                         _______ _______ _______ _____ _____    ______ ____
ROOT
ATOM      1  C   UNL     1       6.363   0.552  26.296  0.00  0.00    +0.221 C 
ATOM      2  C   UNL     1       6.874  -0.668  27.110  0.00  0.00    +0.340 C 
ATOM      3  O   UNL     1       5.779  -1.612  27.214  0.00  0.00    -0.330 OA
ATOM      4  C   UNL     1       4.729  -1.099  28.075  0.00  0.00    +0.191 C 
ATOM      5  C   UNL     1       4.049   0.094  27.385  0.00  0.00    +0.178 C 
ATOM      6  C   UNL     1       5.124   1.110  27.029  0.00  0.00    +0.180 C 
ENDROOT
BRANCH   5   7
ATOM      7  O   UNL     1       3.139   0.767  28.279  0.00  0.00    -0.386 OA
ATOM      8  H   UNL     1       2.245   0.536  27.949  0.00  0.00    +0.210 HD
ENDBRANCH   5   7
BRANCH   6   9
ATOM      9  O   UNL     1       4.551   2.218  26.328  0.00  0.00    -0.386 OA
ATOM     10  H   UNL     1       3.766   2.470  26.855  0.00  0.00    +0.210 HD
ENDBRANCH   6   9
BRANCH   4  11
ATOM     11  C   UNL     1       3.716  -2.191  28.468  0.00  0.00    +0.266 C 
BRANCH  11  12
ATOM     12  O   UNL     1       4.334  -3.213  29.295  0.00  0.00    -0.462 OA
BRANCH  12  13
ATOM     13  C   UNL     1       4.575  -4.415  28.694  0.00  0.00    +0.318 C 
ATOM     14  O   UNL     1       4.112  -4.765  27.620  0.00  0.00    -0.250 OA
BRANCH  13  15
ATOM     15  C   UNL     1       5.403  -5.313  29.566  0.00  0.00    +0.240 C 
BRANCH  15  16
ATOM     16  C   UNL     1       6.041  -6.468  28.861  0.00  0.00    +0.316 C 
ATOM     17  O   UNL     1       5.569  -7.595  28.844  0.00  0.00    -0.250 OA
BRANCH  16  18
ATOM     18  O   UNL     1       7.239  -6.188  28.301  0.00  0.00    -0.480 OA
ATOM     19  H   UNL     1       7.235  -6.242  27.322  0.00  0.00    +0.295 HD
ENDBRANCH  16  18
ENDBRANCH  15  16
ENDBRANCH  13  15
ENDBRANCH  12  13
ENDBRANCH  11  12
ENDBRANCH   4  11
BRANCH   2  20
ATOM     20  O   UNL     1       8.073  -1.234  26.520  0.00  0.00    -0.453 OA
BRANCH  20  21
ATOM     21  C   UNL     1       7.918  -2.079  25.409  0.00  0.00    +0.214 A 
ATOM     22  C   UNL     1       7.346  -3.473  25.563  0.00  0.00    +0.238 A 
ATOM     23  O   UNL     1       7.317  -4.052  26.644  0.00  0.00    -0.283 OA
ATOM     24  C   UNL     1       6.928  -4.203  24.363  0.00  0.00    +0.109 A 
ATOM     25  C   UNL     1       7.326  -3.690  23.142  0.00  0.00    +0.147 A 
ATOM     26  C   UNL     1       7.003  -4.352  21.952  0.00  0.00    +0.092 A 
ATOM     27  C   UNL     1       6.282  -5.541  22.008  0.00  0.00    +0.124 A 
ATOM     28  C   UNL     1       5.889  -6.076  23.228  0.00  0.00    +0.091 A 
ATOM     29  O   UNL     1       8.087  -2.562  23.040  0.00  0.00    -0.451 OA
ATOM     30  C   UNL     1       6.212  -5.408  24.406  0.00  0.00    +0.135 A 
ATOM     31  C   UNL     1       8.301  -1.742  24.149  0.00  0.00    +0.181 A 
BRANCH  31  32
ATOM     32  C   UNL     1       9.056  -0.509  23.702  0.00  0.00    +0.025 A 
ATOM     33  C   UNL     1      10.067   0.020  24.549  0.00  0.00    +0.015 A 
ATOM     34  C   UNL     1      10.683   1.257  24.312  0.00  0.00    +0.050 A 
ATOM     35  C   UNL     1      10.317   1.981  23.199  0.00  0.00    +0.158 A 
ATOM     36  C   UNL     1       9.362   1.473  22.319  0.00  0.00    +0.159 A 
ATOM     37  C   UNL     1       8.729   0.247  22.563  0.00  0.00    +0.060 A 
BRANCH  35  38
ATOM     38  O   UNL     1      10.884   3.202  22.980  0.00  0.00    -0.503 OA
ATOM     39  H   UNL     1      10.559   3.764  23.711  0.00  0.00    +0.292 HD
ENDBRANCH  35  38
BRANCH  36  40
ATOM     40  O   UNL     1       9.068   2.236  21.218  0.00  0.00    -0.503 OA
ATOM     41  H   UNL     1       8.140   2.530  21.284  0.00  0.00    +0.292 HD
ENDBRANCH  36  40
ENDBRANCH  31  32
BRANCH  30  42
ATOM     42  O   UNL     1       5.813  -5.952  25.594  0.00  0.00    -0.506 OA
ATOM     43  H   UNL     1       6.152  -6.857  25.680  0.00  0.00    +0.292 HD
ENDBRANCH  30  42
BRANCH  27  44
ATOM     44  O   UNL     1       5.938  -6.229  20.886  0.00  0.00    -0.507 OA
ATOM     45  H   UNL     1       6.658  -6.832  20.641  0.00  0.00    +0.292 HD
ENDBRANCH  27  44
ENDBRANCH  20  21
ENDBRANCH   2  20
BRANCH   1  46
ATOM     46  O   UNL     1       7.329   1.610  26.043  0.00  0.00    -0.337 OA
BRANCH  46  50
ATOM     47  C   UNL     1       4.689   3.377  23.281  0.00  0.00    +0.041 C 
ATOM     48  C   UNL     1       6.203   3.423  23.103  0.00  0.00    +0.149 C 
ATOM     49  O   UNL     1       6.866   2.485  23.943  0.00  0.00    -0.343 OA
ATOM     50  C   UNL     1       6.831   2.751  25.336  0.00  0.00    +0.282 C 
ATOM     51  C   UNL     1       7.693   4.000  25.588  0.00  0.00    +0.201 C 
ATOM     52  C   UNL     1       7.124   5.166  24.745  0.00  0.00    +0.179 C 
ATOM     53  C   UNL     1       6.900   4.778  23.270  0.00  0.00    +0.174 C 
BRANCH  51  54
ATOM     54  O   UNL     1       7.718   4.348  26.980  0.00  0.00    -0.384 OA
ATOM     55  H   UNL     1       7.475   3.540  27.475  0.00  0.00    +0.210 HD
ENDBRANCH  51  54
BRANCH  52  56
ATOM     56  O   UNL     1       5.932   5.670  25.372  0.00  0.00    -0.386 OA
ATOM     57  H   UNL     1       5.137   5.313  24.946  0.00  0.00    +0.210 HD
ENDBRANCH  52  56
BRANCH  53  58
ATOM     58  O   UNL     1       8.193   4.674  22.648  0.00  0.00    -0.387 OA
ATOM     59  H   UNL     1       8.090   4.805  21.680  0.00  0.00    +0.210 HD
ENDBRANCH  53  58
ENDBRANCH  46  50
ENDBRANCH   1  46
TORSDOF 20
ENDMDL
MODEL 6
REMARK VINA RESULT:      -6.8      2.672      7.551
REMARK  Name = 
REMARK  21 active torsions:
REMARK  status: ('A' for Active; 'I' for Inactive)
REMARK    1  A    between atoms: C_1  and  C_2
REMARK    2  A    between atoms: C_4  and  O_59
REMARK    3  A    between atoms: C_6  and  O_58
REMARK    4  A    between atoms: C_8  and  O_57
REMARK    5  A    between atoms: C_10  and  O_13
REMARK    6  A    between atoms: O_13  and  C_14
REMARK    7  A    between atoms: C_16  and  O_56
REMARK    8  A    between atoms: C_18  and  O_55
REMARK    9  A    between atoms: C_20  and  C_47
REMARK   10  A    between atoms: C_23  and  O_25
REMARK   11  A    between atoms: O_25  and  C_26
REMARK   12  A    between atoms: C_27  and  C_39
REMARK   13  A    between atoms: C_31  and  O_38
REMARK   14  A    between atoms: C_33  and  O_37
REMARK   15  A    between atoms: C_41  and  O_46
REMARK   16  A    between atoms: C_42  and  O_45
REMARK   17  A    between atoms: C_47  and  O_48
REMARK   18  A    between atoms: O_48  and  C_49
REMARK   19  A    between atoms: C_49  and  C_51
REMARK   20  A    between atoms: C_51  and  C_52
REMARK   21  A    between atoms: C_52  and  O_54
REMARK                            x       y       z     vdW  Elec       q    Type
REMARK                         _______ _______ _______ _____ _____    ______ ____
ROOT
ATOM      1  C   UNL     1       7.749   0.580  22.826  0.00  0.00    +0.221 C 
ATOM      2  C   UNL     1       7.157  -0.772  23.310  0.00  0.00    +0.340 C 
ATOM      3  O   UNL     1       8.209  -1.482  24.010  0.00  0.00    -0.330 OA
ATOM      4  C   UNL     1       9.241  -1.923  23.091  0.00  0.00    +0.191 C 
ATOM      5  C   UNL     1       9.996  -0.696  22.554  0.00  0.00    +0.178 C 
ATOM      6  C   UNL     1       8.977   0.257  21.948  0.00  0.00    +0.180 C 
ENDROOT
BRANCH   5   7
ATOM      7  O   UNL     1      10.893  -1.059  21.485  0.00  0.00    -0.386 OA
ATOM      8  H   UNL     1      10.956  -0.257  20.926  0.00  0.00    +0.210 HD
ENDBRANCH   5   7
BRANCH   6   9
ATOM      9  O   UNL     1       9.623   1.449  21.485  0.00  0.00    -0.386 OA
ATOM     10  H   UNL     1       9.544   2.081  22.227  0.00  0.00    +0.210 HD
ENDBRANCH   6   9
BRANCH   4  11
ATOM     11  C   UNL     1      10.193  -2.948  23.735  0.00  0.00    +0.266 C 
BRANCH  11  12
ATOM     12  O   UNL     1       9.552  -3.647  24.836  0.00  0.00    -0.462 OA
BRANCH  12  13
ATOM     13  C   UNL     1       8.811  -4.746  24.506  0.00  0.00    +0.318 C 
ATOM     14  O   UNL     1       8.262  -4.922  23.430  0.00  0.00    -0.250 OA
BRANCH  13  15
ATOM     15  C   UNL     1       8.659  -5.680  25.671  0.00  0.00    +0.240 C 
BRANCH  15  16
ATOM     16  C   UNL     1       7.988  -5.091  26.871  0.00  0.00    +0.316 C 
ATOM     17  O   UNL     1       7.568  -5.757  27.806  0.00  0.00    -0.250 OA
BRANCH  16  18
ATOM     18  O   UNL     1       7.806  -3.753  26.810  0.00  0.00    -0.480 OA
ATOM     19  H   UNL     1       8.447  -3.246  27.351  0.00  0.00    +0.295 HD
ENDBRANCH  16  18
ENDBRANCH  15  16
ENDBRANCH  13  15
ENDBRANCH  12  13
ENDBRANCH  11  12
ENDBRANCH   4  11
BRANCH   2  20
ATOM     20  O   UNL     1       5.962  -0.571  24.109  0.00  0.00    -0.453 OA
BRANCH  20  21
ATOM     21  C   UNL     1       5.415  -1.691  24.759  0.00  0.00    +0.214 A 
ATOM     22  C   UNL     1       5.275  -3.017  24.040  0.00  0.00    +0.238 A 
ATOM     23  O   UNL     1       5.292  -3.103  22.817  0.00  0.00    -0.283 OA
ATOM     24  C   UNL     1       4.982  -4.219  24.825  0.00  0.00    +0.109 A 
ATOM     25  C   UNL     1       4.587  -4.036  26.137  0.00  0.00    +0.147 A 
ATOM     26  C   UNL     1       4.250  -5.131  26.940  0.00  0.00    +0.092 A 
ATOM     27  C   UNL     1       4.307  -6.413  26.401  0.00  0.00    +0.124 A 
ATOM     28  C   UNL     1       4.688  -6.612  25.080  0.00  0.00    +0.091 A 
ATOM     29  O   UNL     1       4.455  -2.796  26.690  0.00  0.00    -0.451 OA
ATOM     30  C   UNL     1       5.025  -5.515  24.291  0.00  0.00    +0.135 A 
ATOM     31  C   UNL     1       4.939  -1.664  26.031  0.00  0.00    +0.181 A 
BRANCH  31  32
ATOM     32  C   UNL     1       4.777  -0.466  26.942  0.00  0.00    +0.025 A 
ATOM     33  C   UNL     1       3.471   0.048  27.170  0.00  0.00    +0.015 A 
ATOM     34  C   UNL     1       3.241   1.259  27.838  0.00  0.00    +0.050 A 
ATOM     35  C   UNL     1       4.317   1.971  28.318  0.00  0.00    +0.158 A 
ATOM     36  C   UNL     1       5.610   1.475  28.155  0.00  0.00    +0.159 A 
ATOM     37  C   UNL     1       5.847   0.275  27.470  0.00  0.00    +0.060 A 
BRANCH  35  38
ATOM     38  O   UNL     1       4.105   3.168  28.937  0.00  0.00    -0.503 OA
ATOM     39  H   UNL     1       4.988   3.586  28.982  0.00  0.00    +0.292 HD
ENDBRANCH  35  38
BRANCH  36  40
ATOM     40  O   UNL     1       6.631   2.223  28.684  0.00  0.00    -0.503 OA
ATOM     41  H   UNL     1       6.266   3.079  28.980  0.00  0.00    +0.292 HD
ENDBRANCH  36  40
ENDBRANCH  31  32
BRANCH  30  42
ATOM     42  O   UNL     1       5.399  -5.735  22.995  0.00  0.00    -0.506 OA
ATOM     43  H   UNL     1       5.421  -4.897  22.505  0.00  0.00    +0.292 HD
ENDBRANCH  30  42
BRANCH  27  44
ATOM     44  O   UNL     1       3.992  -7.517  27.132  0.00  0.00    -0.507 OA
ATOM     45  H   UNL     1       3.323  -8.038  26.660  0.00  0.00    +0.292 HD
ENDBRANCH  27  44
ENDBRANCH  20  21
ENDBRANCH   2  20
BRANCH   1  46
ATOM     46  O   UNL     1       6.836   1.470  22.124  0.00  0.00    -0.337 OA
BRANCH  46  50
ATOM     47  C   UNL     1       7.193   5.665  22.188  0.00  0.00    +0.041 C 
ATOM     48  C   UNL     1       7.779   4.781  23.285  0.00  0.00    +0.149 C 
ATOM     49  O   UNL     1       7.846   3.416  22.889  0.00  0.00    -0.343 OA
ATOM     50  C   UNL     1       6.607   2.740  22.744  0.00  0.00    +0.282 C 
ATOM     51  C   UNL     1       5.999   2.588  24.149  0.00  0.00    +0.201 C 
ATOM     52  C   UNL     1       5.839   3.997  24.768  0.00  0.00    +0.179 C 
ATOM     53  C   UNL     1       7.127   4.838  24.670  0.00  0.00    +0.174 C 
BRANCH  51  54
ATOM     54  O   UNL     1       4.735   1.910  24.102  0.00  0.00    -0.384 OA
ATOM     55  H   UNL     1       4.500   1.821  23.157  0.00  0.00    +0.210 HD
ENDBRANCH  51  54
BRANCH  52  56
ATOM     56  O   UNL     1       4.704   4.652  24.177  0.00  0.00    -0.386 OA
ATOM     57  H   UNL     1       4.927   5.556  23.905  0.00  0.00    +0.210 HD
ENDBRANCH  52  56
BRANCH  53  58
ATOM     58  O   UNL     1       8.072   4.296  25.611  0.00  0.00    -0.387 OA
ATOM     59  H   UNL     1       8.949   4.232  25.177  0.00  0.00    +0.210 HD
ENDBRANCH  53  58
ENDBRANCH  46  50
ENDBRANCH   1  46
TORSDOF 20
ENDMDL
MODEL 7
REMARK VINA RESULT:      -6.7      2.809      6.218
REMARK  Name = 
REMARK  21 active torsions:
REMARK  status: ('A' for Active; 'I' for Inactive)
REMARK    1  A    between atoms: C_1  and  C_2
REMARK    2  A    between atoms: C_4  and  O_59
REMARK    3  A    between atoms: C_6  and  O_58
REMARK    4  A    between atoms: C_8  and  O_57
REMARK    5  A    between atoms: C_10  and  O_13
REMARK    6  A    between atoms: O_13  and  C_14
REMARK    7  A    between atoms: C_16  and  O_56
REMARK    8  A    between atoms: C_18  and  O_55
REMARK    9  A    between atoms: C_20  and  C_47
REMARK   10  A    between atoms: C_23  and  O_25
REMARK   11  A    between atoms: O_25  and  C_26
REMARK   12  A    between atoms: C_27  and  C_39
REMARK   13  A    between atoms: C_31  and  O_38
REMARK   14  A    between atoms: C_33  and  O_37
REMARK   15  A    between atoms: C_41  and  O_46
REMARK   16  A    between atoms: C_42  and  O_45
REMARK   17  A    between atoms: C_47  and  O_48
REMARK   18  A    between atoms: O_48  and  C_49
REMARK   19  A    between atoms: C_49  and  C_51
REMARK   20  A    between atoms: C_51  and  C_52
REMARK   21  A    between atoms: C_52  and  O_54
REMARK                            x       y       z     vdW  Elec       q    Type
REMARK                         _______ _______ _______ _____ _____    ______ ____
ROOT
ATOM      1  C   UNL     1       6.535   2.005  26.236  0.00  0.00    +0.221 C 
ATOM      2  C   UNL     1       6.028   0.542  26.111  0.00  0.00    +0.340 C 
ATOM      3  O   UNL     1       4.861   0.411  26.961  0.00  0.00    -0.330 OA
ATOM      4  C   UNL     1       5.227   0.479  28.363  0.00  0.00    +0.191 C 
ATOM      5  C   UNL     1       5.696   1.905  28.694  0.00  0.00    +0.178 C 
ATOM      6  C   UNL     1       6.817   2.269  27.732  0.00  0.00    +0.180 C 
ENDROOT
BRANCH   5   7
ATOM      7  O   UNL     1       6.263   1.976  30.018  0.00  0.00    -0.386 OA
ATOM      8  H   UNL     1       7.179   2.300  29.882  0.00  0.00    +0.210 HD
ENDBRANCH   5   7
BRANCH   6   9
ATOM      9  O   UNL     1       7.251   3.614  27.957  0.00  0.00    -0.386 OA
ATOM     10  H   UNL     1       8.226   3.576  27.899  0.00  0.00    +0.210 HD
ENDBRANCH   6   9
BRANCH   4  11
ATOM     11  C   UNL     1       4.081   0.021  29.285  0.00  0.00    +0.266 C 
BRANCH  11  12
ATOM     12  O   UNL     1       4.293  -1.335  29.760  0.00  0.00    -0.462 OA
BRANCH  12  13
ATOM     13  C   UNL     1       3.684  -2.328  29.049  0.00  0.00    +0.318 C 
ATOM     14  O   UNL     1       2.787  -2.159  28.238  0.00  0.00    -0.250 OA
BRANCH  13  15
ATOM     15  C   UNL     1       4.177  -3.685  29.460  0.00  0.00    +0.240 C 
BRANCH  15  16
ATOM     16  C   UNL     1       4.958  -4.418  28.416  0.00  0.00    +0.316 C 
ATOM     17  O   UNL     1       6.068  -4.892  28.610  0.00  0.00    -0.250 OA
BRANCH  16  18
ATOM     18  O   UNL     1       4.372  -4.450  27.199  0.00  0.00    -0.480 OA
ATOM     19  H   UNL     1       3.572  -5.016  27.165  0.00  0.00    +0.295 HD
ENDBRANCH  16  18
ENDBRANCH  15  16
ENDBRANCH  13  15
ENDBRANCH  12  13
ENDBRANCH  11  12
ENDBRANCH   4  11
BRANCH   2  20
ATOM     20  O   UNL     1       5.780   0.184  24.727  0.00  0.00    -0.453 OA
BRANCH  20  21
ATOM     21  C   UNL     1       6.158  -1.103  24.307  0.00  0.00    +0.214 A 
ATOM     22  C   UNL     1       5.226  -2.284  24.482  0.00  0.00    +0.238 A 
ATOM     23  O   UNL     1       4.290  -2.267  25.274  0.00  0.00    -0.283 OA
ATOM     24  C   UNL     1       5.526  -3.532  23.776  0.00  0.00    +0.109 A 
ATOM     25  C   UNL     1       6.780  -3.649  23.205  0.00  0.00    +0.147 A 
ATOM     26  C   UNL     1       7.158  -4.826  22.550  0.00  0.00    +0.092 A 
ATOM     27  C   UNL     1       6.260  -5.887  22.484  0.00  0.00    +0.124 A 
ATOM     28  C   UNL     1       5.003  -5.791  23.065  0.00  0.00    +0.091 A 
ATOM     29  O   UNL     1       7.716  -2.661  23.299  0.00  0.00    -0.451 OA
ATOM     30  C   UNL     1       4.634  -4.613  23.712  0.00  0.00    +0.135 A 
ATOM     31  C   UNL     1       7.372  -1.392  23.770  0.00  0.00    +0.181 A 
BRANCH  31  32
ATOM     32  C   UNL     1       8.572  -0.480  23.628  0.00  0.00    +0.025 A 
ATOM     33  C   UNL     1       9.498  -0.397  24.703  0.00  0.00    +0.015 A 
ATOM     34  C   UNL     1      10.527   0.554  24.743  0.00  0.00    +0.050 A 
ATOM     35  C   UNL     1      10.667   1.429  23.688  0.00  0.00    +0.158 A 
ATOM     36  C   UNL     1       9.806   1.347  22.595  0.00  0.00    +0.159 A 
ATOM     37  C   UNL     1       8.763   0.412  22.560  0.00  0.00    +0.060 A 
BRANCH  35  38
ATOM     38  O   UNL     1      11.642   2.382  23.735  0.00  0.00    -0.503 OA
ATOM     39  H   UNL     1      11.636   2.790  22.846  0.00  0.00    +0.292 HD
ENDBRANCH  35  38
BRANCH  36  40
ATOM     40  O   UNL     1      10.022   2.233  21.569  0.00  0.00    -0.503 OA
ATOM     41  H   UNL     1      10.077   3.132  21.945  0.00  0.00    +0.292 HD
ENDBRANCH  36  40
ENDBRANCH  31  32
BRANCH  30  42
ATOM     42  O   UNL     1       3.391  -4.540  24.274  0.00  0.00    -0.506 OA
ATOM     43  H   UNL     1       2.868  -5.322  24.035  0.00  0.00    +0.292 HD
ENDBRANCH  30  42
BRANCH  27  44
ATOM     44  O   UNL     1       6.570  -7.056  21.860  0.00  0.00    -0.507 OA
ATOM     45  H   UNL     1       5.883  -7.268  21.208  0.00  0.00    +0.292 HD
ENDBRANCH  27  44
ENDBRANCH  20  21
ENDBRANCH   2  20
BRANCH   1  46
ATOM     46  O   UNL     1       7.690   2.360  25.426  0.00  0.00    -0.337 OA
BRANCH  46  50
ATOM     47  C   UNL     1       9.040   6.062  23.944  0.00  0.00    +0.041 C 
ATOM     48  C   UNL     1       7.712   5.916  24.681  0.00  0.00    +0.149 C 
ATOM     49  O   UNL     1       7.627   4.680  25.382  0.00  0.00    -0.343 OA
ATOM     50  C   UNL     1       7.532   3.509  24.587  0.00  0.00    +0.282 C 
ATOM     51  C   UNL     1       6.156   3.529  23.900  0.00  0.00    +0.201 C 
ATOM     52  C   UNL     1       6.045   4.826  23.064  0.00  0.00    +0.179 C 
ATOM     53  C   UNL     1       6.424   6.085  23.868  0.00  0.00    +0.174 C 
BRANCH  51  54
ATOM     54  O   UNL     1       5.968   2.374  23.069  0.00  0.00    -0.384 OA
ATOM     55  H   UNL     1       6.814   1.881  23.081  0.00  0.00    +0.210 HD
ENDBRANCH  51  54
BRANCH  52  56
ATOM     56  O   UNL     1       6.819   4.685  21.860  0.00  0.00    -0.386 OA
ATOM     57  H   UNL     1       6.244   4.650  21.080  0.00  0.00    +0.210 HD
ENDBRANCH  52  56
BRANCH  53  58
ATOM     58  O   UNL     1       5.359   6.340  24.802  0.00  0.00    -0.387 OA
ATOM     59  H   UNL     1       4.707   6.941  24.382  0.00  0.00    +0.210 HD
ENDBRANCH  53  58
ENDBRANCH  46  50
ENDBRANCH   1  46
TORSDOF 20
ENDMDL
MODEL 8
REMARK VINA RESULT:      -6.7      2.834      6.240
REMARK  Name = 
REMARK  21 active torsions:
REMARK  status: ('A' for Active; 'I' for Inactive)
REMARK    1  A    between atoms: C_1  and  C_2
REMARK    2  A    between atoms: C_4  and  O_59
REMARK    3  A    between atoms: C_6  and  O_58
REMARK    4  A    between atoms: C_8  and  O_57
REMARK    5  A    between atoms: C_10  and  O_13
REMARK    6  A    between atoms: O_13  and  C_14
REMARK    7  A    between atoms: C_16  and  O_56
REMARK    8  A    between atoms: C_18  and  O_55
REMARK    9  A    between atoms: C_20  and  C_47
REMARK   10  A    between atoms: C_23  and  O_25
REMARK   11  A    between atoms: O_25  and  C_26
REMARK   12  A    between atoms: C_27  and  C_39
REMARK   13  A    between atoms: C_31  and  O_38
REMARK   14  A    between atoms: C_33  and  O_37
REMARK   15  A    between atoms: C_41  and  O_46
REMARK   16  A    between atoms: C_42  and  O_45
REMARK   17  A    between atoms: C_47  and  O_48
REMARK   18  A    between atoms: O_48  and  C_49
REMARK   19  A    between atoms: C_49  and  C_51
REMARK   20  A    between atoms: C_51  and  C_52
REMARK   21  A    between atoms: C_52  and  O_54
REMARK                            x       y       z     vdW  Elec       q    Type
REMARK                         _______ _______ _______ _____ _____    ______ ____
ROOT
ATOM      1  C   UNL     1       4.323  -2.076  26.236  0.00  0.00    +0.221 C 
ATOM      2  C   UNL     1       5.121  -0.848  25.718  0.00  0.00    +0.340 C 
ATOM      3  O   UNL     1       5.952  -0.377  26.808  0.00  0.00    -0.330 OA
ATOM      4  C   UNL     1       5.146   0.214  27.860  0.00  0.00    +0.191 C 
ATOM      5  C   UNL     1       4.325  -0.888  28.547  0.00  0.00    +0.178 C 
ATOM      6  C   UNL     1       3.527  -1.619  27.477  0.00  0.00    +0.180 C 
ENDROOT
BRANCH   5   7
ATOM      7  O   UNL     1       3.358  -0.330  29.460  0.00  0.00    -0.386 OA
ATOM      8  H   UNL     1       2.979   0.440  28.986  0.00  0.00    +0.210 HD
ENDBRANCH   5   7
BRANCH   6   9
ATOM      9  O   UNL     1       2.788  -2.699  28.057  0.00  0.00    -0.386 OA
ATOM     10  H   UNL     1       3.462  -3.368  28.289  0.00  0.00    +0.210 HD
ENDBRANCH   6   9
BRANCH   4  11
ATOM     11  C   UNL     1       5.999   1.009  28.867  0.00  0.00    +0.266 C 
BRANCH  11  12
ATOM     12  O   UNL     1       6.924   1.902  28.189  0.00  0.00    -0.462 OA
BRANCH  12  13
ATOM     13  C   UNL     1       6.866   3.218  28.548  0.00  0.00    +0.318 C 
ATOM     14  O   UNL     1       7.519   3.729  29.444  0.00  0.00    -0.250 OA
BRANCH  13  15
ATOM     15  C   UNL     1       5.816   3.957  27.771  0.00  0.00    +0.240 C 
BRANCH  15  16
ATOM     16  C   UNL     1       6.035   4.000  26.292  0.00  0.00    +0.316 C 
ATOM     17  O   UNL     1       6.600   4.919  25.718  0.00  0.00    -0.250 OA
BRANCH  16  18
ATOM     18  O   UNL     1       5.482   2.969  25.615  0.00  0.00    -0.480 OA
ATOM     19  H   UNL     1       4.581   2.738  25.922  0.00  0.00    +0.295 HD
ENDBRANCH  16  18
ENDBRANCH  15  16
ENDBRANCH  13  15
ENDBRANCH  12  13
ENDBRANCH  11  12
ENDBRANCH   4  11
BRANCH   2  20
ATOM     20  O   UNL     1       5.868  -1.169  24.516  0.00  0.00    -0.453 OA
BRANCH  20  21
ATOM     21  C   UNL     1       7.041  -0.438  24.262  0.00  0.00    +0.214 A 
ATOM     22  C   UNL     1       6.982   0.932  23.622  0.00  0.00    +0.238 A 
ATOM     23  O   UNL     1       6.002   1.320  22.995  0.00  0.00    -0.283 OA
ATOM     24  C   UNL     1       8.180   1.776  23.644  0.00  0.00    +0.109 A 
ATOM     25  C   UNL     1       9.370   1.173  24.008  0.00  0.00    +0.147 A 
ATOM     26  C   UNL     1      10.565   1.901  24.013  0.00  0.00    +0.092 A 
ATOM     27  C   UNL     1      10.548   3.241  23.639  0.00  0.00    +0.124 A 
ATOM     28  C   UNL     1       9.364   3.857  23.257  0.00  0.00    +0.091 A 
ATOM     29  O   UNL     1       9.447  -0.152  24.321  0.00  0.00    -0.451 OA
ATOM     30  C   UNL     1       8.178   3.125  23.259  0.00  0.00    +0.135 A 
ATOM     31  C   UNL     1       8.290  -0.909  24.519  0.00  0.00    +0.181 A 
BRANCH  31  32
ATOM     32  C   UNL     1       8.689  -2.292  24.986  0.00  0.00    +0.025 A 
ATOM     33  C   UNL     1       9.589  -3.051  24.189  0.00  0.00    +0.015 A 
ATOM     34  C   UNL     1       9.866  -4.402  24.438  0.00  0.00    +0.050 A 
ATOM     35  C   UNL     1       9.264  -5.019  25.513  0.00  0.00    +0.158 A 
ATOM     36  C   UNL     1       8.412  -4.294  26.346  0.00  0.00    +0.159 A 
ATOM     37  C   UNL     1       8.116  -2.948  26.088  0.00  0.00    +0.060 A 
BRANCH  35  38
ATOM     38  O   UNL     1       9.499  -6.343  25.742  0.00  0.00    -0.503 OA
ATOM     39  H   UNL     1       9.107  -6.803  24.972  0.00  0.00    +0.292 HD
ENDBRANCH  35  38
BRANCH  36  40
ATOM     40  O   UNL     1       7.871  -4.966  27.413  0.00  0.00    -0.503 OA
ATOM     41  H   UNL     1       7.412  -4.321  27.984  0.00  0.00    +0.292 HD
ENDBRANCH  36  40
ENDBRANCH  31  32
BRANCH  30  42
ATOM     42  O   UNL     1       7.024   3.752  22.881  0.00  0.00    -0.506 OA
ATOM     43  H   UNL     1       7.229   4.551  22.370  0.00  0.00    +0.292 HD
ENDBRANCH  30  42
BRANCH  27  44
ATOM     44  O   UNL     1      11.678   4.000  23.625  0.00  0.00    -0.507 OA
ATOM     45  H   UNL     1      11.833   4.335  22.727  0.00  0.00    +0.292 HD
ENDBRANCH  27  44
ENDBRANCH  20  21
ENDBRANCH   2  20
BRANCH   1  46
ATOM     46  O   UNL     1       3.446  -2.728  25.275  0.00  0.00    -0.337 OA
BRANCH  46  50
ATOM     47  C   UNL     1       2.142  -6.724  25.504  0.00  0.00    +0.041 C 
ATOM     48  C   UNL     1       3.371  -6.225  26.257  0.00  0.00    +0.149 C 
ATOM     49  O   UNL     1       3.419  -4.804  26.314  0.00  0.00    -0.343 OA
ATOM     50  C   UNL     1       3.661  -4.131  25.089  0.00  0.00    +0.282 C 
ATOM     51  C   UNL     1       5.111  -4.436  24.675  0.00  0.00    +0.201 C 
ATOM     52  C   UNL     1       5.273  -5.970  24.554  0.00  0.00    +0.179 C 
ATOM     53  C   UNL     1       4.744  -6.722  25.790  0.00  0.00    +0.174 C 
BRANCH  51  54
ATOM     54  O   UNL     1       5.450  -3.793  23.438  0.00  0.00    -0.384 OA
ATOM     55  H   UNL     1       5.719  -2.879  23.663  0.00  0.00    +0.210 HD
ENDBRANCH  51  54
BRANCH  52  56
ATOM     56  O   UNL     1       4.664  -6.418  23.331  0.00  0.00    -0.386 OA
ATOM     57  H   UNL     1       5.241  -7.042  22.863  0.00  0.00    +0.210 HD
ENDBRANCH  52  56
BRANCH  53  58
ATOM     58  O   UNL     1       5.671  -6.494  26.867  0.00  0.00    -0.387 OA
ATOM     59  H   UNL     1       5.298  -5.813  27.467  0.00  0.00    +0.210 HD
ENDBRANCH  53  58
ENDBRANCH  46  50
ENDBRANCH   1  46
TORSDOF 20
ENDMDL
MODEL 9
REMARK VINA RESULT:      -6.6      2.571      7.795
REMARK  Name = 
REMARK  21 active torsions:
REMARK  status: ('A' for Active; 'I' for Inactive)
REMARK    1  A    between atoms: C_1  and  C_2
REMARK    2  A    between atoms: C_4  and  O_59
REMARK    3  A    between atoms: C_6  and  O_58
REMARK    4  A    between atoms: C_8  and  O_57
REMARK    5  A    between atoms: C_10  and  O_13
REMARK    6  A    between atoms: O_13  and  C_14
REMARK    7  A    between atoms: C_16  and  O_56
REMARK    8  A    between atoms: C_18  and  O_55
REMARK    9  A    between atoms: C_20  and  C_47
REMARK   10  A    between atoms: C_23  and  O_25
REMARK   11  A    between atoms: O_25  and  C_26
REMARK   12  A    between atoms: C_27  and  C_39
REMARK   13  A    between atoms: C_31  and  O_38
REMARK   14  A    between atoms: C_33  and  O_37
REMARK   15  A    between atoms: C_41  and  O_46
REMARK   16  A    between atoms: C_42  and  O_45
REMARK   17  A    between atoms: C_47  and  O_48
REMARK   18  A    between atoms: O_48  and  C_49
REMARK   19  A    between atoms: C_49  and  C_51
REMARK   20  A    between atoms: C_51  and  C_52
REMARK   21  A    between atoms: C_52  and  O_54
REMARK                            x       y       z     vdW  Elec       q    Type
REMARK                         _______ _______ _______ _____ _____    ______ ____
ROOT
ATOM      1  C   UNL     1       4.991   0.467  26.381  0.00  0.00    +0.221 C 
ATOM      2  C   UNL     1       6.442   0.342  25.842  0.00  0.00    +0.340 C 
ATOM      3  O   UNL     1       7.193   1.475  26.346  0.00  0.00    -0.330 OA
ATOM      4  C   UNL     1       6.752   2.710  25.726  0.00  0.00    +0.191 C 
ATOM      5  C   UNL     1       5.331   3.038  26.209  0.00  0.00    +0.178 C 
ATOM      6  C   UNL     1       4.444   1.836  25.920  0.00  0.00    +0.180 C 
ENDROOT
BRANCH   5   7
ATOM      7  O   UNL     1       4.767   4.141  25.471  0.00  0.00    -0.386 OA
ATOM      8  H   UNL     1       4.034   3.748  24.951  0.00  0.00    +0.210 HD
ENDBRANCH   5   7
BRANCH   6   9
ATOM      9  O   UNL     1       3.118   2.066  26.406  0.00  0.00    -0.386 OA
ATOM     10  H   UNL     1       2.530   1.706  25.712  0.00  0.00    +0.210 HD
ENDBRANCH   6   9
BRANCH   4  11
ATOM     11  C   UNL     1       7.731   3.871  25.985  0.00  0.00    +0.266 C 
BRANCH  11  12
ATOM     12  O   UNL     1       7.562   4.935  25.011  0.00  0.00    -0.462 OA
BRANCH  12  13
ATOM     13  C   UNL     1       8.471   4.974  23.993  0.00  0.00    +0.318 C 
ATOM     14  O   UNL     1       9.683   4.935  24.135  0.00  0.00    -0.250 OA
BRANCH  13  15
ATOM     15  C   UNL     1       7.804   5.179  22.664  0.00  0.00    +0.240 C 
BRANCH  15  16
ATOM     16  C   UNL     1       6.618   4.305  22.409  0.00  0.00    +0.316 C 
ATOM     17  O   UNL     1       6.685   3.215  21.860  0.00  0.00    -0.250 OA
BRANCH  16  18
ATOM     18  O   UNL     1       5.434   4.852  22.764  0.00  0.00    -0.480 OA
ATOM     19  H   UNL     1       4.679   4.537  22.223  0.00  0.00    +0.295 HD
ENDBRANCH  16  18
ENDBRANCH  15  16
ENDBRANCH  13  15
ENDBRANCH  12  13
ENDBRANCH  11  12
ENDBRANCH   4  11
BRANCH   2  20
ATOM     20  O   UNL     1       7.027  -0.941  26.187  0.00  0.00    -0.453 OA
BRANCH  20  21
ATOM     21  C   UNL     1       7.116  -1.911  25.174  0.00  0.00    +0.214 A 
ATOM     22  C   UNL     1       6.387  -3.232  25.295  0.00  0.00    +0.238 A 
ATOM     23  O   UNL     1       5.988  -3.664  26.372  0.00  0.00    -0.283 OA
ATOM     24  C   UNL     1       6.263  -4.084  24.109  0.00  0.00    +0.109 A 
ATOM     25  C   UNL     1       7.046  -3.760  23.016  0.00  0.00    +0.147 A 
ATOM     26  C   UNL     1       7.017  -4.549  21.860  0.00  0.00    +0.092 A 
ATOM     27  C   UNL     1       6.195  -5.671  21.822  0.00  0.00    +0.124 A 
ATOM     28  C   UNL     1       5.414  -6.017  22.917  0.00  0.00    +0.091 A 
ATOM     29  O   UNL     1       7.913  -2.708  23.029  0.00  0.00    -0.451 OA
ATOM     30  C   UNL     1       5.447  -5.223  24.062  0.00  0.00    +0.135 A 
ATOM     31  C   UNL     1       7.879  -1.766  24.059  0.00  0.00    +0.181 A 
BRANCH  31  32
ATOM     32  C   UNL     1       8.851  -0.653  23.732  0.00  0.00    +0.025 A 
ATOM     33  C   UNL     1       9.908  -0.377  24.642  0.00  0.00    +0.015 A 
ATOM     34  C   UNL     1      10.736   0.747  24.521  0.00  0.00    +0.050 A 
ATOM     35  C   UNL     1      10.540   1.609  23.465  0.00  0.00    +0.158 A 
ATOM     36  C   UNL     1       9.544   1.346  22.525  0.00  0.00    +0.159 A 
ATOM     37  C   UNL     1       8.700   0.235  22.653  0.00  0.00    +0.060 A 
BRANCH  35  38
ATOM     38  O   UNL     1      11.318   2.725  23.360  0.00  0.00    -0.503 OA
ATOM     39  H   UNL     1      10.690   3.450  23.166  0.00  0.00    +0.292 HD
ENDBRANCH  35  38
BRANCH  36  40
ATOM     40  O   UNL     1       9.426   2.233  21.485  0.00  0.00    -0.503 OA
ATOM     41  H   UNL     1       8.882   2.987  21.782  0.00  0.00    +0.292 HD
ENDBRANCH  36  40
ENDBRANCH  31  32
BRANCH  30  42
ATOM     42  O   UNL     1       4.669  -5.581  25.126  0.00  0.00    -0.506 OA
ATOM     43  H   UNL     1       4.188  -6.402  24.929  0.00  0.00    +0.292 HD
ENDBRANCH  30  42
BRANCH  27  44
ATOM     44  O   UNL     1       6.123  -6.475  20.727  0.00  0.00    -0.507 OA
ATOM     45  H   UNL     1       5.310  -6.281  20.234  0.00  0.00    +0.292 HD
ENDBRANCH  27  44
ENDBRANCH  20  21
ENDBRANCH   2  20
BRANCH   1  46
ATOM     46  O   UNL     1       4.072  -0.601  26.017  0.00  0.00    -0.337 OA
BRANCH  46  50
ATOM     47  C   UNL     1       3.051  -0.887  30.091  0.00  0.00    +0.041 C 
ATOM     48  C   UNL     1       3.903  -1.941  29.390  0.00  0.00    +0.149 C 
ATOM     49  O   UNL     1       4.404  -1.474  28.142  0.00  0.00    -0.343 OA
ATOM     50  C   UNL     1       3.450  -1.285  27.110  0.00  0.00    +0.282 C 
ATOM     51  C   UNL     1       2.938  -2.675  26.696  0.00  0.00    +0.201 C 
ATOM     52  C   UNL     1       2.337  -3.367  27.943  0.00  0.00    +0.179 C 
ATOM     53  C   UNL     1       3.282  -3.322  29.159  0.00  0.00    +0.174 C 
BRANCH  51  54
ATOM     54  O   UNL     1       1.962  -2.584  25.648  0.00  0.00    -0.384 OA
ATOM     55  H   UNL     1       1.843  -1.631  25.459  0.00  0.00    +0.210 HD
ENDBRANCH  51  54
BRANCH  52  56
ATOM     56  O   UNL     1       1.045  -2.802  28.224  0.00  0.00    -0.386 OA
ATOM     57  H   UNL     1       1.006  -2.459  29.131  0.00  0.00    +0.210 HD
ENDBRANCH  52  56
BRANCH  53  58
ATOM     58  O   UNL     1       4.361  -4.240  28.904  0.00  0.00    -0.387 OA
ATOM     59  H   UNL     1       5.057  -3.775  28.392  0.00  0.00    +0.210 HD
ENDBRANCH  53  58
ENDBRANCH  46  50
ENDBRANCH   1  46
TORSDOF 20
ENDMDL
