MODEL 1
REMARK VINA RESULT:      -7.6      0.000      0.000
REMARK  Name = 
REMARK  16 active torsions:
REMARK  status: ('A' for Active; 'I' for Inactive)
REMARK    1  A    between atoms: C_2  and  O_47
REMARK    2  A    between atoms: C_4  and  O_46
REMARK    3  A    between atoms: C_6  and  O_45
REMARK    4  A    between atoms: C_7  and  O_10
REMARK    5  A    between atoms: O_10  and  C_11
REMARK    6  A    between atoms: C_11  and  C_12
REMARK    7  A    between atoms: C_13  and  O_44
REMARK    8  A    between atoms: C_15  and  O_43
REMARK    9  A    between atoms: C_16  and  O_42
REMARK   10  A    between atoms: C_17  and  O_20
REMARK   11  A    between atoms: O_20  and  C_21
REMARK   12  A    between atoms: C_22  and  C_34
REMARK   13  A    between atoms: C_26  and  O_33
REMARK   14  A    between atoms: C_28  and  O_32
REMARK   15  A    between atoms: C_36  and  O_41
REMARK   16  A    between atoms: C_37  and  O_40
REMARK                            x       y       z     vdW  Elec       q    Type
REMARK                         _______ _______ _______ _____ _____    ______ ____
ROOT
ATOM      1  C   UNL     1       9.677  -0.427  22.456  0.00  0.00    +0.179 C 
ATOM      2  O   UNL     1       9.933  -0.629  23.882  0.00  0.00    -0.331 OA
ATOM      3  C   UNL     1       8.741  -0.355  24.662  0.00  0.00    +0.340 C 
ATOM      4  C   UNL     1       8.463   1.158  24.584  0.00  0.00    +0.214 C 
ATOM      5  C   UNL     1       8.196   1.542  23.122  0.00  0.00    +0.180 C 
ATOM      6  C   UNL     1       9.341   1.056  22.203  0.00  0.00    +0.177 C 
ENDROOT
BRANCH   4   7
ATOM      7  O   UNL     1       9.597   1.927  25.044  0.00  0.00    -0.383 OA
ATOM      8  H   UNL     1       9.978   1.441  25.800  0.00  0.00    +0.210 HD
ENDBRANCH   4   7
BRANCH   5   9
ATOM      9  O   UNL     1       8.077   2.976  23.039  0.00  0.00    -0.386 OA
ATOM     10  H   UNL     1       7.225   3.196  23.464  0.00  0.00    +0.210 HD
ENDBRANCH   5   9
BRANCH   6  11
ATOM     11  O   UNL     1       9.013   1.299  20.836  0.00  0.00    -0.386 OA
ATOM     12  H   UNL     1       9.258   0.510  20.324  0.00  0.00    +0.210 HD
ENDBRANCH   6  11
BRANCH   1  13
ATOM     13  C   UNL     1       8.621  -1.449  21.974  0.00  0.00    +0.197 C 
BRANCH  13  14
ATOM     14  O   UNL     1       8.605  -2.742  22.578  0.00  0.00    -0.346 OA
BRANCH  14  17
ATOM     15  C   UNL     1       5.088  -3.372  23.124  0.00  0.00    +0.197 C 
ATOM     16  O   UNL     1       6.420  -2.909  23.331  0.00  0.00    -0.346 OA
ATOM     17  C   UNL     1       7.321  -3.340  22.302  0.00  0.00    +0.281 C 
ATOM     18  C   UNL     1       7.408  -4.883  22.296  0.00  0.00    +0.201 C 
ATOM     19  C   UNL     1       5.987  -5.431  22.051  0.00  0.00    +0.178 C 
ATOM     20  C   UNL     1       5.032  -4.896  23.129  0.00  0.00    +0.171 C 
BRANCH  18  21
ATOM     21  O   UNL     1       7.893  -5.351  23.570  0.00  0.00    -0.384 OA
ATOM     22  H   UNL     1       8.852  -5.175  23.578  0.00  0.00    +0.210 HD
ENDBRANCH  18  21
BRANCH  19  23
ATOM     23  O   UNL     1       5.954  -6.861  22.039  0.00  0.00    -0.386 OA
ATOM     24  H   UNL     1       5.965  -7.131  22.979  0.00  0.00    +0.210 HD
ENDBRANCH  19  23
BRANCH  20  25
ATOM     25  O   UNL     1       3.704  -5.355  22.865  0.00  0.00    -0.387 OA
ATOM     26  H   UNL     1       3.122  -4.908  23.507  0.00  0.00    +0.210 HD
ENDBRANCH  20  25
ENDBRANCH  14  17
ENDBRANCH  13  14
ENDBRANCH   1  13
BRANCH   3  27
ATOM     27  O   UNL     1       8.882  -0.796  26.022  0.00  0.00    -0.453 OA
BRANCH  27  28
ATOM     28  C   UNL     1       7.842  -1.630  26.465  0.00  0.00    +0.214 A 
ATOM     29  C   UNL     1       7.944  -3.126  26.306  0.00  0.00    +0.238 A 
ATOM     30  O   UNL     1       8.872  -3.630  25.684  0.00  0.00    -0.283 OA
ATOM     31  C   UNL     1       6.890  -3.958  26.903  0.00  0.00    +0.109 A 
ATOM     32  C   UNL     1       5.756  -3.312  27.378  0.00  0.00    +0.147 A 
ATOM     33  C   UNL     1       4.665  -4.056  27.842  0.00  0.00    +0.092 A 
ATOM     34  C   UNL     1       4.732  -5.446  27.835  0.00  0.00    +0.124 A 
ATOM     35  C   UNL     1       5.877  -6.105  27.407  0.00  0.00    +0.091 A 
ATOM     36  O   UNL     1       5.636  -1.947  27.409  0.00  0.00    -0.451 OA
ATOM     37  C   UNL     1       6.962  -5.361  26.951  0.00  0.00    +0.135 A 
ATOM     38  C   UNL     1       6.696  -1.142  26.988  0.00  0.00    +0.181 A 
BRANCH  38  39
ATOM     39  C   UNL     1       6.393   0.314  27.150  0.00  0.00    +0.025 A 
ATOM     40  C   UNL     1       5.337   0.887  26.406  0.00  0.00    +0.015 A 
ATOM     41  C   UNL     1       4.997   2.238  26.532  0.00  0.00    +0.050 A 
ATOM     42  C   UNL     1       5.717   3.038  27.399  0.00  0.00    +0.158 A 
ATOM     43  C   UNL     1       6.762   2.505  28.142  0.00  0.00    +0.159 A 
ATOM     44  C   UNL     1       7.092   1.153  28.038  0.00  0.00    +0.060 A 
BRANCH  42  45
ATOM     45  O   UNL     1       5.392   4.358  27.521  0.00  0.00    -0.503 OA
ATOM     46  H   UNL     1       4.697   4.379  28.208  0.00  0.00    +0.292 HD
ENDBRANCH  42  45
BRANCH  43  47
ATOM     47  O   UNL     1       7.446   3.354  28.970  0.00  0.00    -0.503 OA
ATOM     48  H   UNL     1       8.040   2.821  29.529  0.00  0.00    +0.292 HD
ENDBRANCH  43  47
ENDBRANCH  38  39
BRANCH  34  49
ATOM     49  O   UNL     1       3.685  -6.219  28.243  0.00  0.00    -0.507 OA
ATOM     50  H   UNL     1       3.163  -6.491  27.471  0.00  0.00    +0.292 HD
ENDBRANCH  34  49
BRANCH  37  51
ATOM     51  O   UNL     1       8.099  -6.020  26.581  0.00  0.00    -0.506 OA
ATOM     52  H   UNL     1       8.753  -5.992  27.300  0.00  0.00    +0.292 HD
ENDBRANCH  37  51
ENDBRANCH  27  28
ENDBRANCH   3  27
TORSDOF 16
ENDMDL
MODEL 2
REMARK VINA RESULT:      -7.4      1.298      6.724
REMARK  Name = 
REMARK  16 active torsions:
REMARK  status: ('A' for Active; 'I' for Inactive)
REMARK    1  A    between atoms: C_2  and  O_47
REMARK    2  A    between atoms: C_4  and  O_46
REMARK    3  A    between atoms: C_6  and  O_45
REMARK    4  A    between atoms: C_7  and  O_10
REMARK    5  A    between atoms: O_10  and  C_11
REMARK    6  A    between atoms: C_11  and  C_12
REMARK    7  A    between atoms: C_13  and  O_44
REMARK    8  A    between atoms: C_15  and  O_43
REMARK    9  A    between atoms: C_16  and  O_42
REMARK   10  A    between atoms: C_17  and  O_20
REMARK   11  A    between atoms: O_20  and  C_21
REMARK   12  A    between atoms: C_22  and  C_34
REMARK   13  A    between atoms: C_26  and  O_33
REMARK   14  A    between atoms: C_28  and  O_32
REMARK   15  A    between atoms: C_36  and  O_41
REMARK   16  A    between atoms: C_37  and  O_40
REMARK                            x       y       z     vdW  Elec       q    Type
REMARK                         _______ _______ _______ _____ _____    ______ ____
ROOT
ATOM      1  C   UNL     1       7.368  -3.297  22.276  0.00  0.00    +0.179 C 
ATOM      2  O   UNL     1       6.228  -2.487  22.709  0.00  0.00    -0.331 OA
ATOM      3  C   UNL     1       5.734  -2.941  23.996  0.00  0.00    +0.340 C 
ATOM      4  C   UNL     1       5.099  -4.329  23.794  0.00  0.00    +0.214 C 
ATOM      5  C   UNL     1       6.179  -5.307  23.306  0.00  0.00    +0.180 C 
ATOM      6  C   UNL     1       6.907  -4.752  22.060  0.00  0.00    +0.177 C 
ENDROOT
BRANCH   4   7
ATOM      7  O   UNL     1       4.053  -4.292  22.797  0.00  0.00    -0.383 OA
ATOM      8  H   UNL     1       4.494  -4.272  21.927  0.00  0.00    +0.210 HD
ENDBRANCH   4   7
BRANCH   5   9
ATOM      9  O   UNL     1       5.550  -6.563  22.987  0.00  0.00    -0.386 OA
ATOM     10  H   UNL     1       5.981  -6.874  22.166  0.00  0.00    +0.210 HD
ENDBRANCH   5   9
BRANCH   6  11
ATOM     11  O   UNL     1       7.994  -5.604  21.703  0.00  0.00    -0.386 OA
ATOM     12  H   UNL     1       8.072  -6.291  22.386  0.00  0.00    +0.210 HD
ENDBRANCH   6  11
BRANCH   1  13
ATOM     13  C   UNL     1       8.541  -3.101  23.264  0.00  0.00    +0.197 C 
BRANCH  13  14
ATOM     14  O   UNL     1       9.790  -2.642  22.749  0.00  0.00    -0.346 OA
BRANCH  14  17
ATOM     15  C   UNL     1       9.099   0.247  24.809  0.00  0.00    +0.197 C 
ATOM     16  O   UNL     1       8.948  -1.021  24.175  0.00  0.00    -0.346 OA
ATOM     17  C   UNL     1      10.012  -1.310  23.257  0.00  0.00    +0.281 C 
ATOM     18  C   UNL     1      10.016  -0.265  22.117  0.00  0.00    +0.201 C 
ATOM     19  C   UNL     1      10.201   1.125  22.757  0.00  0.00    +0.178 C 
ATOM     20  C   UNL     1       9.087   1.376  23.784  0.00  0.00    +0.171 C 
BRANCH  18  21
ATOM     21  O   UNL     1       8.762  -0.309  21.410  0.00  0.00    -0.384 OA
ATOM     22  H   UNL     1       8.064  -0.195  22.082  0.00  0.00    +0.210 HD
ENDBRANCH  18  21
BRANCH  19  23
ATOM     23  O   UNL     1      10.207   2.172  21.783  0.00  0.00    -0.386 OA
ATOM     24  H   UNL     1       9.307   2.179  21.400  0.00  0.00    +0.210 HD
ENDBRANCH  19  23
BRANCH  20  25
ATOM     25  O   UNL     1       9.295   2.639  24.420  0.00  0.00    -0.387 OA
ATOM     26  H   UNL     1       9.438   2.455  25.367  0.00  0.00    +0.210 HD
ENDBRANCH  20  25
ENDBRANCH  14  17
ENDBRANCH  13  14
ENDBRANCH   1  13
BRANCH   3  27
ATOM     27  O   UNL     1       4.799  -2.011  24.564  0.00  0.00    -0.453 OA
BRANCH  27  28
ATOM     28  C   UNL     1       5.334  -1.213  25.589  0.00  0.00    +0.214 A 
ATOM     29  C   UNL     1       5.551   0.263  25.371  0.00  0.00    +0.238 A 
ATOM     30  O   UNL     1       5.378   0.768  24.267  0.00  0.00    -0.283 OA
ATOM     31  C   UNL     1       5.990   1.074  26.516  0.00  0.00    +0.109 A 
ATOM     32  C   UNL     1       6.394   0.398  27.660  0.00  0.00    +0.147 A 
ATOM     33  C   UNL     1       6.941   1.105  28.737  0.00  0.00    +0.092 A 
ATOM     34  C   UNL     1       7.065   2.490  28.656  0.00  0.00    +0.124 A 
ATOM     35  C   UNL     1       6.622   3.183  27.537  0.00  0.00    +0.091 A 
ATOM     36  O   UNL     1       6.295  -0.961  27.796  0.00  0.00    -0.451 OA
ATOM     37  C   UNL     1       6.073   2.476  26.470  0.00  0.00    +0.135 A 
ATOM     38  C   UNL     1       5.733  -1.727  26.773  0.00  0.00    +0.181 A 
BRANCH  38  39
ATOM     39  C   UNL     1       5.663  -3.178  27.131  0.00  0.00    +0.025 A 
ATOM     40  C   UNL     1       4.403  -3.765  27.392  0.00  0.00    +0.015 A 
ATOM     41  C   UNL     1       4.277  -5.121  27.714  0.00  0.00    +0.050 A 
ATOM     42  C   UNL     1       5.411  -5.906  27.787  0.00  0.00    +0.158 A 
ATOM     43  C   UNL     1       6.663  -5.358  27.538  0.00  0.00    +0.159 A 
ATOM     44  C   UNL     1       6.794  -4.012  27.196  0.00  0.00    +0.060 A 
BRANCH  42  45
ATOM     45  O   UNL     1       5.292  -7.229  28.105  0.00  0.00    -0.503 OA
ATOM     46  H   UNL     1       5.857  -7.691  27.455  0.00  0.00    +0.292 HD
ENDBRANCH  42  45
BRANCH  43  47
ATOM     47  O   UNL     1       7.748  -6.187  27.644  0.00  0.00    -0.503 OA
ATOM     48  H   UNL     1       7.447  -7.100  27.494  0.00  0.00    +0.292 HD
ENDBRANCH  43  47
ENDBRANCH  38  39
BRANCH  34  49
ATOM     49  O   UNL     1       7.622   3.223  29.661  0.00  0.00    -0.507 OA
ATOM     50  H   UNL     1       7.063   3.994  29.848  0.00  0.00    +0.292 HD
ENDBRANCH  34  49
BRANCH  37  51
ATOM     51  O   UNL     1       5.596   3.174  25.398  0.00  0.00    -0.506 OA
ATOM     52  H   UNL     1       5.469   2.579  24.640  0.00  0.00    +0.292 HD
ENDBRANCH  37  51
ENDBRANCH  27  28
ENDBRANCH   3  27
TORSDOF 16
ENDMDL
MODEL 3
REMARK VINA RESULT:      -7.2      2.453      7.404
REMARK  Name = 
REMARK  16 active torsions:
REMARK  status: ('A' for Active; 'I' for Inactive)
REMARK    1  A    between atoms: C_2  and  O_47
REMARK    2  A    between atoms: C_4  and  O_46
REMARK    3  A    between atoms: C_6  and  O_45
REMARK    4  A    between atoms: C_7  and  O_10
REMARK    5  A    between atoms: O_10  and  C_11
REMARK    6  A    between atoms: C_11  and  C_12
REMARK    7  A    between atoms: C_13  and  O_44
REMARK    8  A    between atoms: C_15  and  O_43
REMARK    9  A    between atoms: C_16  and  O_42
REMARK   10  A    between atoms: C_17  and  O_20
REMARK   11  A    between atoms: O_20  and  C_21
REMARK   12  A    between atoms: C_22  and  C_34
REMARK   13  A    between atoms: C_26  and  O_33
REMARK   14  A    between atoms: C_28  and  O_32
REMARK   15  A    between atoms: C_36  and  O_41
REMARK   16  A    between atoms: C_37  and  O_40
REMARK                            x       y       z     vdW  Elec       q    Type
REMARK                         _______ _______ _______ _____ _____    ______ ____
ROOT
ATOM      1  C   UNL     1       4.764  -0.300  26.360  0.00  0.00    +0.179 C 
ATOM      2  O   UNL     1       4.938   0.624  25.239  0.00  0.00    -0.331 OA
ATOM      3  C   UNL     1       6.319   1.059  25.140  0.00  0.00    +0.340 C 
ATOM      4  C   UNL     1       6.619   1.953  26.358  0.00  0.00    +0.214 C 
ATOM      5  C   UNL     1       6.452   1.124  27.640  0.00  0.00    +0.180 C 
ATOM      6  C   UNL     1       5.067   0.437  27.680  0.00  0.00    +0.177 C 
ENDROOT
BRANCH   4   7
ATOM      7  O   UNL     1       5.705   3.070  26.431  0.00  0.00    -0.383 OA
ATOM      8  H   UNL     1       5.609   3.294  27.376  0.00  0.00    +0.210 HD
ENDBRANCH   4   7
BRANCH   5   9
ATOM      9  O   UNL     1       6.597   2.000  28.775  0.00  0.00    -0.386 OA
ATOM     10  H   UNL     1       6.088   1.583  29.498  0.00  0.00    +0.210 HD
ENDBRANCH   5   9
BRANCH   6  11
ATOM     11  O   UNL     1       4.981  -0.435  28.805  0.00  0.00    -0.386 OA
ATOM     12  H   UNL     1       5.709  -0.216  29.410  0.00  0.00    +0.210 HD
ENDBRANCH   6  11
BRANCH   1  13
ATOM     13  C   UNL     1       5.587  -1.583  26.101  0.00  0.00    +0.197 C 
BRANCH  13  14
ATOM     14  O   UNL     1       5.563  -2.149  24.791  0.00  0.00    -0.346 OA
BRANCH  14  17
ATOM     15  C   UNL     1       5.701  -5.741  25.173  0.00  0.00    +0.197 C 
ATOM     16  O   UNL     1       6.118  -4.391  24.982  0.00  0.00    -0.346 OA
ATOM     17  C   UNL     1       5.013  -3.479  24.897  0.00  0.00    +0.281 C 
ATOM     18  C   UNL     1       4.141  -3.829  23.670  0.00  0.00    +0.201 C 
ATOM     19  C   UNL     1       3.648  -5.279  23.843  0.00  0.00    +0.178 C 
ATOM     20  C   UNL     1       4.850  -6.221  24.002  0.00  0.00    +0.171 C 
BRANCH  18  21
ATOM     21  O   UNL     1       4.927  -3.727  22.466  0.00  0.00    -0.384 OA
ATOM     22  H   UNL     1       5.163  -2.785  22.372  0.00  0.00    +0.210 HD
ENDBRANCH  18  21
BRANCH  19  23
ATOM     23  O   UNL     1       2.835  -5.708  22.748  0.00  0.00    -0.386 OA
ATOM     24  H   UNL     1       3.319  -6.453  22.340  0.00  0.00    +0.210 HD
ENDBRANCH  19  23
BRANCH  20  25
ATOM     25  O   UNL     1       4.389  -7.556  24.225  0.00  0.00    -0.387 OA
ATOM     26  H   UNL     1       3.965  -7.846  23.396  0.00  0.00    +0.210 HD
ENDBRANCH  20  25
ENDBRANCH  14  17
ENDBRANCH  13  14
ENDBRANCH   1  13
BRANCH   3  27
ATOM     27  O   UNL     1       6.573   1.747  23.906  0.00  0.00    -0.453 OA
BRANCH  27  28
ATOM     28  C   UNL     1       7.880   2.249  23.787  0.00  0.00    +0.214 A 
ATOM     29  C   UNL     1       8.121   3.735  23.711  0.00  0.00    +0.238 A 
ATOM     30  O   UNL     1       7.185   4.521  23.631  0.00  0.00    -0.283 OA
ATOM     31  C   UNL     1       9.513   4.210  23.718  0.00  0.00    +0.109 A 
ATOM     32  C   UNL     1      10.514   3.259  23.567  0.00  0.00    +0.147 A 
ATOM     33  C   UNL     1      11.849   3.659  23.440  0.00  0.00    +0.092 A 
ATOM     34  C   UNL     1      12.165   5.015  23.478  0.00  0.00    +0.124 A 
ATOM     35  C   UNL     1      11.180   5.973  23.675  0.00  0.00    +0.091 A 
ATOM     36  O   UNL     1      10.262   1.914  23.523  0.00  0.00    -0.451 OA
ATOM     37  C   UNL     1       9.853   5.570  23.808  0.00  0.00    +0.135 A 
ATOM     38  C   UNL     1       8.957   1.441  23.673  0.00  0.00    +0.181 A 
BRANCH  38  39
ATOM     39  C   UNL     1       8.895  -0.054  23.653  0.00  0.00    +0.025 A 
ATOM     40  C   UNL     1       9.490  -0.784  24.707  0.00  0.00    +0.015 A 
ATOM     41  C   UNL     1       9.447  -2.182  24.749  0.00  0.00    +0.050 A 
ATOM     42  C   UNL     1       8.813  -2.869  23.731  0.00  0.00    +0.158 A 
ATOM     43  C   UNL     1       8.221  -2.179  22.681  0.00  0.00    +0.159 A 
ATOM     44  C   UNL     1       8.242  -0.785  22.644  0.00  0.00    +0.060 A 
BRANCH  42  45
ATOM     45  O   UNL     1       8.773  -4.233  23.766  0.00  0.00    -0.503 OA
ATOM     46  H   UNL     1       9.629  -4.515  23.388  0.00  0.00    +0.292 HD
ENDBRANCH  42  45
BRANCH  43  47
ATOM     47  O   UNL     1       7.624  -2.920  21.695  0.00  0.00    -0.503 OA
ATOM     48  H   UNL     1       8.034  -3.803  21.689  0.00  0.00    +0.292 HD
ENDBRANCH  43  47
ENDBRANCH  38  39
BRANCH  34  49
ATOM     49  O   UNL     1      13.444   5.461  23.324  0.00  0.00    -0.507 OA
ATOM     50  H   UNL     1      13.477   6.416  23.493  0.00  0.00    +0.292 HD
ENDBRANCH  34  49
BRANCH  37  51
ATOM     51  O   UNL     1       8.901   6.519  24.051  0.00  0.00    -0.506 OA
ATOM     52  H   UNL     1       8.400   6.293  24.852  0.00  0.00    +0.292 HD
ENDBRANCH  37  51
ENDBRANCH  27  28
ENDBRANCH   3  27
TORSDOF 16
ENDMDL
MODEL 4
REMARK VINA RESULT:      -7.1      3.111      6.542
REMARK  Name = 
REMARK  16 active torsions:
REMARK  status: ('A' for Active; 'I' for Inactive)
REMARK    1  A    between atoms: C_2  and  O_47
REMARK    2  A    between atoms: C_4  and  O_46
REMARK    3  A    between atoms: C_6  and  O_45
REMARK    4  A    between atoms: C_7  and  O_10
REMARK    5  A    between atoms: O_10  and  C_11
REMARK    6  A    between atoms: C_11  and  C_12
REMARK    7  A    between atoms: C_13  and  O_44
REMARK    8  A    between atoms: C_15  and  O_43
REMARK    9  A    between atoms: C_16  and  O_42
REMARK   10  A    between atoms: C_17  and  O_20
REMARK   11  A    between atoms: O_20  and  C_21
REMARK   12  A    between atoms: C_22  and  C_34
REMARK   13  A    between atoms: C_26  and  O_33
REMARK   14  A    between atoms: C_28  and  O_32
REMARK   15  A    between atoms: C_36  and  O_41
REMARK   16  A    between atoms: C_37  and  O_40
REMARK                            x       y       z     vdW  Elec       q    Type
REMARK                         _______ _______ _______ _____ _____    ______ ____
ROOT
ATOM      1  C   UNL     1       8.589  -1.829  25.142  0.00  0.00    +0.179 C 
ATOM      2  O   UNL     1       9.015  -0.503  25.590  0.00  0.00    -0.331 OA
ATOM      3  C   UNL     1       8.781   0.489  24.557  0.00  0.00    +0.340 C 
ATOM      4  C   UNL     1       9.754   0.200  23.398  0.00  0.00    +0.214 C 
ATOM      5  C   UNL     1       9.450  -1.192  22.825  0.00  0.00    +0.180 C 
ATOM      6  C   UNL     1       9.452  -2.263  23.941  0.00  0.00    +0.177 C 
ENDROOT
BRANCH   4   7
ATOM      7  O   UNL     1      11.127   0.204  23.848  0.00  0.00    -0.383 OA
ATOM      8  H   UNL     1      11.674   0.457  23.080  0.00  0.00    +0.210 HD
ENDBRANCH   4   7
BRANCH   5   9
ATOM      9  O   UNL     1      10.450  -1.511  21.839  0.00  0.00    -0.386 OA
ATOM     10  H   UNL     1      10.535  -2.484  21.853  0.00  0.00    +0.210 HD
ENDBRANCH   5   9
BRANCH   6  11
ATOM     11  O   UNL     1       9.035  -3.522  23.416  0.00  0.00    -0.386 OA
ATOM     12  H   UNL     1       8.067  -3.506  23.331  0.00  0.00    +0.210 HD
ENDBRANCH   6  11
BRANCH   1  13
ATOM     13  C   UNL     1       7.060  -1.826  24.908  0.00  0.00    +0.197 C 
BRANCH  13  14
ATOM     14  O   UNL     1       6.554  -2.459  23.734  0.00  0.00    -0.346 OA
BRANCH  14  17
ATOM     15  C   UNL     1       6.024  -5.892  24.736  0.00  0.00    +0.197 C 
ATOM     16  O   UNL     1       6.667  -4.716  24.250  0.00  0.00    -0.346 OA
ATOM     17  C   UNL     1       5.773  -3.598  24.152  0.00  0.00    +0.281 C 
ATOM     18  C   UNL     1       4.651  -3.915  23.137  0.00  0.00    +0.201 C 
ATOM     19  C   UNL     1       3.910  -5.173  23.635  0.00  0.00    +0.178 C 
ATOM     20  C   UNL     1       4.906  -6.331  23.797  0.00  0.00    +0.171 C 
BRANCH  18  21
ATOM     21  O   UNL     1       5.223  -4.174  21.840  0.00  0.00    -0.384 OA
ATOM     22  H   UNL     1       5.958  -3.541  21.734  0.00  0.00    +0.210 HD
ENDBRANCH  18  21
BRANCH  19  23
ATOM     23  O   UNL     1       2.852  -5.561  22.755  0.00  0.00    -0.386 OA
ATOM     24  H   UNL     1       3.268  -5.666  21.876  0.00  0.00    +0.210 HD
ENDBRANCH  19  23
BRANCH  20  25
ATOM     25  O   UNL     1       4.229  -7.478  24.317  0.00  0.00    -0.387 OA
ATOM     26  H   UNL     1       3.503  -7.144  24.876  0.00  0.00    +0.210 HD
ENDBRANCH  20  25
ENDBRANCH  14  17
ENDBRANCH  13  14
ENDBRANCH   1  13
BRANCH   3  27
ATOM     27  O   UNL     1       8.939   1.825  25.057  0.00  0.00    -0.453 OA
BRANCH  27  28
ATOM     28  C   UNL     1       8.064   2.761  24.480  0.00  0.00    +0.214 A 
ATOM     29  C   UNL     1       6.582   2.492  24.436  0.00  0.00    +0.238 A 
ATOM     30  O   UNL     1       6.128   1.410  24.790  0.00  0.00    -0.283 OA
ATOM     31  C   UNL     1       5.700   3.559  23.940  0.00  0.00    +0.109 A 
ATOM     32  C   UNL     1       6.301   4.656  23.336  0.00  0.00    +0.147 A 
ATOM     33  C   UNL     1       5.515   5.644  22.732  0.00  0.00    +0.092 A 
ATOM     34  C   UNL     1       4.128   5.523  22.753  0.00  0.00    +0.124 A 
ATOM     35  C   UNL     1       3.513   4.456  23.395  0.00  0.00    +0.091 A 
ATOM     36  O   UNL     1       7.659   4.827  23.285  0.00  0.00    -0.451 OA
ATOM     37  C   UNL     1       4.299   3.479  23.999  0.00  0.00    +0.135 A 
ATOM     38  C   UNL     1       8.504   3.895  23.892  0.00  0.00    +0.181 A 
BRANCH  38  39
ATOM     39  C   UNL     1       9.944   4.285  23.777  0.00  0.00    +0.025 A 
ATOM     40  C   UNL     1      10.830   3.451  23.057  0.00  0.00    +0.015 A 
ATOM     41  C   UNL     1      12.182   3.776  22.901  0.00  0.00    +0.050 A 
ATOM     42  C   UNL     1      12.668   4.936  23.472  0.00  0.00    +0.158 A 
ATOM     43  C   UNL     1      11.823   5.775  24.188  0.00  0.00    +0.159 A 
ATOM     44  C   UNL     1      10.469   5.468  24.329  0.00  0.00    +0.060 A 
BRANCH  42  45
ATOM     45  O   UNL     1      13.988   5.254  23.327  0.00  0.00    -0.503 OA
ATOM     46  H   UNL     1      14.463   4.416  23.489  0.00  0.00    +0.292 HD
ENDBRANCH  42  45
BRANCH  43  47
ATOM     47  O   UNL     1      12.371   6.901  24.743  0.00  0.00    -0.503 OA
ATOM     48  H   UNL     1      13.032   6.624  25.401  0.00  0.00    +0.292 HD
ENDBRANCH  43  47
ENDBRANCH  38  39
BRANCH  34  49
ATOM     49  O   UNL     1       3.316   6.438  22.151  0.00  0.00    -0.507 OA
ATOM     50  H   UNL     1       2.908   7.003  22.826  0.00  0.00    +0.292 HD
ENDBRANCH  34  49
BRANCH  37  51
ATOM     51  O   UNL     1       3.680   2.462  24.669  0.00  0.00    -0.506 OA
ATOM     52  H   UNL     1       3.285   1.837  24.039  0.00  0.00    +0.292 HD
ENDBRANCH  37  51
ENDBRANCH  27  28
ENDBRANCH   3  27
TORSDOF 16
ENDMDL
MODEL 5
REMARK VINA RESULT:      -7.1      2.730      7.204
REMARK  Name = 
REMARK  16 active torsions:
REMARK  status: ('A' for Active; 'I' for Inactive)
REMARK    1  A    between atoms: C_2  and  O_47
REMARK    2  A    between atoms: C_4  and  O_46
REMARK    3  A    between atoms: C_6  and  O_45
REMARK    4  A    between atoms: C_7  and  O_10
REMARK    5  A    between atoms: O_10  and  C_11
REMARK    6  A    between atoms: C_11  and  C_12
REMARK    7  A    between atoms: C_13  and  O_44
REMARK    8  A    between atoms: C_15  and  O_43
REMARK    9  A    between atoms: C_16  and  O_42
REMARK   10  A    between atoms: C_17  and  O_20
REMARK   11  A    between atoms: O_20  and  C_21
REMARK   12  A    between atoms: C_22  and  C_34
REMARK   13  A    between atoms: C_26  and  O_33
REMARK   14  A    between atoms: C_28  and  O_32
REMARK   15  A    between atoms: C_36  and  O_41
REMARK   16  A    between atoms: C_37  and  O_40
REMARK                            x       y       z     vdW  Elec       q    Type
REMARK                         _______ _______ _______ _____ _____    ______ ____
ROOT
ATOM      1  C   UNL     1       8.793  -4.482  24.324  0.00  0.00    +0.179 C 
ATOM      2  O   UNL     1       7.417  -4.509  23.829  0.00  0.00    -0.331 OA
ATOM      3  C   UNL     1       6.504  -3.966  24.817  0.00  0.00    +0.340 C 
ATOM      4  C   UNL     1       6.452  -4.949  26.002  0.00  0.00    +0.214 C 
ATOM      5  C   UNL     1       7.851  -5.054  26.626  0.00  0.00    +0.180 C 
ATOM      6  C   UNL     1       8.911  -5.402  25.555  0.00  0.00    +0.177 C 
ENDROOT
BRANCH   4   7
ATOM      7  O   UNL     1       6.057  -6.272  25.573  0.00  0.00    -0.383 OA
ATOM      8  H   UNL     1       6.593  -6.905  26.087  0.00  0.00    +0.210 HD
ENDBRANCH   4   7
BRANCH   5   9
ATOM      9  O   UNL     1       7.825  -6.077  27.640  0.00  0.00    -0.386 OA
ATOM     10  H   UNL     1       6.881  -6.209  27.859  0.00  0.00    +0.210 HD
ENDBRANCH   5   9
BRANCH   6  11
ATOM     11  O   UNL     1      10.218  -5.361  26.124  0.00  0.00    -0.386 OA
ATOM     12  H   UNL     1      10.236  -4.647  26.783  0.00  0.00    +0.210 HD
ENDBRANCH   6  11
BRANCH   1  13
ATOM     13  C   UNL     1       9.234  -3.015  24.535  0.00  0.00    +0.197 C 
BRANCH  13  14
ATOM     14  O   UNL     1       9.820  -2.320  23.435  0.00  0.00    -0.346 OA
BRANCH  14  17
ATOM     15  C   UNL     1       7.243   0.211  23.282  0.00  0.00    +0.197 C 
ATOM     16  O   UNL     1       7.887  -1.059  23.218  0.00  0.00    -0.346 OA
ATOM     17  C   UNL     1       9.302  -0.973  23.440  0.00  0.00    +0.281 C 
ATOM     18  C   UNL     1       9.953  -0.113  22.332  0.00  0.00    +0.201 C 
ATOM     19  C   UNL     1       9.300   1.283  22.378  0.00  0.00    +0.178 C 
ATOM     20  C   UNL     1       7.780   1.150  22.208  0.00  0.00    +0.171 C 
BRANCH  18  21
ATOM     21  O   UNL     1       9.716  -0.715  21.045  0.00  0.00    -0.384 OA
ATOM     22  H   UNL     1      10.572  -1.078  20.751  0.00  0.00    +0.210 HD
ENDBRANCH  18  21
BRANCH  19  23
ATOM     23  O   UNL     1       9.827   2.159  21.378  0.00  0.00    -0.386 OA
ATOM     24  H   UNL     1       9.594   3.061  21.672  0.00  0.00    +0.210 HD
ENDBRANCH  19  23
BRANCH  20  25
ATOM     25  O   UNL     1       7.170   2.439  22.312  0.00  0.00    -0.387 OA
ATOM     26  H   UNL     1       6.401   2.434  21.712  0.00  0.00    +0.210 HD
ENDBRANCH  20  25
ENDBRANCH  14  17
ENDBRANCH  13  14
ENDBRANCH   1  13
BRANCH   3  27
ATOM     27  O   UNL     1       5.198  -3.736  24.265  0.00  0.00    -0.453 OA
BRANCH  27  28
ATOM     28  C   UNL     1       4.253  -3.279  25.199  0.00  0.00    +0.214 A 
ATOM     29  C   UNL     1       4.533  -2.052  26.029  0.00  0.00    +0.238 A 
ATOM     30  O   UNL     1       5.629  -1.505  25.992  0.00  0.00    -0.283 OA
ATOM     31  C   UNL     1       3.460  -1.543  26.895  0.00  0.00    +0.109 A 
ATOM     32  C   UNL     1       2.340  -2.347  27.065  0.00  0.00    +0.147 A 
ATOM     33  C   UNL     1       1.341  -1.979  27.974  0.00  0.00    +0.092 A 
ATOM     34  C   UNL     1       1.474  -0.795  28.694  0.00  0.00    +0.124 A 
ATOM     35  C   UNL     1       2.565   0.042  28.499  0.00  0.00    +0.091 A 
ATOM     36  O   UNL     1       2.156  -3.521  26.384  0.00  0.00    -0.451 OA
ATOM     37  C   UNL     1       3.553  -0.326  27.590  0.00  0.00    +0.135 A 
ATOM     38  C   UNL     1       3.098  -3.937  25.440  0.00  0.00    +0.181 A 
BRANCH  38  39
ATOM     39  C   UNL     1       2.693  -5.210  24.765  0.00  0.00    +0.025 A 
ATOM     40  C   UNL     1       2.080  -5.151  23.493  0.00  0.00    +0.015 A 
ATOM     41  C   UNL     1       1.698  -6.309  22.807  0.00  0.00    +0.050 A 
ATOM     42  C   UNL     1       1.916  -7.543  23.391  0.00  0.00    +0.158 A 
ATOM     43  C   UNL     1       2.513  -7.632  24.642  0.00  0.00    +0.159 A 
ATOM     44  C   UNL     1       2.917  -6.482  25.321  0.00  0.00    +0.060 A 
BRANCH  42  45
ATOM     45  O   UNL     1       1.539  -8.675  22.727  0.00  0.00    -0.503 OA
ATOM     46  H   UNL     1       1.077  -9.213  23.400  0.00  0.00    +0.292 HD
ENDBRANCH  42  45
BRANCH  43  47
ATOM     47  O   UNL     1       2.686  -8.883  25.171  0.00  0.00    -0.503 OA
ATOM     48  H   UNL     1       3.635  -9.099  25.138  0.00  0.00    +0.292 HD
ENDBRANCH  43  47
ENDBRANCH  38  39
BRANCH  34  49
ATOM     49  O   UNL     1       0.548  -0.405  29.616  0.00  0.00    -0.507 OA
ATOM     50  H   UNL     1       0.230  -1.183  30.103  0.00  0.00    +0.292 HD
ENDBRANCH  34  49
BRANCH  37  51
ATOM     51  O   UNL     1       4.595   0.530  27.372  0.00  0.00    -0.506 OA
ATOM     52  H   UNL     1       5.423   0.032  27.268  0.00  0.00    +0.292 HD
ENDBRANCH  37  51
ENDBRANCH  27  28
ENDBRANCH   3  27
TORSDOF 16
ENDMDL
MODEL 6
REMARK VINA RESULT:      -6.9      2.536      7.659
REMARK  Name = 
REMARK  16 active torsions:
REMARK  status: ('A' for Active; 'I' for Inactive)
REMARK    1  A    between atoms: C_2  and  O_47
REMARK    2  A    between atoms: C_4  and  O_46
REMARK    3  A    between atoms: C_6  and  O_45
REMARK    4  A    between atoms: C_7  and  O_10
REMARK    5  A    between atoms: O_10  and  C_11
REMARK    6  A    between atoms: C_11  and  C_12
REMARK    7  A    between atoms: C_13  and  O_44
REMARK    8  A    between atoms: C_15  and  O_43
REMARK    9  A    between atoms: C_16  and  O_42
REMARK   10  A    between atoms: C_17  and  O_20
REMARK   11  A    between atoms: O_20  and  C_21
REMARK   12  A    between atoms: C_22  and  C_34
REMARK   13  A    between atoms: C_26  and  O_33
REMARK   14  A    between atoms: C_28  and  O_32
REMARK   15  A    between atoms: C_36  and  O_41
REMARK   16  A    between atoms: C_37  and  O_40
REMARK                            x       y       z     vdW  Elec       q    Type
REMARK                         _______ _______ _______ _____ _____    ______ ____
ROOT
ATOM      1  C   UNL     1       4.780   0.597  26.657  0.00  0.00    +0.179 C 
ATOM      2  O   UNL     1       5.027   1.522  25.550  0.00  0.00    -0.331 OA
ATOM      3  C   UNL     1       6.448   1.635  25.281  0.00  0.00    +0.340 C 
ATOM      4  C   UNL     1       7.097   2.362  26.474  0.00  0.00    +0.214 C 
ATOM      5  C   UNL     1       6.899   1.519  27.741  0.00  0.00    +0.180 C 
ATOM      6  C   UNL     1       5.407   1.165  27.945  0.00  0.00    +0.177 C 
ENDROOT
BRANCH   4   7
ATOM      7  O   UNL     1       6.486   3.653  26.701  0.00  0.00    -0.383 OA
ATOM      8  H   UNL     1       6.579   3.844  27.653  0.00  0.00    +0.210 HD
ENDBRANCH   4   7
BRANCH   5   9
ATOM      9  O   UNL     1       7.383   2.269  28.872  0.00  0.00    -0.386 OA
ATOM     10  H   UNL     1       7.819   1.617  29.455  0.00  0.00    +0.210 HD
ENDBRANCH   5   9
BRANCH   6  11
ATOM     11  O   UNL     1       5.258   0.271  29.046  0.00  0.00    -0.386 OA
ATOM     12  H   UNL     1       5.370  -0.635  28.714  0.00  0.00    +0.210 HD
ENDBRANCH   6  11
BRANCH   1  13
ATOM     13  C   UNL     1       5.241  -0.823  26.252  0.00  0.00    +0.197 C 
BRANCH  13  14
ATOM     14  O   UNL     1       4.572  -1.942  26.832  0.00  0.00    -0.346 OA
BRANCH  14  17
ATOM     15  C   UNL     1       7.782  -3.583  26.557  0.00  0.00    +0.197 C 
ATOM     16  O   UNL     1       6.687  -2.712  26.280  0.00  0.00    -0.346 OA
ATOM     17  C   UNL     1       5.572  -2.932  27.155  0.00  0.00    +0.281 C 
ATOM     18  C   UNL     1       5.030  -4.366  26.959  0.00  0.00    +0.201 C 
ATOM     19  C   UNL     1       6.177  -5.347  27.270  0.00  0.00    +0.178 C 
ATOM     20  C   UNL     1       7.381  -5.042  26.366  0.00  0.00    +0.171 C 
BRANCH  18  21
ATOM     21  O   UNL     1       4.598  -4.543  25.596  0.00  0.00    -0.384 OA
ATOM     22  H   UNL     1       5.266  -5.112  25.169  0.00  0.00    +0.210 HD
ENDBRANCH  18  21
BRANCH  19  23
ATOM     23  O   UNL     1       5.781  -6.712  27.107  0.00  0.00    -0.386 OA
ATOM     24  H   UNL     1       5.689  -6.843  26.143  0.00  0.00    +0.210 HD
ENDBRANCH  19  23
BRANCH  20  25
ATOM     25  O   UNL     1       8.465  -5.912  26.698  0.00  0.00    -0.387 OA
ATOM     26  H   UNL     1       8.079  -6.670  27.175  0.00  0.00    +0.210 HD
ENDBRANCH  20  25
ENDBRANCH  14  17
ENDBRANCH  13  14
ENDBRANCH   1  13
BRANCH   3  27
ATOM     27  O   UNL     1       6.703   2.319  24.045  0.00  0.00    -0.453 OA
BRANCH  27  28
ATOM     28  C   UNL     1       8.050   2.663  23.846  0.00  0.00    +0.214 A 
ATOM     29  C   UNL     1       8.483   4.106  23.895  0.00  0.00    +0.238 A 
ATOM     30  O   UNL     1       7.658   5.007  23.989  0.00  0.00    -0.283 OA
ATOM     31  C   UNL     1       9.922   4.399  23.810  0.00  0.00    +0.109 A 
ATOM     32  C   UNL     1      10.769   3.354  23.466  0.00  0.00    +0.147 A 
ATOM     33  C   UNL     1      12.129   3.595  23.245  0.00  0.00    +0.092 A 
ATOM     34  C   UNL     1      12.628   4.887  23.388  0.00  0.00    +0.124 A 
ATOM     35  C   UNL     1      11.801   5.933  23.778  0.00  0.00    +0.091 A 
ATOM     36  O   UNL     1      10.334   2.064  23.313  0.00  0.00    -0.451 OA
ATOM     37  C   UNL     1      10.449   5.687  24.001  0.00  0.00    +0.135 A 
ATOM     38  C   UNL     1       8.994   1.745  23.545  0.00  0.00    +0.181 A 
BRANCH  38  39
ATOM     39  C   UNL     1       8.729   0.281  23.381  0.00  0.00    +0.025 A 
ATOM     40  C   UNL     1       7.510  -0.139  22.802  0.00  0.00    +0.015 A 
ATOM     41  C   UNL     1       7.218  -1.494  22.607  0.00  0.00    +0.050 A 
ATOM     42  C   UNL     1       8.139  -2.447  22.998  0.00  0.00    +0.158 A 
ATOM     43  C   UNL     1       9.345  -2.064  23.572  0.00  0.00    +0.159 A 
ATOM     44  C   UNL     1       9.652  -0.715  23.749  0.00  0.00    +0.060 A 
BRANCH  42  45
ATOM     45  O   UNL     1       7.855  -3.769  22.814  0.00  0.00    -0.503 OA
ATOM     46  H   UNL     1       8.347  -4.228  23.523  0.00  0.00    +0.292 HD
ENDBRANCH  42  45
BRANCH  43  47
ATOM     47  O   UNL     1      10.207  -3.058  23.952  0.00  0.00    -0.503 OA
ATOM     48  H   UNL     1       9.693  -3.747  24.410  0.00  0.00    +0.292 HD
ENDBRANCH  43  47
ENDBRANCH  38  39
BRANCH  34  49
ATOM     49  O   UNL     1      13.937   5.184  23.152  0.00  0.00    -0.507 OA
ATOM     50  H   UNL     1      14.325   4.504  22.577  0.00  0.00    +0.292 HD
ENDBRANCH  34  49
BRANCH  37  51
ATOM     51  O   UNL     1       9.659   6.715  24.433  0.00  0.00    -0.506 OA
ATOM     52  H   UNL     1       9.126   7.060  23.697  0.00  0.00    +0.292 HD
ENDBRANCH  37  51
ENDBRANCH  27  28
ENDBRANCH   3  27
TORSDOF 16
ENDMDL
MODEL 7
REMARK VINA RESULT:      -6.9      2.243      6.646
REMARK  Name = 
REMARK  16 active torsions:
REMARK  status: ('A' for Active; 'I' for Inactive)
REMARK    1  A    between atoms: C_2  and  O_47
REMARK    2  A    between atoms: C_4  and  O_46
REMARK    3  A    between atoms: C_6  and  O_45
REMARK    4  A    between atoms: C_7  and  O_10
REMARK    5  A    between atoms: O_10  and  C_11
REMARK    6  A    between atoms: C_11  and  C_12
REMARK    7  A    between atoms: C_13  and  O_44
REMARK    8  A    between atoms: C_15  and  O_43
REMARK    9  A    between atoms: C_16  and  O_42
REMARK   10  A    between atoms: C_17  and  O_20
REMARK   11  A    between atoms: O_20  and  C_21
REMARK   12  A    between atoms: C_22  and  C_34
REMARK   13  A    between atoms: C_26  and  O_33
REMARK   14  A    between atoms: C_28  and  O_32
REMARK   15  A    between atoms: C_36  and  O_41
REMARK   16  A    between atoms: C_37  and  O_40
REMARK                            x       y       z     vdW  Elec       q    Type
REMARK                         _______ _______ _______ _____ _____    ______ ____
ROOT
ATOM      1  C   UNL     1       6.758   2.129  27.607  0.00  0.00    +0.179 C 
ATOM      2  O   UNL     1       7.254   0.764  27.782  0.00  0.00    -0.331 OA
ATOM      3  C   UNL     1       6.997  -0.032  26.596  0.00  0.00    +0.340 C 
ATOM      4  C   UNL     1       5.475  -0.241  26.490  0.00  0.00    +0.214 C 
ATOM      5  C   UNL     1       4.793   1.125  26.326  0.00  0.00    +0.180 C 
ATOM      6  C   UNL     1       5.226   2.098  27.446  0.00  0.00    +0.177 C 
ENDROOT
BRANCH   4   7
ATOM      7  O   UNL     1       4.943  -0.862  27.682  0.00  0.00    -0.383 OA
ATOM      8  H   UNL     1       5.309  -0.371  28.442  0.00  0.00    +0.210 HD
ENDBRANCH   4   7
BRANCH   5   9
ATOM      9  O   UNL     1       3.365   0.933  26.369  0.00  0.00    -0.386 OA
ATOM     10  H   UNL     1       3.108   0.656  25.467  0.00  0.00    +0.210 HD
ENDBRANCH   5   9
BRANCH   6  11
ATOM     11  O   UNL     1       4.692   3.399  27.203  0.00  0.00    -0.386 OA
ATOM     12  H   UNL     1       4.397   3.433  26.278  0.00  0.00    +0.210 HD
ENDBRANCH   6  11
BRANCH   1  13
ATOM     13  C   UNL     1       7.542   2.818  26.466  0.00  0.00    +0.197 C 
BRANCH  13  14
ATOM     14  O   UNL     1       7.485   4.241  26.368  0.00  0.00    -0.346 OA
BRANCH  14  17
ATOM     15  C   UNL     1       7.952   6.511  23.594  0.00  0.00    +0.197 C 
ATOM     16  O   UNL     1       7.613   6.020  24.889  0.00  0.00    -0.346 OA
ATOM     17  C   UNL     1       7.774   4.599  25.000  0.00  0.00    +0.281 C 
ATOM     18  C   UNL     1       6.817   3.887  24.017  0.00  0.00    +0.201 C 
ATOM     19  C   UNL     1       7.162   4.372  22.594  0.00  0.00    +0.178 C 
ATOM     20  C   UNL     1       7.049   5.902  22.526  0.00  0.00    +0.171 C 
BRANCH  18  21
ATOM     21  O   UNL     1       5.453   4.231  24.327  0.00  0.00    -0.384 OA
ATOM     22  H   UNL     1       5.075   4.613  23.513  0.00  0.00    +0.210 HD
ENDBRANCH  18  21
BRANCH  19  23
ATOM     23  O   UNL     1       6.321   3.778  21.602  0.00  0.00    -0.386 OA
ATOM     24  H   UNL     1       6.925   3.456  20.905  0.00  0.00    +0.210 HD
ENDBRANCH  19  23
BRANCH  20  25
ATOM     25  O   UNL     1       7.429   6.355  21.224  0.00  0.00    -0.387 OA
ATOM     26  H   UNL     1       7.278   7.318  21.209  0.00  0.00    +0.210 HD
ENDBRANCH  20  25
ENDBRANCH  14  17
ENDBRANCH  13  14
ENDBRANCH   1  13
BRANCH   3  27
ATOM     27  O   UNL     1       7.700  -1.284  26.633  0.00  0.00    -0.453 OA
BRANCH  27  28
ATOM     28  C   UNL     1       7.478  -2.100  25.511  0.00  0.00    +0.214 A 
ATOM     29  C   UNL     1       6.752  -3.413  25.656  0.00  0.00    +0.238 A 
ATOM     30  O   UNL     1       6.450  -3.846  26.762  0.00  0.00    -0.283 OA
ATOM     31  C   UNL     1       6.433  -4.165  24.433  0.00  0.00    +0.109 A 
ATOM     32  C   UNL     1       7.014  -3.734  23.247  0.00  0.00    +0.147 A 
ATOM     33  C   UNL     1       6.852  -4.479  22.074  0.00  0.00    +0.092 A 
ATOM     34  C   UNL     1       6.094  -5.647  22.103  0.00  0.00    +0.124 A 
ATOM     35  C   UNL     1       5.469  -6.064  23.271  0.00  0.00    +0.091 A 
ATOM     36  O   UNL     1       7.769  -2.594  23.160  0.00  0.00    -0.451 OA
ATOM     37  C   UNL     1       5.628  -5.316  24.435  0.00  0.00    +0.135 A 
ATOM     38  C   UNL     1       7.949  -1.786  24.284  0.00  0.00    +0.181 A 
BRANCH  38  39
ATOM     39  C   UNL     1       8.754  -0.563  23.974  0.00  0.00    +0.025 A 
ATOM     40  C   UNL     1       9.815  -0.199  24.833  0.00  0.00    +0.015 A 
ATOM     41  C   UNL     1      10.612   0.923  24.581  0.00  0.00    +0.050 A 
ATOM     42  C   UNL     1      10.351   1.702  23.470  0.00  0.00    +0.158 A 
ATOM     43  C   UNL     1       9.313   1.370  22.608  0.00  0.00    +0.159 A 
ATOM     44  C   UNL     1       8.529   0.240  22.842  0.00  0.00    +0.060 A 
BRANCH  42  45
ATOM     45  O   UNL     1      11.124   2.800  23.223  0.00  0.00    -0.503 OA
ATOM     46  H   UNL     1      10.633   3.298  22.540  0.00  0.00    +0.292 HD
ENDBRANCH  42  45
BRANCH  43  47
ATOM     47  O   UNL     1       9.097   2.192  21.534  0.00  0.00    -0.503 OA
ATOM     48  H   UNL     1       9.664   2.977  21.634  0.00  0.00    +0.292 HD
ENDBRANCH  43  47
ENDBRANCH  38  39
BRANCH  34  49
ATOM     49  O   UNL     1       5.932  -6.428  20.997  0.00  0.00    -0.507 OA
ATOM     50  H   UNL     1       6.570  -6.160  20.316  0.00  0.00    +0.292 HD
ENDBRANCH  34  49
BRANCH  37  51
ATOM     51  O   UNL     1       4.967  -5.711  25.563  0.00  0.00    -0.506 OA
ATOM     52  H   UNL     1       4.511  -4.954  25.966  0.00  0.00    +0.292 HD
ENDBRANCH  37  51
ENDBRANCH  27  28
ENDBRANCH   3  27
TORSDOF 16
ENDMDL
MODEL 8
REMARK VINA RESULT:      -6.8      1.952      5.723
REMARK  Name = 
REMARK  16 active torsions:
REMARK  status: ('A' for Active; 'I' for Inactive)
REMARK    1  A    between atoms: C_2  and  O_47
REMARK    2  A    between atoms: C_4  and  O_46
REMARK    3  A    between atoms: C_6  and  O_45
REMARK    4  A    between atoms: C_7  and  O_10
REMARK    5  A    between atoms: O_10  and  C_11
REMARK    6  A    between atoms: C_11  and  C_12
REMARK    7  A    between atoms: C_13  and  O_44
REMARK    8  A    between atoms: C_15  and  O_43
REMARK    9  A    between atoms: C_16  and  O_42
REMARK   10  A    between atoms: C_17  and  O_20
REMARK   11  A    between atoms: O_20  and  C_21
REMARK   12  A    between atoms: C_22  and  C_34
REMARK   13  A    between atoms: C_26  and  O_33
REMARK   14  A    between atoms: C_28  and  O_32
REMARK   15  A    between atoms: C_36  and  O_41
REMARK   16  A    between atoms: C_37  and  O_40
REMARK                            x       y       z     vdW  Elec       q    Type
REMARK                         _______ _______ _______ _____ _____    ______ ____
ROOT
ATOM      1  C   UNL     1       8.916  -3.464  25.347  0.00  0.00    +0.179 C 
ATOM      2  O   UNL     1       8.183  -2.369  24.712  0.00  0.00    -0.331 OA
ATOM      3  C   UNL     1       6.838  -2.785  24.360  0.00  0.00    +0.340 C 
ATOM      4  C   UNL     1       6.948  -3.818  23.222  0.00  0.00    +0.214 C 
ATOM      5  C   UNL     1       7.728  -5.039  23.728  0.00  0.00    +0.180 C 
ATOM      6  C   UNL     1       9.084  -4.617  24.338  0.00  0.00    +0.177 C 
ENDROOT
BRANCH   4   7
ATOM      7  O   UNL     1       7.659  -3.277  22.086  0.00  0.00    -0.383 OA
ATOM      8  H   UNL     1       8.403  -2.756  22.442  0.00  0.00    +0.210 HD
ENDBRANCH   4   7
BRANCH   5   9
ATOM      9  O   UNL     1       7.946  -5.935  22.621  0.00  0.00    -0.386 OA
ATOM     10  H   UNL     1       7.235  -6.604  22.677  0.00  0.00    +0.210 HD
ENDBRANCH   5   9
BRANCH   6  11
ATOM     11  O   UNL     1       9.734  -5.744  24.925  0.00  0.00    -0.386 OA
ATOM     12  H   UNL     1       9.681  -6.481  24.295  0.00  0.00    +0.210 HD
ENDBRANCH   6  11
BRANCH   1  13
ATOM     13  C   UNL     1       8.232  -3.832  26.684  0.00  0.00    +0.197 C 
BRANCH  13  14
ATOM     14  O   UNL     1       7.950  -5.207  26.943  0.00  0.00    -0.346 OA
BRANCH  14  17
ATOM     15  C   UNL     1       5.830  -6.499  29.570  0.00  0.00    +0.197 C 
ATOM     16  O   UNL     1       6.911  -6.383  28.648  0.00  0.00    -0.346 OA
ATOM     17  C   UNL     1       6.763  -5.265  27.762  0.00  0.00    +0.281 C 
ATOM     18  C   UNL     1       5.492  -5.445  26.901  0.00  0.00    +0.201 C 
ATOM     19  C   UNL     1       4.289  -5.553  27.859  0.00  0.00    +0.178 C 
ATOM     20  C   UNL     1       4.509  -6.715  28.839  0.00  0.00    +0.171 C 
BRANCH  18  21
ATOM     21  O   UNL     1       5.598  -6.651  26.120  0.00  0.00    -0.384 OA
ATOM     22  H   UNL     1       6.536  -6.732  25.867  0.00  0.00    +0.210 HD
ENDBRANCH  18  21
BRANCH  19  23
ATOM     23  O   UNL     1       3.055  -5.736  27.159  0.00  0.00    -0.386 OA
ATOM     24  H   UNL     1       3.299  -5.815  26.215  0.00  0.00    +0.210 HD
ENDBRANCH  19  23
BRANCH  20  25
ATOM     25  O   UNL     1       3.421  -6.775  29.765  0.00  0.00    -0.387 OA
ATOM     26  H   UNL     1       3.136  -7.707  29.801  0.00  0.00    +0.210 HD
ENDBRANCH  20  25
ENDBRANCH  14  17
ENDBRANCH  13  14
ENDBRANCH   1  13
BRANCH   3  27
ATOM     27  O   UNL     1       6.017  -1.670  23.983  0.00  0.00    -0.453 OA
BRANCH  27  28
ATOM     28  C   UNL     1       5.735  -0.783  25.035  0.00  0.00    +0.214 A 
ATOM     29  C   UNL     1       4.640  -1.097  26.023  0.00  0.00    +0.238 A 
ATOM     30  O   UNL     1       3.904  -2.063  25.860  0.00  0.00    -0.283 OA
ATOM     31  C   UNL     1       4.473  -0.202  27.178  0.00  0.00    +0.109 A 
ATOM     32  C   UNL     1       5.179   0.994  27.167  0.00  0.00    +0.147 A 
ATOM     33  C   UNL     1       4.967   1.944  28.173  0.00  0.00    +0.092 A 
ATOM     34  C   UNL     1       4.054   1.674  29.189  0.00  0.00    +0.124 A 
ATOM     35  C   UNL     1       3.376   0.463  29.237  0.00  0.00    +0.091 A 
ATOM     36  O   UNL     1       6.090   1.312  26.194  0.00  0.00    -0.451 OA
ATOM     37  C   UNL     1       3.594  -0.481  28.238  0.00  0.00    +0.135 A 
ATOM     38  C   UNL     1       6.372   0.400  25.175  0.00  0.00    +0.181 A 
BRANCH  38  39
ATOM     39  C   UNL     1       7.429   0.907  24.246  0.00  0.00    +0.025 A 
ATOM     40  C   UNL     1       7.081   1.230  22.914  0.00  0.00    +0.015 A 
ATOM     41  C   UNL     1       8.024   1.726  22.007  0.00  0.00    +0.050 A 
ATOM     42  C   UNL     1       9.332   1.896  22.419  0.00  0.00    +0.158 A 
ATOM     43  C   UNL     1       9.705   1.585  23.720  0.00  0.00    +0.159 A 
ATOM     44  C   UNL     1       8.765   1.111  24.636  0.00  0.00    +0.060 A 
BRANCH  42  45
ATOM     45  O   UNL     1      10.256   2.375  21.535  0.00  0.00    -0.503 OA
ATOM     46  H   UNL     1      10.539   3.231  21.913  0.00  0.00    +0.292 HD
ENDBRANCH  42  45
BRANCH  43  47
ATOM     47  O   UNL     1      11.020   1.761  24.059  0.00  0.00    -0.503 OA
ATOM     48  H   UNL     1      11.106   2.624  24.502  0.00  0.00    +0.292 HD
ENDBRANCH  43  47
ENDBRANCH  38  39
BRANCH  34  49
ATOM     49  O   UNL     1       3.785   2.578  30.173  0.00  0.00    -0.507 OA
ATOM     50  H   UNL     1       4.409   3.319  30.112  0.00  0.00    +0.292 HD
ENDBRANCH  34  49
BRANCH  37  51
ATOM     51  O   UNL     1       2.959  -1.687  28.325  0.00  0.00    -0.506 OA
ATOM     52  H   UNL     1       2.366  -1.699  29.096  0.00  0.00    +0.292 HD
ENDBRANCH  37  51
ENDBRANCH  27  28
ENDBRANCH   3  27
TORSDOF 16
ENDMDL
MODEL 9
REMARK VINA RESULT:      -6.7      1.792      6.650
REMARK  Name = 
REMARK  16 active torsions:
REMARK  status: ('A' for Active; 'I' for Inactive)
REMARK    1  A    between atoms: C_2  and  O_47
REMARK    2  A    between atoms: C_4  and  O_46
REMARK    3  A    between atoms: C_6  and  O_45
REMARK    4  A    between atoms: C_7  and  O_10
REMARK    5  A    between atoms: O_10  and  C_11
REMARK    6  A    between atoms: C_11  and  C_12
REMARK    7  A    between atoms: C_13  and  O_44
REMARK    8  A    between atoms: C_15  and  O_43
REMARK    9  A    between atoms: C_16  and  O_42
REMARK   10  A    between atoms: C_17  and  O_20
REMARK   11  A    between atoms: O_20  and  C_21
REMARK   12  A    between atoms: C_22  and  C_34
REMARK   13  A    between atoms: C_26  and  O_33
REMARK   14  A    between atoms: C_28  and  O_32
REMARK   15  A    between atoms: C_36  and  O_41
REMARK   16  A    between atoms: C_37  and  O_40
REMARK                            x       y       z     vdW  Elec       q    Type
REMARK                         _______ _______ _______ _____ _____    ______ ____
ROOT
ATOM      1  C   UNL     1       6.735  -4.496  24.047  0.00  0.00    +0.179 C 
ATOM      2  O   UNL     1       6.247  -4.098  25.367  0.00  0.00    -0.331 OA
ATOM      3  C   UNL     1       7.206  -3.235  26.032  0.00  0.00    +0.340 C 
ATOM      4  C   UNL     1       8.443  -4.085  26.377  0.00  0.00    +0.214 C 
ATOM      5  C   UNL     1       9.068  -4.609  25.076  0.00  0.00    +0.180 C 
ATOM      6  C   UNL     1       8.015  -5.339  24.210  0.00  0.00    +0.177 C 
ENDROOT
BRANCH   4   7
ATOM      7  O   UNL     1       8.090  -5.227  27.190  0.00  0.00    -0.383 OA
ATOM      8  H   UNL     1       7.135  -5.154  27.377  0.00  0.00    +0.210 HD
ENDBRANCH   4   7
BRANCH   5   9
ATOM      9  O   UNL     1      10.137  -5.514  25.412  0.00  0.00    -0.386 OA
ATOM     10  H   UNL     1      10.358  -5.328  26.346  0.00  0.00    +0.210 HD
ENDBRANCH   5   9
BRANCH   6  11
ATOM     11  O   UNL     1       8.577  -5.698  22.949  0.00  0.00    -0.386 OA
ATOM     12  H   UNL     1       9.541  -5.590  23.008  0.00  0.00    +0.210 HD
ENDBRANCH   6  11
BRANCH   1  13
ATOM     13  C   UNL     1       6.863  -3.244  23.148  0.00  0.00    +0.197 C 
BRANCH  13  14
ATOM     14  O   UNL     1       8.134  -2.953  22.569  0.00  0.00    -0.346 OA
BRANCH  14  17
ATOM     15  C   UNL     1       9.306   0.219  21.291  0.00  0.00    +0.197 C 
ATOM     16  O   UNL     1       9.135  -1.188  21.450  0.00  0.00    -0.346 OA
ATOM     17  C   UNL     1       8.298  -1.519  22.567  0.00  0.00    +0.281 C 
ATOM     18  C   UNL     1       8.954  -1.024  23.876  0.00  0.00    +0.201 C 
ATOM     19  C   UNL     1       9.139   0.502  23.759  0.00  0.00    +0.178 C 
ATOM     20  C   UNL     1       9.980   0.829  22.516  0.00  0.00    +0.171 C 
BRANCH  18  21
ATOM     21  O   UNL     1      10.238  -1.655  24.048  0.00  0.00    -0.384 OA
ATOM     22  H   UNL     1      10.262  -1.977  24.968  0.00  0.00    +0.210 HD
ENDBRANCH  18  21
BRANCH  19  23
ATOM     23  O   UNL     1       9.754   1.063  24.922  0.00  0.00    -0.386 OA
ATOM     24  H   UNL     1       9.481   0.489  25.664  0.00  0.00    +0.210 HD
ENDBRANCH  19  23
BRANCH  20  25
ATOM     25  O   UNL     1      10.099   2.246  22.374  0.00  0.00    -0.387 OA
ATOM     26  H   UNL     1      10.988   2.485  22.697  0.00  0.00    +0.210 HD
ENDBRANCH  20  25
ENDBRANCH  14  17
ENDBRANCH  13  14
ENDBRANCH   1  13
BRANCH   3  27
ATOM     27  O   UNL     1       6.646  -2.620  27.203  0.00  0.00    -0.453 OA
BRANCH  27  28
ATOM     28  C   UNL     1       5.949  -1.427  26.946  0.00  0.00    +0.214 A 
ATOM     29  C   UNL     1       6.680  -0.110  26.916  0.00  0.00    +0.238 A 
ATOM     30  O   UNL     1       7.863  -0.039  27.229  0.00  0.00    -0.283 OA
ATOM     31  C   UNL     1       5.928   1.089  26.516  0.00  0.00    +0.109 A 
ATOM     32  C   UNL     1       4.548   0.973  26.411  0.00  0.00    +0.147 A 
ATOM     33  C   UNL     1       3.764   2.104  26.158  0.00  0.00    +0.092 A 
ATOM     34  C   UNL     1       4.381   3.343  26.000  0.00  0.00    +0.124 A 
ATOM     35  C   UNL     1       5.763   3.466  26.056  0.00  0.00    +0.091 A 
ATOM     36  O   UNL     1       3.888  -0.219  26.556  0.00  0.00    -0.451 OA
ATOM     37  C   UNL     1       6.539   2.336  26.303  0.00  0.00    +0.135 A 
ATOM     38  C   UNL     1       4.608  -1.394  26.781  0.00  0.00    +0.181 A 
BRANCH  38  39
ATOM     39  C   UNL     1       3.717  -2.594  26.855  0.00  0.00    +0.025 A 
ATOM     40  C   UNL     1       3.439  -3.171  28.116  0.00  0.00    +0.015 A 
ATOM     41  C   UNL     1       2.597  -4.281  28.246  0.00  0.00    +0.050 A 
ATOM     42  C   UNL     1       2.029  -4.834  27.115  0.00  0.00    +0.158 A 
ATOM     43  C   UNL     1       2.285  -4.291  25.862  0.00  0.00    +0.159 A 
ATOM     44  C   UNL     1       3.106  -3.171  25.727  0.00  0.00    +0.060 A 
BRANCH  42  45
ATOM     45  O   UNL     1       1.211  -5.920  27.238  0.00  0.00    -0.503 OA
ATOM     46  H   UNL     1       0.590  -5.848  26.486  0.00  0.00    +0.292 HD
ENDBRANCH  42  45
BRANCH  43  47
ATOM     47  O   UNL     1       1.704  -4.896  24.780  0.00  0.00    -0.503 OA
ATOM     48  H   UNL     1       1.722  -4.270  24.036  0.00  0.00    +0.292 HD
ENDBRANCH  43  47
ENDBRANCH  38  39
BRANCH  34  49
ATOM     49  O   UNL     1       3.663   4.482  25.787  0.00  0.00    -0.507 OA
ATOM     50  H   UNL     1       4.021   5.198  26.336  0.00  0.00    +0.292 HD
ENDBRANCH  34  49
BRANCH  37  51
ATOM     51  O   UNL     1       7.899   2.463  26.305  0.00  0.00    -0.506 OA
ATOM     52  H   UNL     1       8.317   1.599  26.153  0.00  0.00    +0.292 HD
ENDBRANCH  37  51
ENDBRANCH  27  28
ENDBRANCH   3  27
TORSDOF 16
ENDMDL
