MODEL 1
REMARK VINA RESULT:      -6.8      0.000      0.000
REMARK  Name = 
REMARK  23 active torsions:
REMARK  status: ('A' for Active; 'I' for Inactive)
REMARK    1  A    between atoms: C_1  and  C_2
REMARK    2  A    between atoms: C_4  and  O_69
REMARK    3  A    between atoms: C_6  and  O_68
REMARK    4  A    between atoms: C_8  and  O_67
REMARK    5  A    between atoms: C_10  and  O_13
REMARK    6  A    between atoms: O_13  and  C_14
REMARK    7  A    between atoms: C_16  and  O_66
REMARK    8  A    between atoms: C_21  and  C_58
REMARK    9  A    between atoms: C_22  and  O_25
REMARK   10  A    between atoms: O_25  and  C_26
REMARK   11  A    between atoms: C_28  and  O_57
REMARK   12  A    between atoms: C_30  and  O_56
REMARK   13  A    between atoms: C_32  and  O_55
REMARK   14  A    between atoms: C_34  and  C_37
REMARK   15  A    between atoms: C_37  and  O_38
REMARK   16  A    between atoms: O_38  and  C_39
REMARK   17  A    between atoms: C_41  and  O_54
REMARK   18  A    between atoms: C_43  and  O_53
REMARK   19  A    between atoms: C_45  and  O_52
REMARK   20  A    between atoms: C_47  and  C_50
REMARK   21  A    between atoms: C_50  and  O_51
REMARK   22  A    between atoms: C_60  and  O_65
REMARK   23  A    between atoms: C_61  and  O_64
REMARK                            x       y       z     vdW  Elec       q    Type
REMARK                         _______ _______ _______ _____ _____    ______ ____
ROOT
ATOM      1  C   UNL     1       5.778  -2.107  26.424  0.00  0.00    +0.131 A 
ATOM      2  C   UNL     1       4.909  -1.216  25.749  0.00  0.00    +0.093 A 
ATOM      3  C   UNL     1       5.121   0.163  25.854  0.00  0.00    +0.147 A 
ATOM      4  O   UNL     1       4.226   1.102  25.369  0.00  0.00    -0.451 OA
ATOM      5  C   UNL     1       4.592   2.486  25.443  0.00  0.00    +0.181 A 
ATOM      6  C   UNL     1       5.588   2.935  26.262  0.00  0.00    +0.214 A 
ATOM      7  C   UNL     1       6.006   1.868  27.153  0.00  0.00    +0.238 A 
ATOM      8  O   UNL     1       5.950   1.924  28.372  0.00  0.00    -0.283 OA
ATOM      9  C   UNL     1       6.218   0.580  26.573  0.00  0.00    +0.109 A 
ATOM     10  C   UNL     1       7.137  -0.280  27.142  0.00  0.00    +0.135 A 
ATOM     11  C   UNL     1       6.883  -1.623  27.131  0.00  0.00    +0.092 A 
ENDROOT
BRANCH   5  12
ATOM     12  C   UNL     1       3.714   3.348  24.597  0.00  0.00    +0.025 A 
ATOM     13  C   UNL     1       2.651   4.084  25.157  0.00  0.00    +0.015 A 
ATOM     14  C   UNL     1       1.751   4.800  24.355  0.00  0.00    +0.050 A 
ATOM     15  C   UNL     1       1.907   4.783  22.982  0.00  0.00    +0.158 A 
ATOM     16  C   UNL     1       2.923   4.038  22.400  0.00  0.00    +0.159 A 
ATOM     17  C   UNL     1       3.823   3.323  23.194  0.00  0.00    +0.060 A 
BRANCH  16  18
ATOM     18  O   UNL     1       2.985   4.014  21.033  0.00  0.00    -0.503 OA
ATOM     19  H   UNL     1       3.264   3.125  20.753  0.00  0.00    +0.292 HD
ENDBRANCH  16  18
BRANCH  15  20
ATOM     20  O   UNL     1       1.048   5.497  22.200  0.00  0.00    -0.503 OA
ATOM     21  H   UNL     1       1.555   6.288  21.927  0.00  0.00    +0.292 HD
ENDBRANCH  15  20
ENDBRANCH   5  12
BRANCH  10  22
ATOM     22  O   UNL     1       8.279   0.182  27.707  0.00  0.00    -0.506 OA
ATOM     23  H   UNL     1       8.966  -0.511  27.635  0.00  0.00    +0.292 HD
ENDBRANCH  10  22
BRANCH   6  24
ATOM     24  O   UNL     1       6.234   4.142  26.233  0.00  0.00    -0.453 OA
BRANCH  24  25
ATOM     25  C   UNL     1       6.575   4.931  25.073  0.00  0.00    +0.340 C 
ATOM     26  O   UNL     1       7.180   4.104  24.054  0.00  0.00    -0.331 OA
ATOM     27  C   UNL     1       8.601   3.893  24.083  0.00  0.00    +0.179 C 
ATOM     28  C   UNL     1       9.455   5.165  24.312  0.00  0.00    +0.177 C 
ATOM     29  C   UNL     1       8.825   6.278  25.163  0.00  0.00    +0.180 C 
ATOM     30  C   UNL     1       7.279   6.313  25.078  0.00  0.00    +0.214 C 
BRANCH  30  31
ATOM     31  O   UNL     1       6.958   6.978  23.819  0.00  0.00    -0.383 OA
ATOM     32  H   UNL     1       7.780   7.020  23.294  0.00  0.00    +0.210 HD
ENDBRANCH  30  31
BRANCH  29  33
ATOM     33  O   UNL     1       9.495   6.324  26.411  0.00  0.00    -0.386 OA
ATOM     34  H   UNL     1      10.066   7.107  26.478  0.00  0.00    +0.210 HD
ENDBRANCH  29  33
BRANCH  28  35
ATOM     35  O   UNL     1       9.744   5.777  23.039  0.00  0.00    -0.386 OA
ATOM     36  H   UNL     1      10.113   6.661  23.241  0.00  0.00    +0.210 HD
ENDBRANCH  28  35
BRANCH  27  37
ATOM     37  C   UNL     1       9.005   2.709  24.998  0.00  0.00    +0.197 C 
BRANCH  37  38
ATOM     38  O   UNL     1       8.513   1.460  24.462  0.00  0.00    -0.346 OA
BRANCH  38  39
ATOM     39  C   UNL     1       9.570   0.542  24.142  0.00  0.00    +0.282 C 
ATOM     40  O   UNL     1      10.242   0.838  22.915  0.00  0.00    -0.341 OA
ATOM     41  C   UNL     1       9.621   0.451  21.677  0.00  0.00    +0.178 C 
ATOM     42  C   UNL     1       8.893  -0.910  21.670  0.00  0.00    +0.177 C 
ATOM     43  C   UNL     1       8.133  -1.178  22.972  0.00  0.00    +0.179 C 
ATOM     44  C   UNL     1       9.052  -0.912  24.174  0.00  0.00    +0.201 C 
BRANCH  44  45
ATOM     45  O   UNL     1      10.153  -1.840  24.175  0.00  0.00    -0.384 OA
ATOM     46  H   UNL     1      10.924  -1.381  23.774  0.00  0.00    +0.210 HD
ENDBRANCH  44  45
BRANCH  43  47
ATOM     47  O   UNL     1       6.928  -0.415  22.990  0.00  0.00    -0.386 OA
ATOM     48  H   UNL     1       6.573  -0.365  22.079  0.00  0.00    +0.210 HD
ENDBRANCH  43  47
BRANCH  42  49
ATOM     49  O   UNL     1       9.889  -1.937  21.492  0.00  0.00    -0.386 OA
ATOM     50  H   UNL     1      10.287  -1.796  20.612  0.00  0.00    +0.210 HD
ENDBRANCH  42  49
BRANCH  41  51
ATOM     51  C   UNL     1       8.758   1.574  21.085  0.00  0.00    +0.190 C 
BRANCH  51  52
ATOM     52  O   UNL     1       7.567   1.779  21.849  0.00  0.00    -0.392 OA
ATOM     53  H   UNL     1       6.809   1.709  21.241  0.00  0.00    +0.210 HD
ENDBRANCH  51  52
ENDBRANCH  41  51
ENDBRANCH  38  39
ENDBRANCH  37  38
ENDBRANCH  27  37
ENDBRANCH  24  25
ENDBRANCH   6  24
BRANCH   1  54
ATOM     54  O   UNL     1       5.475  -3.440  26.345  0.00  0.00    -0.461 OA
BRANCH  54  58
ATOM     55  C   UNL     1       3.193  -4.560  28.019  0.00  0.00    +0.041 C 
ATOM     56  C   UNL     1       4.427  -5.374  28.398  0.00  0.00    +0.150 C 
ATOM     57  O   UNL     1       5.628  -4.584  28.440  0.00  0.00    -0.334 OA
ATOM     58  C   UNL     1       6.255  -4.324  27.178  0.00  0.00    +0.339 C 
ATOM     59  C   UNL     1       6.567  -5.604  26.398  0.00  0.00    +0.214 C 
ATOM     60  C   UNL     1       5.286  -6.416  26.207  0.00  0.00    +0.180 C 
ATOM     61  C   UNL     1       4.633  -6.665  27.577  0.00  0.00    +0.174 C 
BRANCH  59  62
ATOM     62  O   UNL     1       7.183  -5.289  25.143  0.00  0.00    -0.383 OA
ATOM     63  H   UNL     1       6.905  -5.979  24.512  0.00  0.00    +0.210 HD
ENDBRANCH  59  62
BRANCH  60  64
ATOM     64  O   UNL     1       4.391  -5.768  25.290  0.00  0.00    -0.386 OA
ATOM     65  H   UNL     1       3.476  -5.879  25.603  0.00  0.00    +0.210 HD
ENDBRANCH  60  64
BRANCH  61  66
ATOM     66  O   UNL     1       5.494  -7.539  28.333  0.00  0.00    -0.387 OA
ATOM     67  H   UNL     1       5.765  -7.080  29.151  0.00  0.00    +0.210 HD
ENDBRANCH  61  66
ENDBRANCH  54  58
ENDBRANCH   1  54
TORSDOF 22
ENDMDL
MODEL 2
REMARK VINA RESULT:      -6.6      0.988      1.702
REMARK  Name = 
REMARK  23 active torsions:
REMARK  status: ('A' for Active; 'I' for Inactive)
REMARK    1  A    between atoms: C_1  and  C_2
REMARK    2  A    between atoms: C_4  and  O_69
REMARK    3  A    between atoms: C_6  and  O_68
REMARK    4  A    between atoms: C_8  and  O_67
REMARK    5  A    between atoms: C_10  and  O_13
REMARK    6  A    between atoms: O_13  and  C_14
REMARK    7  A    between atoms: C_16  and  O_66
REMARK    8  A    between atoms: C_21  and  C_58
REMARK    9  A    between atoms: C_22  and  O_25
REMARK   10  A    between atoms: O_25  and  C_26
REMARK   11  A    between atoms: C_28  and  O_57
REMARK   12  A    between atoms: C_30  and  O_56
REMARK   13  A    between atoms: C_32  and  O_55
REMARK   14  A    between atoms: C_34  and  C_37
REMARK   15  A    between atoms: C_37  and  O_38
REMARK   16  A    between atoms: O_38  and  C_39
REMARK   17  A    between atoms: C_41  and  O_54
REMARK   18  A    between atoms: C_43  and  O_53
REMARK   19  A    between atoms: C_45  and  O_52
REMARK   20  A    between atoms: C_47  and  C_50
REMARK   21  A    between atoms: C_50  and  O_51
REMARK   22  A    between atoms: C_60  and  O_65
REMARK   23  A    between atoms: C_61  and  O_64
REMARK                            x       y       z     vdW  Elec       q    Type
REMARK                         _______ _______ _______ _____ _____    ______ ____
ROOT
ATOM      1  C   UNL     1       5.801  -2.313  26.433  0.00  0.00    +0.131 A 
ATOM      2  C   UNL     1       4.902  -1.421  25.799  0.00  0.00    +0.093 A 
ATOM      3  C   UNL     1       5.112  -0.041  25.910  0.00  0.00    +0.147 A 
ATOM      4  O   UNL     1       4.195   0.897  25.468  0.00  0.00    -0.451 OA
ATOM      5  C   UNL     1       4.557   2.283  25.541  0.00  0.00    +0.181 A 
ATOM      6  C   UNL     1       5.580   2.729  26.327  0.00  0.00    +0.214 A 
ATOM      7  C   UNL     1       6.037   1.656  27.192  0.00  0.00    +0.238 A 
ATOM      8  O   UNL     1       6.025   1.700  28.413  0.00  0.00    -0.283 OA
ATOM      9  C   UNL     1       6.232   0.375  26.592  0.00  0.00    +0.109 A 
ATOM     10  C   UNL     1       7.176  -0.486  27.117  0.00  0.00    +0.135 A 
ATOM     11  C   UNL     1       6.928  -1.830  27.102  0.00  0.00    +0.092 A 
ENDROOT
BRANCH   5  12
ATOM     12  C   UNL     1       3.643   3.148  24.737  0.00  0.00    +0.025 A 
ATOM     13  C   UNL     1       2.517   3.764  25.318  0.00  0.00    +0.015 A 
ATOM     14  C   UNL     1       1.591   4.480  24.546  0.00  0.00    +0.050 A 
ATOM     15  C   UNL     1       1.785   4.582  23.181  0.00  0.00    +0.158 A 
ATOM     16  C   UNL     1       2.865   3.956  22.576  0.00  0.00    +0.159 A 
ATOM     17  C   UNL     1       3.791   3.243  23.341  0.00  0.00    +0.060 A 
BRANCH  16  18
ATOM     18  O   UNL     1       2.965   4.045  21.214  0.00  0.00    -0.503 OA
ATOM     19  H   UNL     1       3.705   4.637  20.997  0.00  0.00    +0.292 HD
ENDBRANCH  16  18
BRANCH  15  20
ATOM     20  O   UNL     1       0.899   5.297  22.430  0.00  0.00    -0.503 OA
ATOM     21  H   UNL     1       0.991   6.220  22.744  0.00  0.00    +0.292 HD
ENDBRANCH  15  20
ENDBRANCH   5  12
BRANCH  10  22
ATOM     22  O   UNL     1       8.337  -0.024  27.644  0.00  0.00    -0.506 OA
ATOM     23  H   UNL     1       9.016  -0.009  26.940  0.00  0.00    +0.292 HD
ENDBRANCH  10  22
BRANCH   6  24
ATOM     24  O   UNL     1       6.219   3.940  26.287  0.00  0.00    -0.453 OA
BRANCH  24  25
ATOM     25  C   UNL     1       6.546   4.724  25.119  0.00  0.00    +0.340 C 
ATOM     26  O   UNL     1       7.195   3.906  24.121  0.00  0.00    -0.331 OA
ATOM     27  C   UNL     1       8.622   3.748  24.170  0.00  0.00    +0.179 C 
ATOM     28  C   UNL     1       9.425   5.054  24.392  0.00  0.00    +0.177 C 
ATOM     29  C   UNL     1       8.743   6.156  25.218  0.00  0.00    +0.180 C 
ATOM     30  C   UNL     1       7.198   6.131  25.112  0.00  0.00    +0.214 C 
BRANCH  30  31
ATOM     31  O   UNL     1       6.869   6.765  23.840  0.00  0.00    -0.383 OA
ATOM     32  H   UNL     1       5.989   7.178  23.939  0.00  0.00    +0.210 HD
ENDBRANCH  30  31
BRANCH  29  33
ATOM     33  O   UNL     1       9.393   6.244  26.473  0.00  0.00    -0.386 OA
ATOM     34  H   UNL     1      10.016   5.510  26.603  0.00  0.00    +0.210 HD
ENDBRANCH  29  33
BRANCH  28  35
ATOM     35  O   UNL     1       9.708   5.658  23.113  0.00  0.00    -0.386 OA
ATOM     36  H   UNL     1       8.913   5.509  22.561  0.00  0.00    +0.210 HD
ENDBRANCH  28  35
BRANCH  27  37
ATOM     37  C   UNL     1       9.057   2.593  25.108  0.00  0.00    +0.197 C 
BRANCH  37  38
ATOM     38  O   UNL     1       8.516   1.334  24.651  0.00  0.00    -0.346 OA
BRANCH  38  39
ATOM     39  C   UNL     1       9.535   0.353  24.401  0.00  0.00    +0.282 C 
ATOM     40  O   UNL     1      10.453   0.723  23.370  0.00  0.00    -0.341 OA
ATOM     41  C   UNL     1      10.053   0.560  21.998  0.00  0.00    +0.178 C 
ATOM     42  C   UNL     1       9.229  -0.702  21.668  0.00  0.00    +0.177 C 
ATOM     43  C   UNL     1       8.212  -1.044  22.760  0.00  0.00    +0.179 C 
ATOM     44  C   UNL     1       8.901  -1.029  24.133  0.00  0.00    +0.201 C 
BRANCH  44  45
ATOM     45  O   UNL     1       9.899  -2.064  24.202  0.00  0.00    -0.384 OA
ATOM     46  H   UNL     1       9.454  -2.879  24.525  0.00  0.00    +0.210 HD
ENDBRANCH  44  45
BRANCH  43  47
ATOM     47  O   UNL     1       7.094  -0.163  22.668  0.00  0.00    -0.386 OA
ATOM     48  H   UNL     1       6.302  -0.621  23.016  0.00  0.00    +0.210 HD
ENDBRANCH  43  47
BRANCH  42  49
ATOM     49  O   UNL     1      10.152  -1.801  21.529  0.00  0.00    -0.386 OA
ATOM     50  H   UNL     1       9.893  -2.288  20.723  0.00  0.00    +0.210 HD
ENDBRANCH  42  49
BRANCH  41  51
ATOM     51  C   UNL     1       9.418   1.835  21.424  0.00  0.00    +0.190 C 
BRANCH  51  52
ATOM     52  O   UNL     1       8.208   1.547  20.718  0.00  0.00    -0.392 OA
ATOM     53  H   UNL     1       8.450   1.117  19.879  0.00  0.00    +0.210 HD
ENDBRANCH  51  52
ENDBRANCH  41  51
ENDBRANCH  38  39
ENDBRANCH  37  38
ENDBRANCH  27  37
ENDBRANCH  24  25
ENDBRANCH   6  24
BRANCH   1  54
ATOM     54  O   UNL     1       5.501  -3.647  26.352  0.00  0.00    -0.461 OA
BRANCH  54  58
ATOM     55  C   UNL     1       7.212  -4.824  24.127  0.00  0.00    +0.041 C 
ATOM     56  C   UNL     1       5.766  -5.127  23.747  0.00  0.00    +0.150 C 
ATOM     57  O   UNL     1       4.862  -4.061  24.085  0.00  0.00    -0.334 OA
ATOM     58  C   UNL     1       4.433  -4.010  25.451  0.00  0.00    +0.339 C 
ATOM     59  C   UNL     1       3.802  -5.322  25.923  0.00  0.00    +0.214 C 
ATOM     60  C   UNL     1       4.785  -6.473  25.709  0.00  0.00    +0.180 C 
ATOM     61  C   UNL     1       5.234  -6.491  24.238  0.00  0.00    +0.174 C 
BRANCH  59  62
ATOM     62  O   UNL     1       3.400  -5.221  27.295  0.00  0.00    -0.383 OA
ATOM     63  H   UNL     1       4.190  -5.413  27.835  0.00  0.00    +0.210 HD
ENDBRANCH  59  62
BRANCH  60  64
ATOM     64  O   UNL     1       5.897  -6.382  26.614  0.00  0.00    -0.386 OA
ATOM     65  H   UNL     1       6.510  -5.694  26.300  0.00  0.00    +0.210 HD
ENDBRANCH  60  64
BRANCH  61  66
ATOM     66  O   UNL     1       4.098  -6.843  23.425  0.00  0.00    -0.387 OA
ATOM     67  H   UNL     1       3.823  -6.059  22.913  0.00  0.00    +0.210 HD
ENDBRANCH  61  66
ENDBRANCH  54  58
ENDBRANCH   1  54
TORSDOF 22
ENDMDL
MODEL 3
REMARK VINA RESULT:      -6.6      2.753      9.936
REMARK  Name = 
REMARK  23 active torsions:
REMARK  status: ('A' for Active; 'I' for Inactive)
REMARK    1  A    between atoms: C_1  and  C_2
REMARK    2  A    between atoms: C_4  and  O_69
REMARK    3  A    between atoms: C_6  and  O_68
REMARK    4  A    between atoms: C_8  and  O_67
REMARK    5  A    between atoms: C_10  and  O_13
REMARK    6  A    between atoms: O_13  and  C_14
REMARK    7  A    between atoms: C_16  and  O_66
REMARK    8  A    between atoms: C_21  and  C_58
REMARK    9  A    between atoms: C_22  and  O_25
REMARK   10  A    between atoms: O_25  and  C_26
REMARK   11  A    between atoms: C_28  and  O_57
REMARK   12  A    between atoms: C_30  and  O_56
REMARK   13  A    between atoms: C_32  and  O_55
REMARK   14  A    between atoms: C_34  and  C_37
REMARK   15  A    between atoms: C_37  and  O_38
REMARK   16  A    between atoms: O_38  and  C_39
REMARK   17  A    between atoms: C_41  and  O_54
REMARK   18  A    between atoms: C_43  and  O_53
REMARK   19  A    between atoms: C_45  and  O_52
REMARK   20  A    between atoms: C_47  and  C_50
REMARK   21  A    between atoms: C_50  and  O_51
REMARK   22  A    between atoms: C_60  and  O_65
REMARK   23  A    between atoms: C_61  and  O_64
REMARK                            x       y       z     vdW  Elec       q    Type
REMARK                         _______ _______ _______ _____ _____    ______ ____
ROOT
ATOM      1  C   UNL     1       7.255   0.778  23.748  0.00  0.00    +0.131 A 
ATOM      2  C   UNL     1       6.241   0.600  24.720  0.00  0.00    +0.093 A 
ATOM      3  C   UNL     1       5.743  -0.684  24.966  0.00  0.00    +0.147 A 
ATOM      4  O   UNL     1       4.643  -0.924  25.772  0.00  0.00    -0.451 OA
ATOM      5  C   UNL     1       4.281  -2.286  26.034  0.00  0.00    +0.181 A 
ATOM      6  C   UNL     1       4.735  -3.322  25.270  0.00  0.00    +0.214 A 
ATOM      7  C   UNL     1       5.401  -2.804  24.089  0.00  0.00    +0.238 A 
ATOM      8  O   UNL     1       5.057  -3.042  22.942  0.00  0.00    -0.283 OA
ATOM      9  C   UNL     1       6.321  -1.728  24.280  0.00  0.00    +0.109 A 
ATOM     10  C   UNL     1       7.387  -1.582  23.414  0.00  0.00    +0.135 A 
ATOM     11  C   UNL     1       7.811  -0.323  23.091  0.00  0.00    +0.092 A 
ENDROOT
BRANCH   5  12
ATOM     12  C   UNL     1       3.310  -2.404  27.163  0.00  0.00    +0.025 A 
ATOM     13  C   UNL     1       3.424  -1.600  28.315  0.00  0.00    +0.015 A 
ATOM     14  C   UNL     1       2.590  -1.787  29.426  0.00  0.00    +0.050 A 
ATOM     15  C   UNL     1       1.633  -2.784  29.394  0.00  0.00    +0.158 A 
ATOM     16  C   UNL     1       1.521  -3.614  28.288  0.00  0.00    +0.159 A 
ATOM     17  C   UNL     1       2.349  -3.432  27.178  0.00  0.00    +0.060 A 
BRANCH  16  18
ATOM     18  O   UNL     1       0.596  -4.621  28.344  0.00  0.00    -0.503 OA
ATOM     19  H   UNL     1      -0.288  -4.224  28.419  0.00  0.00    +0.292 HD
ENDBRANCH  16  18
BRANCH  15  20
ATOM     20  O   UNL     1       0.805  -2.953  30.463  0.00  0.00    -0.503 OA
ATOM     21  H   UNL     1       0.018  -3.409  30.102  0.00  0.00    +0.292 HD
ENDBRANCH  15  20
ENDBRANCH   5  12
BRANCH  10  22
ATOM     22  O   UNL     1       8.016  -2.659  22.882  0.00  0.00    -0.506 OA
ATOM     23  H   UNL     1       7.449  -3.037  22.180  0.00  0.00    +0.292 HD
ENDBRANCH  10  22
BRANCH   6  24
ATOM     24  O   UNL     1       4.718  -4.662  25.556  0.00  0.00    -0.453 OA
BRANCH  24  25
ATOM     25  C   UNL     1       5.796  -5.460  26.091  0.00  0.00    +0.340 C 
ATOM     26  O   UNL     1       5.354  -6.814  26.335  0.00  0.00    -0.331 OA
ATOM     27  C   UNL     1       4.753  -7.134  27.600  0.00  0.00    +0.179 C 
ATOM     28  C   UNL     1       5.497  -6.585  28.843  0.00  0.00    +0.177 C 
ATOM     29  C   UNL     1       6.263  -5.265  28.666  0.00  0.00    +0.180 C 
ATOM     30  C   UNL     1       6.773  -5.043  27.221  0.00  0.00    +0.214 C 
BRANCH  30  31
ATOM     31  O   UNL     1       7.977  -5.857  27.087  0.00  0.00    -0.383 OA
ATOM     32  H   UNL     1       7.943  -6.544  27.781  0.00  0.00    +0.210 HD
ENDBRANCH  30  31
BRANCH  29  33
ATOM     33  O   UNL     1       5.572  -4.246  29.367  0.00  0.00    -0.386 OA
ATOM     34  H   UNL     1       4.671  -4.525  29.601  0.00  0.00    +0.210 HD
ENDBRANCH  29  33
BRANCH  28  35
ATOM     35  O   UNL     1       6.487  -7.545  29.265  0.00  0.00    -0.386 OA
ATOM     36  H   UNL     1       6.586  -8.176  28.522  0.00  0.00    +0.210 HD
ENDBRANCH  28  35
BRANCH  27  37
ATOM     37  C   UNL     1       3.230  -6.848  27.620  0.00  0.00    +0.197 C 
BRANCH  37  38
ATOM     38  O   UNL     1       2.551  -7.632  26.613  0.00  0.00    -0.346 OA
BRANCH  38  39
ATOM     39  C   UNL     1       1.558  -6.876  25.902  0.00  0.00    +0.282 C 
ATOM     40  O   UNL     1       0.445  -7.655  25.458  0.00  0.00    -0.341 OA
ATOM     41  C   UNL     1       0.591  -8.453  24.271  0.00  0.00    +0.178 C 
ATOM     42  C   UNL     1       1.407  -7.829  23.120  0.00  0.00    +0.177 C 
ATOM     43  C   UNL     1       2.626  -7.049  23.617  0.00  0.00    +0.179 C 
ATOM     44  C   UNL     1       2.206  -6.090  24.742  0.00  0.00    +0.201 C 
BRANCH  44  45
ATOM     45  O   UNL     1       1.296  -5.095  24.235  0.00  0.00    -0.384 OA
ATOM     46  H   UNL     1       0.486  -5.565  23.935  0.00  0.00    +0.210 HD
ENDBRANCH  44  45
BRANCH  43  47
ATOM     47  O   UNL     1       3.658  -7.959  23.994  0.00  0.00    -0.386 OA
ATOM     48  H   UNL     1       4.313  -8.011  23.268  0.00  0.00    +0.210 HD
ENDBRANCH  43  47
BRANCH  42  49
ATOM     49  O   UNL     1       0.536  -6.927  22.406  0.00  0.00    -0.386 OA
ATOM     50  H   UNL     1       0.049  -7.463  21.751  0.00  0.00    +0.210 HD
ENDBRANCH  42  49
BRANCH  41  51
ATOM     51  C   UNL     1       1.038  -9.887  24.588  0.00  0.00    +0.190 C 
BRANCH  51  52
ATOM     52  O   UNL     1       2.275  -9.905  25.304  0.00  0.00    -0.392 OA
ATOM     53  H   UNL     1       2.976 -10.165  24.680  0.00  0.00    +0.210 HD
ENDBRANCH  51  52
ENDBRANCH  41  51
ENDBRANCH  38  39
ENDBRANCH  37  38
ENDBRANCH  27  37
ENDBRANCH  24  25
ENDBRANCH   6  24
BRANCH   1  54
ATOM     54  O   UNL     1       7.648   2.066  23.498  0.00  0.00    -0.461 OA
BRANCH  54  58
ATOM     55  C   UNL     1      10.393   2.472  22.249  0.00  0.00    +0.041 C 
ATOM     56  C   UNL     1      10.401   3.277  23.545  0.00  0.00    +0.150 C 
ATOM     57  O   UNL     1       9.688   2.627  24.612  0.00  0.00    -0.334 OA
ATOM     58  C   UNL     1       8.263   2.773  24.596  0.00  0.00    +0.339 C 
ATOM     59  C   UNL     1       7.818   4.237  24.563  0.00  0.00    +0.214 C 
ATOM     60  C   UNL     1       8.446   4.940  23.359  0.00  0.00    +0.180 C 
ATOM     61  C   UNL     1       9.972   4.752  23.400  0.00  0.00    +0.174 C 
BRANCH  59  62
ATOM     62  O   UNL     1       6.389   4.326  24.539  0.00  0.00    -0.383 OA
ATOM     63  H   UNL     1       6.158   5.239  24.798  0.00  0.00    +0.210 HD
ENDBRANCH  59  62
BRANCH  60  64
ATOM     64  O   UNL     1       7.875   4.470  22.128  0.00  0.00    -0.386 OA
ATOM     65  H   UNL     1       7.642   5.233  21.571  0.00  0.00    +0.210 HD
ENDBRANCH  60  64
BRANCH  61  66
ATOM     66  O   UNL     1      10.483   5.477  24.536  0.00  0.00    -0.387 OA
ATOM     67  H   UNL     1      10.689   6.390  24.258  0.00  0.00    +0.210 HD
ENDBRANCH  61  66
ENDBRANCH  54  58
ENDBRANCH   1  54
TORSDOF 22
ENDMDL
MODEL 4
REMARK VINA RESULT:      -6.6      0.720      1.481
REMARK  Name = 
REMARK  23 active torsions:
REMARK  status: ('A' for Active; 'I' for Inactive)
REMARK    1  A    between atoms: C_1  and  C_2
REMARK    2  A    between atoms: C_4  and  O_69
REMARK    3  A    between atoms: C_6  and  O_68
REMARK    4  A    between atoms: C_8  and  O_67
REMARK    5  A    between atoms: C_10  and  O_13
REMARK    6  A    between atoms: O_13  and  C_14
REMARK    7  A    between atoms: C_16  and  O_66
REMARK    8  A    between atoms: C_21  and  C_58
REMARK    9  A    between atoms: C_22  and  O_25
REMARK   10  A    between atoms: O_25  and  C_26
REMARK   11  A    between atoms: C_28  and  O_57
REMARK   12  A    between atoms: C_30  and  O_56
REMARK   13  A    between atoms: C_32  and  O_55
REMARK   14  A    between atoms: C_34  and  C_37
REMARK   15  A    between atoms: C_37  and  O_38
REMARK   16  A    between atoms: O_38  and  C_39
REMARK   17  A    between atoms: C_41  and  O_54
REMARK   18  A    between atoms: C_43  and  O_53
REMARK   19  A    between atoms: C_45  and  O_52
REMARK   20  A    between atoms: C_47  and  C_50
REMARK   21  A    between atoms: C_50  and  O_51
REMARK   22  A    between atoms: C_60  and  O_65
REMARK   23  A    between atoms: C_61  and  O_64
REMARK                            x       y       z     vdW  Elec       q    Type
REMARK                         _______ _______ _______ _____ _____    ______ ____
ROOT
ATOM      1  C   UNL     1       5.541  -2.066  26.773  0.00  0.00    +0.131 A 
ATOM      2  C   UNL     1       4.670  -1.201  26.068  0.00  0.00    +0.093 A 
ATOM      3  C   UNL     1       4.871   0.182  26.140  0.00  0.00    +0.147 A 
ATOM      4  O   UNL     1       3.974   1.102  25.624  0.00  0.00    -0.451 OA
ATOM      5  C   UNL     1       4.329   2.490  25.664  0.00  0.00    +0.181 A 
ATOM      6  C   UNL     1       5.316   2.968  26.477  0.00  0.00    +0.214 A 
ATOM      7  C   UNL     1       5.736   1.928  27.399  0.00  0.00    +0.238 A 
ATOM      8  O   UNL     1       5.672   2.015  28.615  0.00  0.00    -0.283 OA
ATOM      9  C   UNL     1       5.961   0.626  26.854  0.00  0.00    +0.109 A 
ATOM     10  C   UNL     1       6.882  -0.212  27.451  0.00  0.00    +0.135 A 
ATOM     11  C   UNL     1       6.638  -1.557  27.473  0.00  0.00    +0.092 A 
ENDROOT
BRANCH   5  12
ATOM     12  C   UNL     1       3.450   3.323  24.790  0.00  0.00    +0.025 A 
ATOM     13  C   UNL     1       2.337   4.011  25.313  0.00  0.00    +0.015 A 
ATOM     14  C   UNL     1       1.440   4.697  24.482  0.00  0.00    +0.050 A 
ATOM     15  C   UNL     1       1.651   4.698  23.116  0.00  0.00    +0.158 A 
ATOM     16  C   UNL     1       2.718   4.000  22.569  0.00  0.00    +0.159 A 
ATOM     17  C   UNL     1       3.614   3.315  23.393  0.00  0.00    +0.060 A 
BRANCH  16  18
ATOM     18  O   UNL     1       2.834   3.989  21.205  0.00  0.00    -0.503 OA
ATOM     19  H   UNL     1       2.526   4.845  20.863  0.00  0.00    +0.292 HD
ENDBRANCH  16  18
BRANCH  15  20
ATOM     20  O   UNL     1       0.794   5.384  22.306  0.00  0.00    -0.503 OA
ATOM     21  H   UNL     1       1.337   6.095  21.910  0.00  0.00    +0.292 HD
ENDBRANCH  15  20
ENDBRANCH   5  12
BRANCH  10  22
ATOM     22  O   UNL     1       8.018   0.273  28.011  0.00  0.00    -0.506 OA
ATOM     23  H   UNL     1       7.972   0.136  28.978  0.00  0.00    +0.292 HD
ENDBRANCH  10  22
BRANCH   6  24
ATOM     24  O   UNL     1       5.954   4.178  26.421  0.00  0.00    -0.453 OA
BRANCH  24  25
ATOM     25  C   UNL     1       6.271   4.953  25.244  0.00  0.00    +0.340 C 
ATOM     26  O   UNL     1       6.787   4.101  24.197  0.00  0.00    -0.331 OA
ATOM     27  C   UNL     1       8.197   3.827  24.155  0.00  0.00    +0.179 C 
ATOM     28  C   UNL     1       9.117   5.060  24.340  0.00  0.00    +0.177 C 
ATOM     29  C   UNL     1       8.580   6.199  25.220  0.00  0.00    +0.180 C 
ATOM     30  C   UNL     1       7.035   6.302  25.213  0.00  0.00    +0.214 C 
BRANCH  30  31
ATOM     31  O   UNL     1       6.681   6.982  23.971  0.00  0.00    -0.383 OA
ATOM     32  H   UNL     1       7.462   6.946  23.386  0.00  0.00    +0.210 HD
ENDBRANCH  30  31
BRANCH  29  33
ATOM     33  O   UNL     1       9.313   6.214  26.433  0.00  0.00    -0.386 OA
ATOM     34  H   UNL     1       9.541   7.120  26.699  0.00  0.00    +0.210 HD
ENDBRANCH  29  33
BRANCH  28  35
ATOM     35  O   UNL     1       9.368   5.660  23.053  0.00  0.00    -0.386 OA
ATOM     36  H   UNL     1       9.668   6.575  23.235  0.00  0.00    +0.210 HD
ENDBRANCH  28  35
BRANCH  27  37
ATOM     37  C   UNL     1       8.593   2.625  25.050  0.00  0.00    +0.197 C 
BRANCH  37  38
ATOM     38  O   UNL     1       8.072   1.391  24.507  0.00  0.00    -0.346 OA
BRANCH  38  39
ATOM     39  C   UNL     1       8.368   1.234  23.111  0.00  0.00    +0.282 C 
ATOM     40  O   UNL     1       7.669   0.155  22.488  0.00  0.00    -0.341 OA
ATOM     41  C   UNL     1       8.158  -1.185  22.674  0.00  0.00    +0.178 C 
ATOM     42  C   UNL     1       9.691  -1.361  22.675  0.00  0.00    +0.177 C 
ATOM     43  C   UNL     1      10.415  -0.222  23.399  0.00  0.00    +0.179 C 
ATOM     44  C   UNL     1       9.893   1.131  22.890  0.00  0.00    +0.201 C 
BRANCH  44  45
ATOM     45  O   UNL     1      10.214   1.297  21.496  0.00  0.00    -0.384 OA
ATOM     46  H   UNL     1       9.735   2.095  21.179  0.00  0.00    +0.210 HD
ENDBRANCH  44  45
BRANCH  43  47
ATOM     47  O   UNL     1      10.289  -0.393  24.809  0.00  0.00    -0.386 OA
ATOM     48  H   UNL     1      10.044   0.466  25.210  0.00  0.00    +0.210 HD
ENDBRANCH  43  47
BRANCH  42  49
ATOM     49  O   UNL     1      10.128  -1.392  21.301  0.00  0.00    -0.386 OA
ATOM     50  H   UNL     1       9.958  -2.294  20.970  0.00  0.00    +0.210 HD
ENDBRANCH  42  49
BRANCH  41  51
ATOM     51  C   UNL     1       7.493  -1.885  23.867  0.00  0.00    +0.190 C 
BRANCH  51  52
ATOM     52  O   UNL     1       8.413  -2.733  24.559  0.00  0.00    -0.392 OA
ATOM     53  H   UNL     1       8.676  -3.445  23.950  0.00  0.00    +0.210 HD
ENDBRANCH  51  52
ENDBRANCH  41  51
ENDBRANCH  38  39
ENDBRANCH  37  38
ENDBRANCH  27  37
ENDBRANCH  24  25
ENDBRANCH   6  24
BRANCH   1  54
ATOM     54  O   UNL     1       5.248  -3.404  26.727  0.00  0.00    -0.461 OA
BRANCH  54  58
ATOM     55  C   UNL     1       3.343  -4.743  28.685  0.00  0.00    +0.041 C 
ATOM     56  C   UNL     1       4.659  -5.508  28.794  0.00  0.00    +0.150 C 
ATOM     57  O   UNL     1       5.812  -4.656  28.684  0.00  0.00    -0.334 OA
ATOM     58  C   UNL     1       6.199  -4.290  27.355  0.00  0.00    +0.339 C 
ATOM     59  C   UNL     1       6.429  -5.503  26.450  0.00  0.00    +0.214 C 
ATOM     60  C   UNL     1       5.172  -6.373  26.426  0.00  0.00    +0.180 C 
ATOM     61  C   UNL     1       4.778  -6.736  27.867  0.00  0.00    +0.174 C 
BRANCH  59  62
ATOM     62  O   UNL     1       6.804  -5.082  25.133  0.00  0.00    -0.383 OA
ATOM     63  H   UNL     1       7.592  -4.514  25.232  0.00  0.00    +0.210 HD
ENDBRANCH  59  62
BRANCH  60  64
ATOM     64  O   UNL     1       4.104  -5.724  25.719  0.00  0.00    -0.386 OA
ATOM     65  H   UNL     1       3.261  -6.152  25.948  0.00  0.00    +0.210 HD
ENDBRANCH  60  64
BRANCH  61  66
ATOM     66  O   UNL     1       5.795  -7.603  28.407  0.00  0.00    -0.387 OA
ATOM     67  H   UNL     1       6.105  -7.231  29.255  0.00  0.00    +0.210 HD
ENDBRANCH  61  66
ENDBRANCH  54  58
ENDBRANCH   1  54
TORSDOF 22
ENDMDL
MODEL 5
REMARK VINA RESULT:      -6.4      2.600      9.908
REMARK  Name = 
REMARK  23 active torsions:
REMARK  status: ('A' for Active; 'I' for Inactive)
REMARK    1  A    between atoms: C_1  and  C_2
REMARK    2  A    between atoms: C_4  and  O_69
REMARK    3  A    between atoms: C_6  and  O_68
REMARK    4  A    between atoms: C_8  and  O_67
REMARK    5  A    between atoms: C_10  and  O_13
REMARK    6  A    between atoms: O_13  and  C_14
REMARK    7  A    between atoms: C_16  and  O_66
REMARK    8  A    between atoms: C_21  and  C_58
REMARK    9  A    between atoms: C_22  and  O_25
REMARK   10  A    between atoms: O_25  and  C_26
REMARK   11  A    between atoms: C_28  and  O_57
REMARK   12  A    between atoms: C_30  and  O_56
REMARK   13  A    between atoms: C_32  and  O_55
REMARK   14  A    between atoms: C_34  and  C_37
REMARK   15  A    between atoms: C_37  and  O_38
REMARK   16  A    between atoms: O_38  and  C_39
REMARK   17  A    between atoms: C_41  and  O_54
REMARK   18  A    between atoms: C_43  and  O_53
REMARK   19  A    between atoms: C_45  and  O_52
REMARK   20  A    between atoms: C_47  and  C_50
REMARK   21  A    between atoms: C_50  and  O_51
REMARK   22  A    between atoms: C_60  and  O_65
REMARK   23  A    between atoms: C_61  and  O_64
REMARK                            x       y       z     vdW  Elec       q    Type
REMARK                         _______ _______ _______ _____ _____    ______ ____
ROOT
ATOM      1  C   UNL     1       5.423   2.957  25.144  0.00  0.00    +0.131 A 
ATOM      2  C   UNL     1       5.930   1.842  24.432  0.00  0.00    +0.093 A 
ATOM      3  C   UNL     1       5.765   0.557  24.961  0.00  0.00    +0.147 A 
ATOM      4  O   UNL     1       6.371  -0.563  24.420  0.00  0.00    -0.451 OA
ATOM      5  C   UNL     1       6.052  -1.843  24.982  0.00  0.00    +0.181 A 
ATOM      6  C   UNL     1       5.474  -1.976  26.212  0.00  0.00    +0.214 A 
ATOM      7  C   UNL     1       5.469  -0.694  26.892  0.00  0.00    +0.238 A 
ATOM      8  O   UNL     1       6.019  -0.476  27.960  0.00  0.00    -0.283 OA
ATOM      9  C   UNL     1       5.053   0.443  26.133  0.00  0.00    +0.109 A 
ATOM     10  C   UNL     1       4.457   1.510  26.778  0.00  0.00    +0.135 A 
ATOM     11  C   UNL     1       4.699   2.777  26.325  0.00  0.00    +0.092 A 
ENDROOT
BRANCH   5  12
ATOM     12  C   UNL     1       6.498  -2.970  24.109  0.00  0.00    +0.025 A 
ATOM     13  C   UNL     1       5.746  -3.368  22.986  0.00  0.00    +0.015 A 
ATOM     14  C   UNL     1       6.094  -4.497  22.232  0.00  0.00    +0.050 A 
ATOM     15  C   UNL     1       7.200  -5.241  22.599  0.00  0.00    +0.158 A 
ATOM     16  C   UNL     1       7.939  -4.894  23.721  0.00  0.00    +0.159 A 
ATOM     17  C   UNL     1       7.596  -3.770  24.476  0.00  0.00    +0.060 A 
BRANCH  16  18
ATOM     18  O   UNL     1       8.984  -5.707  24.066  0.00  0.00    -0.503 OA
ATOM     19  H   UNL     1       8.918  -6.529  23.551  0.00  0.00    +0.292 HD
ENDBRANCH  16  18
BRANCH  15  20
ATOM     20  O   UNL     1       7.556  -6.326  21.854  0.00  0.00    -0.503 OA
ATOM     21  H   UNL     1       8.533  -6.300  21.822  0.00  0.00    +0.292 HD
ENDBRANCH  15  20
ENDBRANCH   5  12
BRANCH  10  22
ATOM     22  O   UNL     1       3.641   1.323  27.844  0.00  0.00    -0.506 OA
ATOM     23  H   UNL     1       3.472   0.364  27.944  0.00  0.00    +0.292 HD
ENDBRANCH  10  22
BRANCH   6  24
ATOM     24  O   UNL     1       4.859  -3.076  26.748  0.00  0.00    -0.453 OA
BRANCH  24  25
ATOM     25  C   UNL     1       5.269  -3.837  27.905  0.00  0.00    +0.340 C 
ATOM     26  O   UNL     1       6.140  -4.924  27.518  0.00  0.00    -0.331 OA
ATOM     27  C   UNL     1       5.557  -6.183  27.142  0.00  0.00    +0.179 C 
ATOM     28  C   UNL     1       4.443  -6.703  28.082  0.00  0.00    +0.177 C 
ATOM     29  C   UNL     1       3.591  -5.645  28.801  0.00  0.00    +0.180 C 
ATOM     30  C   UNL     1       4.351  -4.320  29.058  0.00  0.00    +0.214 C 
BRANCH  30  31
ATOM     31  O   UNL     1       5.193  -4.556  30.226  0.00  0.00    -0.383 OA
ATOM     32  H   UNL     1       5.323  -5.522  30.301  0.00  0.00    +0.210 HD
ENDBRANCH  30  31
BRANCH  29  33
ATOM     33  O   UNL     1       2.293  -5.651  28.233  0.00  0.00    -0.386 OA
ATOM     34  H   UNL     1       2.293  -6.061  27.352  0.00  0.00    +0.210 HD
ENDBRANCH  29  33
BRANCH  28  35
ATOM     35  O   UNL     1       5.040  -7.488  29.134  0.00  0.00    -0.386 OA
ATOM     36  H   UNL     1       4.416  -7.452  29.888  0.00  0.00    +0.210 HD
ENDBRANCH  28  35
BRANCH  27  37
ATOM     37  C   UNL     1       5.167  -6.228  25.642  0.00  0.00    +0.197 C 
BRANCH  37  38
ATOM     38  O   UNL     1       3.810  -6.699  25.482  0.00  0.00    -0.346 OA
BRANCH  38  39
ATOM     39  C   UNL     1       3.469  -6.943  24.109  0.00  0.00    +0.282 C 
ATOM     40  O   UNL     1       3.343  -5.756  23.323  0.00  0.00    -0.341 OA
ATOM     41  C   UNL     1       2.130  -4.989  23.418  0.00  0.00    +0.178 C 
ATOM     42  C   UNL     1       0.818  -5.792  23.538  0.00  0.00    +0.177 C 
ATOM     43  C   UNL     1       0.963  -7.027  24.432  0.00  0.00    +0.179 C 
ATOM     44  C   UNL     1       2.206  -7.827  24.015  0.00  0.00    +0.201 C 
BRANCH  44  45
ATOM     45  O   UNL     1       2.046  -8.338  22.678  0.00  0.00    -0.384 OA
ATOM     46  H   UNL     1       1.804  -7.580  22.102  0.00  0.00    +0.210 HD
ENDBRANCH  44  45
BRANCH  43  47
ATOM     47  O   UNL     1       0.966  -6.630  25.801  0.00  0.00    -0.386 OA
ATOM     48  H   UNL     1       0.730  -7.403  26.354  0.00  0.00    +0.210 HD
ENDBRANCH  43  47
BRANCH  42  49
ATOM     49  O   UNL     1       0.445  -6.218  22.212  0.00  0.00    -0.386 OA
ATOM     50  H   UNL     1       1.250  -6.581  21.794  0.00  0.00    +0.210 HD
ENDBRANCH  42  49
BRANCH  41  51
ATOM     51  C   UNL     1       2.229  -3.878  24.473  0.00  0.00    +0.190 C 
BRANCH  51  52
ATOM     52  O   UNL     1       2.448  -4.413  25.781  0.00  0.00    -0.392 OA
ATOM     53  H   UNL     1       1.579  -4.520  26.207  0.00  0.00    +0.210 HD
ENDBRANCH  51  52
ENDBRANCH  41  51
ENDBRANCH  38  39
ENDBRANCH  37  38
ENDBRANCH  27  37
ENDBRANCH  24  25
ENDBRANCH   6  24
BRANCH   1  54
ATOM     54  O   UNL     1       5.683   4.193  24.615  0.00  0.00    -0.461 OA
BRANCH  54  58
ATOM     55  C   UNL     1       4.011   6.594  23.774  0.00  0.00    +0.041 C 
ATOM     56  C   UNL     1       4.891   6.256  22.573  0.00  0.00    +0.150 C 
ATOM     57  O   UNL     1       5.075   4.842  22.394  0.00  0.00    -0.334 OA
ATOM     58  C   UNL     1       6.068   4.226  23.224  0.00  0.00    +0.339 C 
ATOM     59  C   UNL     1       7.440   4.894  23.099  0.00  0.00    +0.214 C 
ATOM     60  C   UNL     1       7.319   6.384  23.417  0.00  0.00    +0.180 C 
ATOM     61  C   UNL     1       6.237   7.009  22.519  0.00  0.00    +0.174 C 
BRANCH  59  62
ATOM     62  O   UNL     1       8.392   4.248  23.953  0.00  0.00    -0.383 OA
ATOM     63  H   UNL     1       8.533   3.353  23.592  0.00  0.00    +0.210 HD
ENDBRANCH  59  62
BRANCH  60  64
ATOM     64  O   UNL     1       7.055   6.598  24.812  0.00  0.00    -0.386 OA
ATOM     65  H   UNL     1       7.817   6.289  25.333  0.00  0.00    +0.210 HD
ENDBRANCH  60  64
BRANCH  61  66
ATOM     66  O   UNL     1       6.709   6.977  21.158  0.00  0.00    -0.387 OA
ATOM     67  H   UNL     1       7.678   7.102  21.159  0.00  0.00    +0.210 HD
ENDBRANCH  61  66
ENDBRANCH  54  58
ENDBRANCH   1  54
TORSDOF 22
ENDMDL
MODEL 6
REMARK VINA RESULT:      -6.3      1.994      3.081
REMARK  Name = 
REMARK  23 active torsions:
REMARK  status: ('A' for Active; 'I' for Inactive)
REMARK    1  A    between atoms: C_1  and  C_2
REMARK    2  A    between atoms: C_4  and  O_69
REMARK    3  A    between atoms: C_6  and  O_68
REMARK    4  A    between atoms: C_8  and  O_67
REMARK    5  A    between atoms: C_10  and  O_13
REMARK    6  A    between atoms: O_13  and  C_14
REMARK    7  A    between atoms: C_16  and  O_66
REMARK    8  A    between atoms: C_21  and  C_58
REMARK    9  A    between atoms: C_22  and  O_25
REMARK   10  A    between atoms: O_25  and  C_26
REMARK   11  A    between atoms: C_28  and  O_57
REMARK   12  A    between atoms: C_30  and  O_56
REMARK   13  A    between atoms: C_32  and  O_55
REMARK   14  A    between atoms: C_34  and  C_37
REMARK   15  A    between atoms: C_37  and  O_38
REMARK   16  A    between atoms: O_38  and  C_39
REMARK   17  A    between atoms: C_41  and  O_54
REMARK   18  A    between atoms: C_43  and  O_53
REMARK   19  A    between atoms: C_45  and  O_52
REMARK   20  A    between atoms: C_47  and  C_50
REMARK   21  A    between atoms: C_50  and  O_51
REMARK   22  A    between atoms: C_60  and  O_65
REMARK   23  A    between atoms: C_61  and  O_64
REMARK                            x       y       z     vdW  Elec       q    Type
REMARK                         _______ _______ _______ _____ _____    ______ ____
ROOT
ATOM      1  C   UNL     1       6.171  -2.322  26.728  0.00  0.00    +0.131 A 
ATOM      2  C   UNL     1       5.091  -1.416  26.863  0.00  0.00    +0.093 A 
ATOM      3  C   UNL     1       5.355  -0.070  27.139  0.00  0.00    +0.147 A 
ATOM      4  O   UNL     1       4.362   0.843  27.452  0.00  0.00    -0.451 OA
ATOM      5  C   UNL     1       4.735   2.217  27.619  0.00  0.00    +0.181 A 
ATOM      6  C   UNL     1       6.027   2.602  27.830  0.00  0.00    +0.214 A 
ATOM      7  C   UNL     1       6.852   1.433  28.077  0.00  0.00    +0.238 A 
ATOM      8  O   UNL     1       7.490   1.242  29.100  0.00  0.00    -0.283 OA
ATOM      9  C   UNL     1       6.674   0.315  27.206  0.00  0.00    +0.109 A 
ATOM     10  C   UNL     1       7.736  -0.535  26.964  0.00  0.00    +0.135 A 
ATOM     11  C   UNL     1       7.492  -1.869  26.795  0.00  0.00    +0.092 A 
ENDROOT
BRANCH   5  12
ATOM     12  C   UNL     1       3.550   3.128  27.616  0.00  0.00    +0.025 A 
ATOM     13  C   UNL     1       2.881   3.454  26.420  0.00  0.00    +0.015 A 
ATOM     14  C   UNL     1       1.845   4.398  26.393  0.00  0.00    +0.050 A 
ATOM     15  C   UNL     1       1.471   5.026  27.566  0.00  0.00    +0.158 A 
ATOM     16  C   UNL     1       2.137   4.752  28.753  0.00  0.00    +0.159 A 
ATOM     17  C   UNL     1       3.169   3.812  28.785  0.00  0.00    +0.060 A 
BRANCH  16  18
ATOM     18  O   UNL     1       1.760   5.453  29.865  0.00  0.00    -0.503 OA
ATOM     19  H   UNL     1       0.919   5.902  29.676  0.00  0.00    +0.292 HD
ENDBRANCH  16  18
BRANCH  15  20
ATOM     20  O   UNL     1       0.449   5.928  27.548  0.00  0.00    -0.503 OA
ATOM     21  H   UNL     1      -0.172   5.591  26.871  0.00  0.00    +0.292 HD
ENDBRANCH  15  20
ENDBRANCH   5  12
BRANCH  10  22
ATOM     22  O   UNL     1       9.008  -0.071  26.892  0.00  0.00    -0.506 OA
ATOM     23  H   UNL     1       9.431  -0.441  26.091  0.00  0.00    +0.292 HD
ENDBRANCH  10  22
BRANCH   6  24
ATOM     24  O   UNL     1       6.571   3.854  27.720  0.00  0.00    -0.453 OA
BRANCH  24  25
ATOM     25  C   UNL     1       6.325   4.834  26.688  0.00  0.00    +0.340 C 
ATOM     26  O   UNL     1       6.473   4.243  25.378  0.00  0.00    -0.331 OA
ATOM     27  C   UNL     1       7.774   4.218  24.769  0.00  0.00    +0.179 C 
ATOM     28  C   UNL     1       8.566   5.547  24.845  0.00  0.00    +0.177 C 
ATOM     29  C   UNL     1       8.306   6.440  26.068  0.00  0.00    +0.180 C 
ATOM     30  C   UNL     1       6.878   6.282  26.648  0.00  0.00    +0.214 C 
BRANCH  30  31
ATOM     31  O   UNL     1       6.002   7.067  25.784  0.00  0.00    -0.383 OA
ATOM     32  H   UNL     1       5.143   7.153  26.241  0.00  0.00    +0.210 HD
ENDBRANCH  30  31
BRANCH  29  33
ATOM     33  O   UNL     1       9.448   6.400  26.906  0.00  0.00    -0.386 OA
ATOM     34  H   UNL     1       9.200   6.392  27.845  0.00  0.00    +0.210 HD
ENDBRANCH  29  33
BRANCH  28  35
ATOM     35  O   UNL     1       8.234   6.362  23.703  0.00  0.00    -0.386 OA
ATOM     36  H   UNL     1       7.617   5.830  23.160  0.00  0.00    +0.210 HD
ENDBRANCH  28  35
BRANCH  27  37
ATOM     37  C   UNL     1       8.605   2.982  25.199  0.00  0.00    +0.197 C 
BRANCH  37  38
ATOM     38  O   UNL     1       8.139   1.793  24.522  0.00  0.00    -0.346 OA
BRANCH  38  39
ATOM     39  C   UNL     1       8.360   1.844  23.103  0.00  0.00    +0.282 C 
ATOM     40  O   UNL     1       7.547   0.934  22.358  0.00  0.00    -0.341 OA
ATOM     41  C   UNL     1       7.933  -0.450  22.301  0.00  0.00    +0.178 C 
ATOM     42  C   UNL     1       9.444  -0.738  22.188  0.00  0.00    +0.177 C 
ATOM     43  C   UNL     1      10.290   0.212  23.042  0.00  0.00    +0.179 C 
ATOM     44  C   UNL     1       9.860   1.664  22.784  0.00  0.00    +0.201 C 
BRANCH  44  45
ATOM     45  O   UNL     1      10.133   2.031  21.418  0.00  0.00    -0.384 OA
ATOM     46  H   UNL     1       9.284   2.323  21.019  0.00  0.00    +0.210 HD
ENDBRANCH  44  45
BRANCH  43  47
ATOM     47  O   UNL     1      10.212  -0.177  24.412  0.00  0.00    -0.386 OA
ATOM     48  H   UNL     1      10.368   0.611  24.972  0.00  0.00    +0.210 HD
ENDBRANCH  43  47
BRANCH  42  49
ATOM     49  O   UNL     1       9.817  -0.577  20.805  0.00  0.00    -0.386 OA
ATOM     50  H   UNL     1       8.989  -0.477  20.298  0.00  0.00    +0.210 HD
ENDBRANCH  42  49
BRANCH  41  51
ATOM     51  C   UNL     1       7.264  -1.283  23.404  0.00  0.00    +0.190 C 
BRANCH  51  52
ATOM     52  O   UNL     1       5.839  -1.171  23.356  0.00  0.00    -0.392 OA
ATOM     53  H   UNL     1       5.494  -1.966  22.911  0.00  0.00    +0.210 HD
ENDBRANCH  51  52
ENDBRANCH  41  51
ENDBRANCH  38  39
ENDBRANCH  37  38
ENDBRANCH  27  37
ENDBRANCH  24  25
ENDBRANCH   6  24
BRANCH   1  54
ATOM     54  O   UNL     1       5.849  -3.639  26.533  0.00  0.00    -0.461 OA
BRANCH  54  58
ATOM     55  C   UNL     1       7.592  -4.871  24.364  0.00  0.00    +0.041 C 
ATOM     56  C   UNL     1       6.150  -5.068  23.903  0.00  0.00    +0.150 C 
ATOM     57  O   UNL     1       5.302  -3.953  24.226  0.00  0.00    -0.334 OA
ATOM     58  C   UNL     1       4.807  -3.907  25.570  0.00  0.00    +0.339 C 
ATOM     59  C   UNL     1       4.068  -5.185  25.972  0.00  0.00    +0.214 C 
ATOM     60  C   UNL     1       4.983  -6.394  25.775  0.00  0.00    +0.180 C 
ATOM     61  C   UNL     1       5.506  -6.405  24.329  0.00  0.00    +0.174 C 
BRANCH  59  62
ATOM     62  O   UNL     1       3.603  -5.091  27.324  0.00  0.00    -0.383 OA
ATOM     63  H   UNL     1       3.718  -5.974  27.724  0.00  0.00    +0.210 HD
ENDBRANCH  59  62
BRANCH  60  64
ATOM     64  O   UNL     1       6.050  -6.400  26.737  0.00  0.00    -0.386 OA
ATOM     65  H   UNL     1       6.105  -5.525  27.159  0.00  0.00    +0.210 HD
ENDBRANCH  60  64
BRANCH  61  66
ATOM     66  O   UNL     1       4.392  -6.660  23.450  0.00  0.00    -0.387 OA
ATOM     67  H   UNL     1       4.024  -5.806  23.155  0.00  0.00    +0.210 HD
ENDBRANCH  61  66
ENDBRANCH  54  58
ENDBRANCH   1  54
TORSDOF 22
ENDMDL
MODEL 7
REMARK VINA RESULT:      -6.2      2.270      5.549
REMARK  Name = 
REMARK  23 active torsions:
REMARK  status: ('A' for Active; 'I' for Inactive)
REMARK    1  A    between atoms: C_1  and  C_2
REMARK    2  A    between atoms: C_4  and  O_69
REMARK    3  A    between atoms: C_6  and  O_68
REMARK    4  A    between atoms: C_8  and  O_67
REMARK    5  A    between atoms: C_10  and  O_13
REMARK    6  A    between atoms: O_13  and  C_14
REMARK    7  A    between atoms: C_16  and  O_66
REMARK    8  A    between atoms: C_21  and  C_58
REMARK    9  A    between atoms: C_22  and  O_25
REMARK   10  A    between atoms: O_25  and  C_26
REMARK   11  A    between atoms: C_28  and  O_57
REMARK   12  A    between atoms: C_30  and  O_56
REMARK   13  A    between atoms: C_32  and  O_55
REMARK   14  A    between atoms: C_34  and  C_37
REMARK   15  A    between atoms: C_37  and  O_38
REMARK   16  A    between atoms: O_38  and  C_39
REMARK   17  A    between atoms: C_41  and  O_54
REMARK   18  A    between atoms: C_43  and  O_53
REMARK   19  A    between atoms: C_45  and  O_52
REMARK   20  A    between atoms: C_47  and  C_50
REMARK   21  A    between atoms: C_50  and  O_51
REMARK   22  A    between atoms: C_60  and  O_65
REMARK   23  A    between atoms: C_61  and  O_64
REMARK                            x       y       z     vdW  Elec       q    Type
REMARK                         _______ _______ _______ _____ _____    ______ ____
ROOT
ATOM      1  C   UNL     1       3.993  -4.212  26.274  0.00  0.00    +0.131 A 
ATOM      2  C   UNL     1       4.915  -3.624  25.374  0.00  0.00    +0.093 A 
ATOM      3  C   UNL     1       5.300  -2.291  25.559  0.00  0.00    +0.147 A 
ATOM      4  O   UNL     1       6.060  -1.592  24.637  0.00  0.00    -0.451 OA
ATOM      5  C   UNL     1       6.480  -0.263  24.974  0.00  0.00    +0.181 A 
ATOM      6  C   UNL     1       5.892   0.456  25.974  0.00  0.00    +0.214 A 
ATOM      7  C   UNL     1       4.696  -0.228  26.431  0.00  0.00    +0.238 A 
ATOM      8  O   UNL     1       3.571   0.247  26.394  0.00  0.00    -0.283 OA
ATOM      9  C   UNL     1       4.797  -1.635  26.659  0.00  0.00    +0.109 A 
ATOM     10  C   UNL     1       3.988  -2.231  27.607  0.00  0.00    +0.135 A 
ATOM     11  C   UNL     1       3.526  -3.497  27.381  0.00  0.00    +0.092 A 
ENDROOT
BRANCH   5  12
ATOM     12  C   UNL     1       7.552   0.238  24.062  0.00  0.00    +0.025 A 
ATOM     13  C   UNL     1       8.892   0.329  24.488  0.00  0.00    +0.015 A 
ATOM     14  C   UNL     1       9.881   0.909  23.680  0.00  0.00    +0.050 A 
ATOM     15  C   UNL     1       9.534   1.404  22.438  0.00  0.00    +0.158 A 
ATOM     16  C   UNL     1       8.216   1.361  22.006  0.00  0.00    +0.159 A 
ATOM     17  C   UNL     1       7.227   0.784  22.807  0.00  0.00    +0.060 A 
BRANCH  16  18
ATOM     18  O   UNL     1       7.928   1.924  20.793  0.00  0.00    -0.503 OA
ATOM     19  H   UNL     1       8.514   2.689  20.663  0.00  0.00    +0.292 HD
ENDBRANCH  16  18
BRANCH  15  20
ATOM     20  O   UNL     1      10.497   1.947  21.640  0.00  0.00    -0.503 OA
ATOM     21  H   UNL     1      10.550   2.886  21.911  0.00  0.00    +0.292 HD
ENDBRANCH  15  20
ENDBRANCH   5  12
BRANCH  10  22
ATOM     22  O   UNL     1       3.645  -1.585  28.749  0.00  0.00    -0.506 OA
ATOM     23  H   UNL     1       3.022  -0.864  28.526  0.00  0.00    +0.292 HD
ENDBRANCH  10  22
BRANCH   6  24
ATOM     24  O   UNL     1       6.353   1.587  26.594  0.00  0.00    -0.453 OA
BRANCH  24  25
ATOM     25  C   UNL     1       5.959   2.107  27.882  0.00  0.00    +0.340 C 
ATOM     26  O   UNL     1       4.613   2.629  27.831  0.00  0.00    -0.331 OA
ATOM     27  C   UNL     1       4.410   3.996  27.437  0.00  0.00    +0.179 C 
ATOM     28  C   UNL     1       5.354   5.025  28.108  0.00  0.00    +0.177 C 
ATOM     29  C   UNL     1       6.760   4.533  28.485  0.00  0.00    +0.180 C 
ATOM     30  C   UNL     1       6.813   3.018  28.803  0.00  0.00    +0.214 C 
BRANCH  30  31
ATOM     31  O   UNL     1       6.305   2.872  30.163  0.00  0.00    -0.383 OA
ATOM     32  H   UNL     1       6.711   2.068  30.541  0.00  0.00    +0.210 HD
ENDBRANCH  30  31
BRANCH  29  33
ATOM     33  O   UNL     1       7.697   5.134  27.609  0.00  0.00    -0.386 OA
ATOM     34  H   UNL     1       8.463   5.483  28.095  0.00  0.00    +0.210 HD
ENDBRANCH  29  33
BRANCH  28  35
ATOM     35  O   UNL     1       4.764   5.473  29.345  0.00  0.00    -0.386 OA
ATOM     36  H   UNL     1       4.892   6.443  29.371  0.00  0.00    +0.210 HD
ENDBRANCH  28  35
BRANCH  27  37
ATOM     37  C   UNL     1       4.316   4.160  25.899  0.00  0.00    +0.197 C 
BRANCH  37  38
ATOM     38  O   UNL     1       5.564   4.651  25.361  0.00  0.00    -0.346 OA
BRANCH  38  39
ATOM     39  C   UNL     1       5.558   4.720  23.926  0.00  0.00    +0.282 C 
ATOM     40  O   UNL     1       6.668   4.065  23.310  0.00  0.00    -0.341 OA
ATOM     41  C   UNL     1       7.936   4.743  23.270  0.00  0.00    +0.178 C 
ATOM     42  C   UNL     1       7.893   6.263  23.009  0.00  0.00    +0.177 C 
ATOM     43  C   UNL     1       6.729   6.952  23.727  0.00  0.00    +0.179 C 
ATOM     44  C   UNL     1       5.425   6.185  23.457  0.00  0.00    +0.201 C 
BRANCH  44  45
ATOM     45  O   UNL     1       5.096   6.239  22.056  0.00  0.00    -0.384 OA
ATOM     46  H   UNL     1       5.910   6.507  21.574  0.00  0.00    +0.210 HD
ENDBRANCH  44  45
BRANCH  43  47
ATOM     47  O   UNL     1       7.036   7.093  25.112  0.00  0.00    -0.386 OA
ATOM     48  H   UNL     1       7.927   6.720  25.277  0.00  0.00    +0.210 HD
ENDBRANCH  43  47
BRANCH  42  49
ATOM     49  O   UNL     1       7.744   6.458  21.587  0.00  0.00    -0.386 OA
ATOM     50  H   UNL     1       8.643   6.480  21.209  0.00  0.00    +0.210 HD
ENDBRANCH  42  49
BRANCH  41  51
ATOM     51  C   UNL     1       8.823   4.386  24.471  0.00  0.00    +0.190 C 
BRANCH  51  52
ATOM     52  O   UNL     1       8.154   3.500  25.372  0.00  0.00    -0.392 OA
ATOM     53  H   UNL     1       8.730   3.373  26.146  0.00  0.00    +0.210 HD
ENDBRANCH  51  52
ENDBRANCH  41  51
ENDBRANCH  38  39
ENDBRANCH  37  38
ENDBRANCH  27  37
ENDBRANCH  24  25
ENDBRANCH   6  24
BRANCH   1  54
ATOM     54  O   UNL     1       3.597  -5.493  25.998  0.00  0.00    -0.461 OA
BRANCH  54  58
ATOM     55  C   UNL     1       3.584  -5.859  22.977  0.00  0.00    +0.041 C 
ATOM     56  C   UNL     1       2.169  -6.188  23.444  0.00  0.00    +0.150 C 
ATOM     57  O   UNL     1       1.724  -5.345  24.520  0.00  0.00    -0.334 OA
ATOM     58  C   UNL     1       2.179  -5.703  25.830  0.00  0.00    +0.339 C 
ATOM     59  C   UNL     1       1.837  -7.149  26.200  0.00  0.00    +0.214 C 
ATOM     60  C   UNL     1       2.412  -8.099  25.150  0.00  0.00    +0.180 C 
ATOM     61  C   UNL     1       1.915  -7.678  23.757  0.00  0.00    +0.174 C 
BRANCH  59  62
ATOM     62  O   UNL     1       2.321  -7.458  27.513  0.00  0.00    -0.383 OA
ATOM     63  H   UNL     1       1.735  -8.149  27.874  0.00  0.00    +0.210 HD
ENDBRANCH  59  62
BRANCH  60  64
ATOM     64  O   UNL     1       3.846  -8.147  25.222  0.00  0.00    -0.386 OA
ATOM     65  H   UNL     1       4.221  -7.625  24.492  0.00  0.00    +0.210 HD
ENDBRANCH  60  64
BRANCH  61  66
ATOM     66  O   UNL     1       0.494  -7.908  23.699  0.00  0.00    -0.387 OA
ATOM     67  H   UNL     1       0.096  -7.629  24.546  0.00  0.00    +0.210 HD
ENDBRANCH  61  66
ENDBRANCH  54  58
ENDBRANCH   1  54
TORSDOF 22
ENDMDL
MODEL 8
REMARK VINA RESULT:      -6.1      2.591      9.476
REMARK  Name = 
REMARK  23 active torsions:
REMARK  status: ('A' for Active; 'I' for Inactive)
REMARK    1  A    between atoms: C_1  and  C_2
REMARK    2  A    between atoms: C_4  and  O_69
REMARK    3  A    between atoms: C_6  and  O_68
REMARK    4  A    between atoms: C_8  and  O_67
REMARK    5  A    between atoms: C_10  and  O_13
REMARK    6  A    between atoms: O_13  and  C_14
REMARK    7  A    between atoms: C_16  and  O_66
REMARK    8  A    between atoms: C_21  and  C_58
REMARK    9  A    between atoms: C_22  and  O_25
REMARK   10  A    between atoms: O_25  and  C_26
REMARK   11  A    between atoms: C_28  and  O_57
REMARK   12  A    between atoms: C_30  and  O_56
REMARK   13  A    between atoms: C_32  and  O_55
REMARK   14  A    between atoms: C_34  and  C_37
REMARK   15  A    between atoms: C_37  and  O_38
REMARK   16  A    between atoms: O_38  and  C_39
REMARK   17  A    between atoms: C_41  and  O_54
REMARK   18  A    between atoms: C_43  and  O_53
REMARK   19  A    between atoms: C_45  and  O_52
REMARK   20  A    between atoms: C_47  and  C_50
REMARK   21  A    between atoms: C_50  and  O_51
REMARK   22  A    between atoms: C_60  and  O_65
REMARK   23  A    between atoms: C_61  and  O_64
REMARK                            x       y       z     vdW  Elec       q    Type
REMARK                         _______ _______ _______ _____ _____    ______ ____
ROOT
ATOM      1  C   UNL     1       6.850   2.400  25.337  0.00  0.00    +0.131 A 
ATOM      2  C   UNL     1       6.655   1.263  24.515  0.00  0.00    +0.093 A 
ATOM      3  C   UNL     1       6.827  -0.014  25.059  0.00  0.00    +0.147 A 
ATOM      4  O   UNL     1       6.823  -1.167  24.291  0.00  0.00    -0.451 OA
ATOM      5  C   UNL     1       6.908  -2.429  24.966  0.00  0.00    +0.181 A 
ATOM      6  C   UNL     1       7.336  -2.540  26.257  0.00  0.00    +0.214 A 
ATOM      7  C   UNL     1       7.878  -1.269  26.703  0.00  0.00    +0.238 A 
ATOM      8  O   UNL     1       9.026  -1.104  27.085  0.00  0.00    -0.283 OA
ATOM      9  C   UNL     1       7.121  -0.096  26.401  0.00  0.00    +0.109 A 
ATOM     10  C   UNL     1       7.201   1.000  27.238  0.00  0.00    +0.135 A 
ATOM     11  C   UNL     1       7.136   2.254  26.697  0.00  0.00    +0.092 A 
ENDROOT
BRANCH   5  12
ATOM     12  C   UNL     1       6.557  -3.572  24.070  0.00  0.00    +0.025 A 
ATOM     13  C   UNL     1       7.547  -4.268  23.349  0.00  0.00    +0.015 A 
ATOM     14  C   UNL     1       7.215  -5.262  22.417  0.00  0.00    +0.050 A 
ATOM     15  C   UNL     1       5.885  -5.566  22.199  0.00  0.00    +0.158 A 
ATOM     16  C   UNL     1       4.886  -4.873  22.868  0.00  0.00    +0.159 A 
ATOM     17  C   UNL     1       5.212  -3.882  23.797  0.00  0.00    +0.060 A 
BRANCH  16  18
ATOM     18  O   UNL     1       3.589  -5.179  22.560  0.00  0.00    -0.503 OA
ATOM     19  H   UNL     1       3.503  -5.218  21.593  0.00  0.00    +0.292 HD
ENDBRANCH  16  18
BRANCH  15  20
ATOM     20  O   UNL     1       5.559  -6.549  21.311  0.00  0.00    -0.503 OA
ATOM     21  H   UNL     1       5.104  -6.086  20.579  0.00  0.00    +0.292 HD
ENDBRANCH  15  20
ENDBRANCH   5  12
BRANCH  10  22
ATOM     22  O   UNL     1       7.342   0.855  28.579  0.00  0.00    -0.506 OA
ATOM     23  H   UNL     1       6.980  -0.016  28.839  0.00  0.00    +0.292 HD
ENDBRANCH  10  22
BRANCH   6  24
ATOM     24  O   UNL     1       7.200  -3.602  27.111  0.00  0.00    -0.453 OA
BRANCH  24  25
ATOM     25  C   UNL     1       6.217  -4.658  27.054  0.00  0.00    +0.340 C 
ATOM     26  O   UNL     1       4.884  -4.108  26.950  0.00  0.00    -0.331 OA
ATOM     27  C   UNL     1       4.171  -3.778  28.153  0.00  0.00    +0.179 C 
ATOM     28  C   UNL     1       4.218  -4.855  29.266  0.00  0.00    +0.177 C 
ATOM     29  C   UNL     1       5.480  -5.728  29.334  0.00  0.00    +0.180 C 
ATOM     30  C   UNL     1       6.169  -5.916  27.959  0.00  0.00    +0.214 C 
BRANCH  30  31
ATOM     31  O   UNL     1       5.398  -6.937  27.257  0.00  0.00    -0.383 OA
ATOM     32  H   UNL     1       5.390  -7.735  27.821  0.00  0.00    +0.210 HD
ENDBRANCH  30  31
BRANCH  29  33
ATOM     33  O   UNL     1       6.221  -5.359  30.484  0.00  0.00    -0.386 OA
ATOM     34  H   UNL     1       5.665  -4.892  31.130  0.00  0.00    +0.210 HD
ENDBRANCH  29  33
BRANCH  28  35
ATOM     35  O   UNL     1       3.127  -5.778  29.076  0.00  0.00    -0.386 OA
ATOM     36  H   UNL     1       3.187  -6.082  28.147  0.00  0.00    +0.210 HD
ENDBRANCH  28  35
BRANCH  27  37
ATOM     37  C   UNL     1       4.502  -2.352  28.664  0.00  0.00    +0.197 C 
BRANCH  37  38
ATOM     38  O   UNL     1       3.330  -1.508  28.613  0.00  0.00    -0.346 OA
BRANCH  38  39
ATOM     39  C   UNL     1       2.869  -1.284  27.271  0.00  0.00    +0.282 C 
ATOM     40  O   UNL     1       3.450  -0.140  26.642  0.00  0.00    -0.341 OA
ATOM     41  C   UNL     1       2.934   1.163  26.965  0.00  0.00    +0.178 C 
ATOM     42  C   UNL     1       1.406   1.269  27.150  0.00  0.00    +0.177 C 
ATOM     43  C   UNL     1       0.815   0.059  27.878  0.00  0.00    +0.179 C 
ATOM     44  C   UNL     1       1.326  -1.237  27.230  0.00  0.00    +0.201 C 
BRANCH  44  45
ATOM     45  O   UNL     1       0.853  -1.337  25.874  0.00  0.00    -0.384 OA
ATOM     46  H   UNL     1      -0.112  -1.154  25.886  0.00  0.00    +0.210 HD
ENDBRANCH  44  45
BRANCH  43  47
ATOM     47  O   UNL     1       1.095   0.154  29.273  0.00  0.00    -0.386 OA
ATOM     48  H   UNL     1       0.379   0.665  29.704  0.00  0.00    +0.210 HD
ENDBRANCH  43  47
BRANCH  42  49
ATOM     49  O   UNL     1       0.813   1.360  25.839  0.00  0.00    -0.386 OA
ATOM     50  H   UNL     1       1.138   0.594  25.327  0.00  0.00    +0.210 HD
ENDBRANCH  42  49
BRANCH  41  51
ATOM     51  C   UNL     1       3.705   1.823  28.117  0.00  0.00    +0.190 C 
BRANCH  51  52
ATOM     52  O   UNL     1       2.825   2.491  29.024  0.00  0.00    -0.392 OA
ATOM     53  H   UNL     1       2.062   2.815  28.513  0.00  0.00    +0.210 HD
ENDBRANCH  51  52
ENDBRANCH  41  51
ENDBRANCH  38  39
ENDBRANCH  37  38
ENDBRANCH  27  37
ENDBRANCH  24  25
ENDBRANCH   6  24
BRANCH   1  54
ATOM     54  O   UNL     1       6.742   3.623  24.730  0.00  0.00    -0.461 OA
BRANCH  54  58
ATOM     55  C   UNL     1       4.920   5.942  23.979  0.00  0.00    +0.041 C 
ATOM     56  C   UNL     1       5.744   5.638  22.731  0.00  0.00    +0.150 C 
ATOM     57  O   UNL     1       5.982   4.233  22.545  0.00  0.00    -0.334 OA
ATOM     58  C   UNL     1       7.047   3.666  23.319  0.00  0.00    +0.339 C 
ATOM     59  C   UNL     1       8.378   4.394  23.115  0.00  0.00    +0.214 C 
ATOM     60  C   UNL     1       8.208   5.879  23.435  0.00  0.00    +0.180 C 
ATOM     61  C   UNL     1       7.051   6.450  22.599  0.00  0.00    +0.174 C 
BRANCH  59  62
ATOM     62  O   UNL     1       9.404   3.796  23.915  0.00  0.00    -0.383 OA
ATOM     63  H   UNL     1       9.090   3.818  24.839  0.00  0.00    +0.210 HD
ENDBRANCH  59  62
BRANCH  60  64
ATOM     64  O   UNL     1       8.014   6.088  24.843  0.00  0.00    -0.386 OA
ATOM     65  H   UNL     1       8.731   5.649  25.333  0.00  0.00    +0.210 HD
ENDBRANCH  60  64
BRANCH  61  66
ATOM     66  O   UNL     1       7.446   6.433  21.213  0.00  0.00    -0.387 OA
ATOM     67  H   UNL     1       6.837   7.004  20.707  0.00  0.00    +0.210 HD
ENDBRANCH  61  66
ENDBRANCH  54  58
ENDBRANCH   1  54
TORSDOF 22
ENDMDL
MODEL 9
REMARK VINA RESULT:      -6.1      2.201      6.162
REMARK  Name = 
REMARK  23 active torsions:
REMARK  status: ('A' for Active; 'I' for Inactive)
REMARK    1  A    between atoms: C_1  and  C_2
REMARK    2  A    between atoms: C_4  and  O_69
REMARK    3  A    between atoms: C_6  and  O_68
REMARK    4  A    between atoms: C_8  and  O_67
REMARK    5  A    between atoms: C_10  and  O_13
REMARK    6  A    between atoms: O_13  and  C_14
REMARK    7  A    between atoms: C_16  and  O_66
REMARK    8  A    between atoms: C_21  and  C_58
REMARK    9  A    between atoms: C_22  and  O_25
REMARK   10  A    between atoms: O_25  and  C_26
REMARK   11  A    between atoms: C_28  and  O_57
REMARK   12  A    between atoms: C_30  and  O_56
REMARK   13  A    between atoms: C_32  and  O_55
REMARK   14  A    between atoms: C_34  and  C_37
REMARK   15  A    between atoms: C_37  and  O_38
REMARK   16  A    between atoms: O_38  and  C_39
REMARK   17  A    between atoms: C_41  and  O_54
REMARK   18  A    between atoms: C_43  and  O_53
REMARK   19  A    between atoms: C_45  and  O_52
REMARK   20  A    between atoms: C_47  and  C_50
REMARK   21  A    between atoms: C_50  and  O_51
REMARK   22  A    between atoms: C_60  and  O_65
REMARK   23  A    between atoms: C_61  and  O_64
REMARK                            x       y       z     vdW  Elec       q    Type
REMARK                         _______ _______ _______ _____ _____    ______ ____
ROOT
ATOM      1  C   UNL     1       7.439  -1.145  24.489  0.00  0.00    +0.131 A 
ATOM      2  C   UNL     1       8.512  -0.223  24.434  0.00  0.00    +0.093 A 
ATOM      3  C   UNL     1       8.237   1.143  24.299  0.00  0.00    +0.147 A 
ATOM      4  O   UNL     1       9.220   2.090  24.069  0.00  0.00    -0.451 OA
ATOM      5  C   UNL     1       8.837   3.471  24.048  0.00  0.00    +0.181 A 
ATOM      6  C   UNL     1       7.540   3.867  23.895  0.00  0.00    +0.214 A 
ATOM      7  C   UNL     1       6.718   2.723  23.540  0.00  0.00    +0.238 A 
ATOM      8  O   UNL     1       6.067   2.633  22.510  0.00  0.00    -0.283 OA
ATOM      9  C   UNL     1       6.915   1.523  24.290  0.00  0.00    +0.109 A 
ATOM     10  C   UNL     1       5.861   0.645  24.457  0.00  0.00    +0.135 A 
ATOM     11  C   UNL     1       6.116  -0.698  24.486  0.00  0.00    +0.092 A 
ENDROOT
BRANCH   5  12
ATOM     12  C   UNL     1      10.016   4.385  24.129  0.00  0.00    +0.025 A 
ATOM     13  C   UNL     1       9.949   5.607  24.828  0.00  0.00    +0.015 A 
ATOM     14  C   UNL     1      11.010   6.523  24.809  0.00  0.00    +0.050 A 
ATOM     15  C   UNL     1      12.150   6.222  24.087  0.00  0.00    +0.158 A 
ATOM     16  C   UNL     1      12.230   5.043  23.360  0.00  0.00    +0.159 A 
ATOM     17  C   UNL     1      11.176   4.127  23.376  0.00  0.00    +0.060 A 
BRANCH  16  18
ATOM     18  O   UNL     1      13.360   4.835  22.617  0.00  0.00    -0.503 OA
ATOM     19  H   UNL     1      14.109   5.257  23.070  0.00  0.00    +0.292 HD
ENDBRANCH  16  18
BRANCH  15  20
ATOM     20  O   UNL     1      13.193   7.100  24.086  0.00  0.00    -0.503 OA
ATOM     21  H   UNL     1      13.828   6.737  24.736  0.00  0.00    +0.292 HD
ENDBRANCH  15  20
ENDBRANCH   5  12
BRANCH  10  22
ATOM     22  O   UNL     1       4.587   1.090  24.592  0.00  0.00    -0.506 OA
ATOM     23  H   UNL     1       4.384   1.172  25.546  0.00  0.00    +0.292 HD
ENDBRANCH  10  22
BRANCH   6  24
ATOM     24  O   UNL     1       6.990   5.097  24.138  0.00  0.00    -0.453 OA
BRANCH  24  25
ATOM     25  C   UNL     1       5.925   5.746  23.410  0.00  0.00    +0.340 C 
ATOM     26  O   UNL     1       5.493   6.942  24.096  0.00  0.00    -0.331 OA
ATOM     27  C   UNL     1       4.473   6.837  25.102  0.00  0.00    +0.179 C 
ATOM     28  C   UNL     1       3.247   5.973  24.715  0.00  0.00    +0.177 C 
ATOM     29  C   UNL     1       3.499   4.805  23.750  0.00  0.00    +0.180 C 
ATOM     30  C   UNL     1       4.686   5.052  22.786  0.00  0.00    +0.214 C 
BRANCH  30  31
ATOM     31  O   UNL     1       4.176   5.922  21.731  0.00  0.00    -0.383 OA
ATOM     32  H   UNL     1       3.203   5.940  21.813  0.00  0.00    +0.210 HD
ENDBRANCH  30  31
BRANCH  29  33
ATOM     33  O   UNL     1       3.378   3.591  24.472  0.00  0.00    -0.386 OA
ATOM     34  H   UNL     1       3.952   2.900  24.103  0.00  0.00    +0.210 HD
ENDBRANCH  29  33
BRANCH  28  35
ATOM     35  O   UNL     1       2.271   6.806  24.056  0.00  0.00    -0.386 OA
ATOM     36  H   UNL     1       1.398   6.411  24.256  0.00  0.00    +0.210 HD
ENDBRANCH  28  35
BRANCH  27  37
ATOM     37  C   UNL     1       5.053   6.490  26.497  0.00  0.00    +0.197 C 
BRANCH  37  38
ATOM     38  O   UNL     1       4.542   5.220  26.960  0.00  0.00    -0.346 OA
BRANCH  38  39
ATOM     39  C   UNL     1       5.577   4.237  27.127  0.00  0.00    +0.282 C 
ATOM     40  O   UNL     1       5.156   2.900  26.849  0.00  0.00    -0.341 OA
ATOM     41  C   UNL     1       4.411   2.188  27.852  0.00  0.00    +0.178 C 
ATOM     42  C   UNL     1       4.847   2.407  29.316  0.00  0.00    +0.177 C 
ATOM     43  C   UNL     1       5.237   3.859  29.604  0.00  0.00    +0.179 C 
ATOM     44  C   UNL     1       6.214   4.357  28.528  0.00  0.00    +0.201 C 
BRANCH  44  45
ATOM     45  O   UNL     1       7.445   3.611  28.588  0.00  0.00    -0.384 OA
ATOM     46  H   UNL     1       8.145   4.168  28.181  0.00  0.00    +0.210 HD
ENDBRANCH  44  45
BRANCH  43  47
ATOM     47  O   UNL     1       4.061   4.657  29.725  0.00  0.00    -0.386 OA
ATOM     48  H   UNL     1       3.396   4.161  30.244  0.00  0.00    +0.210 HD
ENDBRANCH  43  47
BRANCH  42  49
ATOM     49  O   UNL     1       5.988   1.560  29.563  0.00  0.00    -0.386 OA
ATOM     50  H   UNL     1       5.826   0.722  29.090  0.00  0.00    +0.210 HD
ENDBRANCH  42  49
BRANCH  41  51
ATOM     51  C   UNL     1       2.894   2.345  27.668  0.00  0.00    +0.190 C 
BRANCH  51  52
ATOM     52  O   UNL     1       2.444   1.720  26.464  0.00  0.00    -0.392 OA
ATOM     53  H   UNL     1       1.536   2.028  26.291  0.00  0.00    +0.210 HD
ENDBRANCH  51  52
ENDBRANCH  41  51
ENDBRANCH  38  39
ENDBRANCH  37  38
ENDBRANCH  27  37
ENDBRANCH  24  25
ENDBRANCH   6  24
BRANCH   1  54
ATOM     54  O   UNL     1       7.773  -2.473  24.544  0.00  0.00    -0.461 OA
BRANCH  54  58
ATOM     55  C   UNL     1       5.338  -3.900  25.683  0.00  0.00    +0.041 C 
ATOM     56  C   UNL     1       6.496  -4.240  26.617  0.00  0.00    +0.150 C 
ATOM     57  O   UNL     1       7.401  -3.140  26.811  0.00  0.00    -0.334 OA
ATOM     58  C   UNL     1       8.370  -2.932  25.776  0.00  0.00    +0.339 C 
ATOM     59  C   UNL     1       9.209  -4.181  25.491  0.00  0.00    +0.214 C 
ATOM     60  C   UNL     1       8.290  -5.351  25.143  0.00  0.00    +0.180 C 
ATOM     61  C   UNL     1       7.256  -5.537  26.267  0.00  0.00    +0.174 C 
BRANCH  59  62
ATOM     62  O   UNL     1      10.153  -3.923  24.445  0.00  0.00    -0.383 OA
ATOM     63  H   UNL     1      10.714  -3.183  24.747  0.00  0.00    +0.210 HD
ENDBRANCH  59  62
BRANCH  60  64
ATOM     64  O   UNL     1       7.669  -5.162  23.862  0.00  0.00    -0.386 OA
ATOM     65  H   UNL     1       7.121  -5.938  23.654  0.00  0.00    +0.210 HD
ENDBRANCH  60  64
BRANCH  61  66
ATOM     66  O   UNL     1       7.953  -5.977  27.450  0.00  0.00    -0.387 OA
ATOM     67  H   UNL     1       8.433  -5.217  27.831  0.00  0.00    +0.210 HD
ENDBRANCH  61  66
ENDBRANCH  54  58
ENDBRANCH   1  54
TORSDOF 22
ENDMDL
