MODEL 1
REMARK VINA RESULT:      -7.2      0.000      0.000
REMARK  Name = 
REMARK  23 active torsions:
REMARK  status: ('A' for Active; 'I' for Inactive)
REMARK    1  A    between atoms: C_1  and  C_2
REMARK    2  A    between atoms: C_4  and  O_69
REMARK    3  A    between atoms: C_6  and  O_68
REMARK    4  A    between atoms: C_8  and  O_67
REMARK    5  A    between atoms: C_10  and  O_13
REMARK    6  A    between atoms: O_13  and  C_14
REMARK    7  A    between atoms: C_16  and  O_66
REMARK    8  A    between atoms: C_18  and  O_65
REMARK    9  A    between atoms: C_20  and  C_63
REMARK   10  A    between atoms: C_23  and  O_25
REMARK   11  A    between atoms: O_25  and  C_26
REMARK   12  A    between atoms: C_27  and  C_55
REMARK   13  A    between atoms: C_31  and  O_38
REMARK   14  A    between atoms: C_33  and  O_37
REMARK   15  A    between atoms: O_38  and  C_39
REMARK   16  A    between atoms: C_41  and  O_54
REMARK   17  A    between atoms: C_43  and  O_53
REMARK   18  A    between atoms: C_45  and  O_52
REMARK   19  A    between atoms: C_47  and  C_50
REMARK   20  A    between atoms: C_50  and  O_51
REMARK   21  A    between atoms: C_57  and  O_62
REMARK   22  A    between atoms: C_58  and  O_61
REMARK   23  A    between atoms: C_63  and  O_64
REMARK                            x       y       z     vdW  Elec       q    Type
REMARK                         _______ _______ _______ _____ _____    ______ ____
ROOT
ATOM      1  C   UNL     1       6.412  -2.019  26.759  0.00  0.00    +0.214 A 
ATOM      2  C   UNL     1       7.842  -1.732  26.385  0.00  0.00    +0.238 A 
ATOM      3  O   UNL     1       8.703  -2.604  26.406  0.00  0.00    -0.283 OA
ATOM      4  C   UNL     1       8.128  -0.354  25.944  0.00  0.00    +0.109 A 
ATOM      5  C   UNL     1       7.211   0.628  26.295  0.00  0.00    +0.147 A 
ATOM      6  C   UNL     1       7.377   1.947  25.837  0.00  0.00    +0.093 A 
ATOM      7  C   UNL     1       8.471   2.298  25.027  0.00  0.00    +0.131 A 
ATOM      8  C   UNL     1       9.411   1.323  24.707  0.00  0.00    +0.092 A 
ATOM      9  O   UNL     1       6.140   0.361  27.116  0.00  0.00    -0.451 OA
ATOM     10  C   UNL     1       9.235   0.003  25.163  0.00  0.00    +0.135 A 
ATOM     11  C   UNL     1       5.689  -0.961  27.206  0.00  0.00    +0.181 A 
ENDROOT
BRANCH  11  12
ATOM     12  C   UNL     1       4.312  -0.991  27.791  0.00  0.00    +0.025 A 
ATOM     13  C   UNL     1       4.156  -0.620  29.138  0.00  0.00    +0.015 A 
ATOM     14  C   UNL     1       2.965  -0.878  29.832  0.00  0.00    +0.050 A 
ATOM     15  C   UNL     1       1.913  -1.500  29.180  0.00  0.00    +0.158 A 
ATOM     16  C   UNL     1       2.019  -1.827  27.831  0.00  0.00    +0.159 A 
ATOM     17  C   UNL     1       3.212  -1.585  27.131  0.00  0.00    +0.060 A 
BRANCH  16  18
ATOM     18  O   UNL     1       0.923  -2.419  27.258  0.00  0.00    -0.503 OA
ATOM     19  H   UNL     1       0.265  -1.731  27.057  0.00  0.00    +0.292 HD
ENDBRANCH  16  18
BRANCH  15  20
ATOM     20  O   UNL     1       0.783  -1.811  29.883  0.00  0.00    -0.503 OA
ATOM     21  H   UNL     1       0.103  -2.000  29.206  0.00  0.00    +0.292 HD
ENDBRANCH  15  20
ENDBRANCH  11  12
BRANCH  10  22
ATOM     22  O   UNL     1      10.157  -0.946  24.820  0.00  0.00    -0.506 OA
ATOM     23  H   UNL     1      10.910  -0.548  24.355  0.00  0.00    +0.292 HD
ENDBRANCH  10  22
BRANCH   7  24
ATOM     24  O   UNL     1       8.565   3.620  24.683  0.00  0.00    -0.461 OA
BRANCH  24  25
ATOM     25  C   UNL     1       7.386   4.448  24.682  0.00  0.00    +0.339 C 
ATOM     26  O   UNL     1       6.420   4.117  23.683  0.00  0.00    -0.331 OA
ATOM     27  C   UNL     1       6.761   4.382  22.311  0.00  0.00    +0.179 C 
ATOM     28  C   UNL     1       7.758   5.524  21.984  0.00  0.00    +0.177 C 
ATOM     29  C   UNL     1       8.559   6.086  23.167  0.00  0.00    +0.180 C 
ATOM     30  C   UNL     1       7.802   5.921  24.490  0.00  0.00    +0.214 C 
BRANCH  30  31
ATOM     31  O   UNL     1       6.670   6.805  24.529  0.00  0.00    -0.383 OA
ATOM     32  H   UNL     1       6.392   6.909  25.464  0.00  0.00    +0.210 HD
ENDBRANCH  30  31
BRANCH  29  33
ATOM     33  O   UNL     1       9.858   5.491  23.174  0.00  0.00    -0.386 OA
ATOM     34  H   UNL     1      10.249   5.575  22.286  0.00  0.00    +0.210 HD
ENDBRANCH  29  33
BRANCH  28  35
ATOM     35  O   UNL     1       6.975   6.621  21.458  0.00  0.00    -0.386 OA
ATOM     36  H   UNL     1       7.547   7.105  20.831  0.00  0.00    +0.210 HD
ENDBRANCH  28  35
BRANCH  27  37
ATOM     37  C   UNL     1       7.100   3.039  21.654  0.00  0.00    +0.190 C 
BRANCH  37  38
ATOM     38  O   UNL     1       8.524   2.860  21.650  0.00  0.00    -0.392 OA
ATOM     39  H   UNL     1       8.803   2.882  20.714  0.00  0.00    +0.210 HD
ENDBRANCH  37  38
ENDBRANCH  27  37
ENDBRANCH  24  25
ENDBRANCH   7  24
BRANCH   1  40
ATOM     40  O   UNL     1       5.894  -3.301  26.660  0.00  0.00    -0.453 OA
BRANCH  40  42
ATOM     41  C   UNL     1       5.265  -5.453  25.367  0.00  0.00    +0.221 C 
ATOM     42  C   UNL     1       6.018  -4.073  25.427  0.00  0.00    +0.340 C 
ATOM     43  O   UNL     1       5.811  -3.262  24.251  0.00  0.00    -0.331 OA
ATOM     44  C   UNL     1       6.148  -3.946  23.028  0.00  0.00    +0.179 C 
ATOM     45  C   UNL     1       5.208  -5.146  22.817  0.00  0.00    +0.177 C 
ATOM     46  C   UNL     1       5.434  -6.103  23.978  0.00  0.00    +0.180 C 
BRANCH  46  47
ATOM     47  O   UNL     1       4.642  -7.290  23.884  0.00  0.00    -0.386 OA
ATOM     48  H   UNL     1       3.970  -7.210  24.590  0.00  0.00    +0.210 HD
ENDBRANCH  46  47
BRANCH  45  49
ATOM     49  O   UNL     1       3.850  -4.735  22.692  0.00  0.00    -0.386 OA
ATOM     50  H   UNL     1       3.750  -3.837  23.101  0.00  0.00    +0.210 HD
ENDBRANCH  45  49
BRANCH  44  51
ATOM     51  C   UNL     1       6.096  -2.999  21.825  0.00  0.00    +0.190 C 
BRANCH  51  52
ATOM     52  O   UNL     1       5.632  -3.696  20.666  0.00  0.00    -0.392 OA
ATOM     53  H   UNL     1       6.348  -4.293  20.381  0.00  0.00    +0.210 HD
ENDBRANCH  51  52
ENDBRANCH  44  51
BRANCH  41  54
ATOM     54  O   UNL     1       5.565  -6.395  26.435  0.00  0.00    -0.337 OA
BRANCH  54  58
ATOM     55  C   UNL     1       1.522  -6.669  27.467  0.00  0.00    +0.041 C 
ATOM     56  C   UNL     1       2.424  -5.594  28.064  0.00  0.00    +0.149 C 
ATOM     57  O   UNL     1       3.634  -5.463  27.326  0.00  0.00    -0.343 OA
ATOM     58  C   UNL     1       4.551  -6.544  27.426  0.00  0.00    +0.282 C 
ATOM     59  C   UNL     1       5.112  -6.525  28.858  0.00  0.00    +0.201 C 
ATOM     60  C   UNL     1       3.928  -6.696  29.838  0.00  0.00    +0.179 C 
ATOM     61  C   UNL     1       2.775  -5.711  29.553  0.00  0.00    +0.174 C 
BRANCH  61  62
ATOM     62  O   UNL     1       3.195  -4.406  29.995  0.00  0.00    -0.387 OA
ATOM     63  H   UNL     1       2.433  -3.963  30.416  0.00  0.00    +0.210 HD
ENDBRANCH  61  62
BRANCH  60  64
ATOM     64  O   UNL     1       3.493  -8.068  29.826  0.00  0.00    -0.386 OA
ATOM     65  H   UNL     1       3.114  -8.323  30.681  0.00  0.00    +0.210 HD
ENDBRANCH  60  64
BRANCH  59  66
ATOM     66  O   UNL     1       6.079  -7.562  29.063  0.00  0.00    -0.384 OA
ATOM     67  H   UNL     1       6.795  -7.411  28.415  0.00  0.00    +0.210 HD
ENDBRANCH  59  66
ENDBRANCH  54  58
ENDBRANCH  41  54
ENDBRANCH  40  42
ENDBRANCH   1  40
TORSDOF 22
ENDMDL
MODEL 2
REMARK VINA RESULT:      -6.7      2.058      4.001
REMARK  Name = 
REMARK  23 active torsions:
REMARK  status: ('A' for Active; 'I' for Inactive)
REMARK    1  A    between atoms: C_1  and  C_2
REMARK    2  A    between atoms: C_4  and  O_69
REMARK    3  A    between atoms: C_6  and  O_68
REMARK    4  A    between atoms: C_8  and  O_67
REMARK    5  A    between atoms: C_10  and  O_13
REMARK    6  A    between atoms: O_13  and  C_14
REMARK    7  A    between atoms: C_16  and  O_66
REMARK    8  A    between atoms: C_18  and  O_65
REMARK    9  A    between atoms: C_20  and  C_63
REMARK   10  A    between atoms: C_23  and  O_25
REMARK   11  A    between atoms: O_25  and  C_26
REMARK   12  A    between atoms: C_27  and  C_55
REMARK   13  A    between atoms: C_31  and  O_38
REMARK   14  A    between atoms: C_33  and  O_37
REMARK   15  A    between atoms: O_38  and  C_39
REMARK   16  A    between atoms: C_41  and  O_54
REMARK   17  A    between atoms: C_43  and  O_53
REMARK   18  A    between atoms: C_45  and  O_52
REMARK   19  A    between atoms: C_47  and  C_50
REMARK   20  A    between atoms: C_50  and  O_51
REMARK   21  A    between atoms: C_57  and  O_62
REMARK   22  A    between atoms: C_58  and  O_61
REMARK   23  A    between atoms: C_63  and  O_64
REMARK                            x       y       z     vdW  Elec       q    Type
REMARK                         _______ _______ _______ _____ _____    ______ ____
ROOT
ATOM      1  C   UNL     1       5.641  -1.573  26.823  0.00  0.00    +0.214 A 
ATOM      2  C   UNL     1       5.618  -0.385  27.746  0.00  0.00    +0.238 A 
ATOM      3  O   UNL     1       5.644  -0.513  28.965  0.00  0.00    -0.283 OA
ATOM      4  C   UNL     1       5.614   0.937  27.093  0.00  0.00    +0.109 A 
ATOM      5  C   UNL     1       5.220   0.988  25.763  0.00  0.00    +0.147 A 
ATOM      6  C   UNL     1       5.273   2.201  25.055  0.00  0.00    +0.093 A 
ATOM      7  C   UNL     1       5.714   3.382  25.677  0.00  0.00    +0.131 A 
ATOM      8  C   UNL     1       6.073   3.340  27.021  0.00  0.00    +0.092 A 
ATOM      9  O   UNL     1       4.741  -0.122  25.106  0.00  0.00    -0.451 OA
ATOM     10  C   UNL     1       6.024   2.121  27.722  0.00  0.00    +0.135 A 
ATOM     11  C   UNL     1       5.096  -1.385  25.595  0.00  0.00    +0.181 A 
ENDROOT
BRANCH  11  12
ATOM     12  C   UNL     1       4.841  -2.425  24.550  0.00  0.00    +0.025 A 
ATOM     13  C   UNL     1       3.876  -3.411  24.816  0.00  0.00    +0.015 A 
ATOM     14  C   UNL     1       3.772  -4.563  24.023  0.00  0.00    +0.050 A 
ATOM     15  C   UNL     1       4.627  -4.733  22.947  0.00  0.00    +0.158 A 
ATOM     16  C   UNL     1       5.554  -3.747  22.624  0.00  0.00    +0.159 A 
ATOM     17  C   UNL     1       5.676  -2.596  23.420  0.00  0.00    +0.060 A 
BRANCH  16  18
ATOM     18  O   UNL     1       6.345  -3.986  21.531  0.00  0.00    -0.503 OA
ATOM     19  H   UNL     1       6.369  -3.183  20.981  0.00  0.00    +0.292 HD
ENDBRANCH  16  18
BRANCH  15  20
ATOM     20  O   UNL     1       4.564  -5.891  22.223  0.00  0.00    -0.503 OA
ATOM     21  H   UNL     1       4.278  -6.577  22.859  0.00  0.00    +0.292 HD
ENDBRANCH  15  20
ENDBRANCH  11  12
BRANCH  10  22
ATOM     22  O   UNL     1       6.401   2.095  29.036  0.00  0.00    -0.506 OA
ATOM     23  H   UNL     1       5.826   1.507  29.551  0.00  0.00    +0.292 HD
ENDBRANCH  10  22
BRANCH   7  24
ATOM     24  O   UNL     1       5.673   4.516  24.911  0.00  0.00    -0.461 OA
BRANCH  24  25
ATOM     25  C   UNL     1       5.181   4.454  23.559  0.00  0.00    +0.339 C 
ATOM     26  O   UNL     1       6.094   3.897  22.612  0.00  0.00    -0.331 OA
ATOM     27  C   UNL     1       7.265   4.666  22.283  0.00  0.00    +0.179 C 
ATOM     28  C   UNL     1       7.215   6.212  22.399  0.00  0.00    +0.177 C 
ATOM     29  C   UNL     1       6.019   6.797  23.164  0.00  0.00    +0.180 C 
ATOM     30  C   UNL     1       4.798   5.873  23.094  0.00  0.00    +0.214 C 
BRANCH  30  31
ATOM     31  O   UNL     1       4.251   5.871  21.764  0.00  0.00    -0.383 OA
ATOM     32  H   UNL     1       4.721   5.190  21.239  0.00  0.00    +0.210 HD
ENDBRANCH  30  31
BRANCH  29  33
ATOM     33  O   UNL     1       6.426   7.108  24.497  0.00  0.00    -0.386 OA
ATOM     34  H   UNL     1       6.047   6.448  25.105  0.00  0.00    +0.210 HD
ENDBRANCH  29  33
BRANCH  28  35
ATOM     35  O   UNL     1       7.136   6.727  21.050  0.00  0.00    -0.386 OA
ATOM     36  H   UNL     1       7.697   6.154  20.492  0.00  0.00    +0.210 HD
ENDBRANCH  28  35
BRANCH  27  37
ATOM     37  C   UNL     1       8.456   4.016  22.997  0.00  0.00    +0.190 C 
BRANCH  37  38
ATOM     38  O   UNL     1       8.662   4.664  24.260  0.00  0.00    -0.392 OA
ATOM     39  H   UNL     1       8.132   5.485  24.242  0.00  0.00    +0.210 HD
ENDBRANCH  37  38
ENDBRANCH  27  37
ENDBRANCH  24  25
ENDBRANCH   7  24
BRANCH   1  40
ATOM     40  O   UNL     1       6.177  -2.784  27.233  0.00  0.00    -0.453 OA
BRANCH  40  42
ATOM     41  C   UNL     1       7.671  -4.779  26.536  0.00  0.00    +0.221 C 
ATOM     42  C   UNL     1       7.482  -3.233  26.756  0.00  0.00    +0.340 C 
ATOM     43  O   UNL     1       7.963  -2.439  25.650  0.00  0.00    -0.331 OA
ATOM     44  C   UNL     1       9.336  -2.716  25.312  0.00  0.00    +0.179 C 
ATOM     45  C   UNL     1       9.475  -4.165  24.812  0.00  0.00    +0.177 C 
ATOM     46  C   UNL     1       9.073  -5.077  25.961  0.00  0.00    +0.180 C 
BRANCH  46  47
ATOM     47  O   UNL     1       9.193  -6.465  25.641  0.00  0.00    -0.386 OA
ATOM     48  H   UNL     1       9.087  -6.938  26.489  0.00  0.00    +0.210 HD
ENDBRANCH  46  47
BRANCH  45  49
ATOM     49  O   UNL     1       8.712  -4.391  23.631  0.00  0.00    -0.386 OA
ATOM     50  H   UNL     1       8.730  -5.360  23.421  0.00  0.00    +0.210 HD
ENDBRANCH  45  49
BRANCH  44  51
ATOM     51  C   UNL     1       9.864  -1.730  24.266  0.00  0.00    +0.190 C 
BRANCH  51  52
ATOM     52  O   UNL     1      10.572  -2.429  23.239  0.00  0.00    -0.392 OA
ATOM     53  H   UNL     1       9.912  -2.923  22.717  0.00  0.00    +0.210 HD
ENDBRANCH  51  52
ENDBRANCH  44  51
BRANCH  41  54
ATOM     54  O   UNL     1       7.373  -5.631  27.678  0.00  0.00    -0.337 OA
BRANCH  54  58
ATOM     55  C   UNL     1       4.379  -3.803  29.953  0.00  0.00    +0.041 C 
ATOM     56  C   UNL     1       4.769  -5.259  30.176  0.00  0.00    +0.149 C 
ATOM     57  O   UNL     1       6.016  -5.563  29.560  0.00  0.00    -0.343 OA
ATOM     58  C   UNL     1       6.024  -5.589  28.140  0.00  0.00    +0.282 C 
ATOM     59  C   UNL     1       5.211  -6.822  27.709  0.00  0.00    +0.201 C 
ATOM     60  C   UNL     1       3.775  -6.664  28.263  0.00  0.00    +0.179 C 
ATOM     61  C   UNL     1       3.754  -6.335  29.770  0.00  0.00    +0.174 C 
BRANCH  61  62
ATOM     62  O   UNL     1       4.097  -7.537  30.485  0.00  0.00    -0.387 OA
ATOM     63  H   UNL     1       4.797  -7.322  31.131  0.00  0.00    +0.210 HD
ENDBRANCH  61  62
BRANCH  60  64
ATOM     64  O   UNL     1       3.067  -5.689  27.477  0.00  0.00    -0.386 OA
ATOM     65  H   UNL     1       2.641  -6.100  26.708  0.00  0.00    +0.210 HD
ENDBRANCH  60  64
BRANCH  59  66
ATOM     66  O   UNL     1       5.180  -6.967  26.285  0.00  0.00    -0.384 OA
ATOM     67  H   UNL     1       6.055  -6.682  25.954  0.00  0.00    +0.210 HD
ENDBRANCH  59  66
ENDBRANCH  54  58
ENDBRANCH  41  54
ENDBRANCH  40  42
ENDBRANCH   1  40
TORSDOF 22
ENDMDL
MODEL 3
REMARK VINA RESULT:      -6.6      2.506      9.664
REMARK  Name = 
REMARK  23 active torsions:
REMARK  status: ('A' for Active; 'I' for Inactive)
REMARK    1  A    between atoms: C_1  and  C_2
REMARK    2  A    between atoms: C_4  and  O_69
REMARK    3  A    between atoms: C_6  and  O_68
REMARK    4  A    between atoms: C_8  and  O_67
REMARK    5  A    between atoms: C_10  and  O_13
REMARK    6  A    between atoms: O_13  and  C_14
REMARK    7  A    between atoms: C_16  and  O_66
REMARK    8  A    between atoms: C_18  and  O_65
REMARK    9  A    between atoms: C_20  and  C_63
REMARK   10  A    between atoms: C_23  and  O_25
REMARK   11  A    between atoms: O_25  and  C_26
REMARK   12  A    between atoms: C_27  and  C_55
REMARK   13  A    between atoms: C_31  and  O_38
REMARK   14  A    between atoms: C_33  and  O_37
REMARK   15  A    between atoms: O_38  and  C_39
REMARK   16  A    between atoms: C_41  and  O_54
REMARK   17  A    between atoms: C_43  and  O_53
REMARK   18  A    between atoms: C_45  and  O_52
REMARK   19  A    between atoms: C_47  and  C_50
REMARK   20  A    between atoms: C_50  and  O_51
REMARK   21  A    between atoms: C_57  and  O_62
REMARK   22  A    between atoms: C_58  and  O_61
REMARK   23  A    between atoms: C_63  and  O_64
REMARK                            x       y       z     vdW  Elec       q    Type
REMARK                         _______ _______ _______ _____ _____    ______ ____
ROOT
ATOM      1  C   UNL     1       6.913   0.767  26.500  0.00  0.00    +0.214 A 
ATOM      2  C   UNL     1       6.183   0.053  27.605  0.00  0.00    +0.238 A 
ATOM      3  O   UNL     1       6.103   0.521  28.735  0.00  0.00    -0.283 OA
ATOM      4  C   UNL     1       5.528  -1.215  27.231  0.00  0.00    +0.109 A 
ATOM      5  C   UNL     1       5.966  -1.837  26.070  0.00  0.00    +0.147 A 
ATOM      6  C   UNL     1       5.330  -3.003  25.609  0.00  0.00    +0.093 A 
ATOM      7  C   UNL     1       4.251  -3.564  26.313  0.00  0.00    +0.131 A 
ATOM      8  C   UNL     1       3.836  -2.962  27.498  0.00  0.00    +0.092 A 
ATOM      9  O   UNL     1       7.042  -1.363  25.354  0.00  0.00    -0.451 OA
ATOM     10  C   UNL     1       4.472  -1.791  27.950  0.00  0.00    +0.135 A 
ATOM     11  C   UNL     1       7.390  -0.015  25.498  0.00  0.00    +0.181 A 
ENDROOT
BRANCH  11  12
ATOM     12  C   UNL     1       8.281   0.404  24.372  0.00  0.00    +0.025 A 
ATOM     13  C   UNL     1       9.615   0.733  24.669  0.00  0.00    +0.015 A 
ATOM     14  C   UNL     1      10.429   1.389  23.733  0.00  0.00    +0.050 A 
ATOM     15  C   UNL     1       9.919   1.710  22.487  0.00  0.00    +0.158 A 
ATOM     16  C   UNL     1       8.621   1.344  22.144  0.00  0.00    +0.159 A 
ATOM     17  C   UNL     1       7.792   0.701  23.078  0.00  0.00    +0.060 A 
BRANCH  16  18
ATOM     18  O   UNL     1       8.204   1.681  20.883  0.00  0.00    -0.503 OA
ATOM     19  H   UNL     1       7.283   1.992  20.931  0.00  0.00    +0.292 HD
ENDBRANCH  16  18
BRANCH  15  20
ATOM     20  O   UNL     1      10.698   2.410  21.608  0.00  0.00    -0.503 OA
ATOM     21  H   UNL     1      11.600   2.384  21.988  0.00  0.00    +0.292 HD
ENDBRANCH  15  20
ENDBRANCH  11  12
BRANCH  10  22
ATOM     22  O   UNL     1       4.037  -1.203  29.104  0.00  0.00    -0.506 OA
ATOM     23  H   UNL     1       3.222  -1.623  29.423  0.00  0.00    +0.292 HD
ENDBRANCH  10  22
BRANCH   7  24
ATOM     24  O   UNL     1       3.742  -4.729  25.805  0.00  0.00    -0.461 OA
BRANCH  24  25
ATOM     25  C   UNL     1       4.204  -5.221  24.532  0.00  0.00    +0.339 C 
ATOM     26  O   UNL     1       3.251  -5.133  23.472  0.00  0.00    -0.331 OA
ATOM     27  C   UNL     1       2.105  -5.999  23.532  0.00  0.00    +0.179 C 
ATOM     28  C   UNL     1       2.216  -7.355  24.276  0.00  0.00    +0.177 C 
ATOM     29  C   UNL     1       3.448  -7.538  25.173  0.00  0.00    +0.180 C 
ATOM     30  C   UNL     1       4.631  -6.695  24.685  0.00  0.00    +0.214 C 
BRANCH  30  31
ATOM     31  O   UNL     1       5.150  -7.230  23.456  0.00  0.00    -0.383 OA
ATOM     32  H   UNL     1       6.114  -7.051  23.424  0.00  0.00    +0.210 HD
ENDBRANCH  30  31
BRANCH  29  33
ATOM     33  O   UNL     1       3.081  -7.277  26.528  0.00  0.00    -0.386 OA
ATOM     34  H   UNL     1       2.838  -6.338  26.615  0.00  0.00    +0.210 HD
ENDBRANCH  29  33
BRANCH  28  35
ATOM     35  O   UNL     1       2.287  -8.382  23.260  0.00  0.00    -0.386 OA
ATOM     36  H   UNL     1       3.212  -8.698  23.238  0.00  0.00    +0.210 HD
ENDBRANCH  28  35
BRANCH  27  37
ATOM     37  C   UNL     1       0.904  -5.143  23.952  0.00  0.00    +0.190 C 
BRANCH  37  38
ATOM     38  O   UNL     1       0.813  -5.126  25.384  0.00  0.00    -0.392 OA
ATOM     39  H   UNL     1       0.342  -4.304  25.623  0.00  0.00    +0.210 HD
ENDBRANCH  37  38
ENDBRANCH  27  37
ENDBRANCH  24  25
ENDBRANCH   7  24
BRANCH   1  40
ATOM     40  O   UNL     1       7.090   2.141  26.535  0.00  0.00    -0.453 OA
BRANCH  40  42
ATOM     41  C   UNL     1       5.816   3.541  24.770  0.00  0.00    +0.221 C 
ATOM     42  C   UNL     1       7.161   2.925  25.305  0.00  0.00    +0.340 C 
ATOM     43  O   UNL     1       8.251   3.870  25.320  0.00  0.00    -0.331 OA
ATOM     44  C   UNL     1       8.478   4.491  24.039  0.00  0.00    +0.179 C 
ATOM     45  C   UNL     1       7.260   5.343  23.642  0.00  0.00    +0.177 C 
ATOM     46  C   UNL     1       6.074   4.398  23.513  0.00  0.00    +0.180 C 
BRANCH  46  47
ATOM     47  O   UNL     1       4.874   5.061  23.107  0.00  0.00    -0.386 OA
ATOM     48  H   UNL     1       4.386   4.408  22.567  0.00  0.00    +0.210 HD
ENDBRANCH  46  47
BRANCH  45  49
ATOM     49  O   UNL     1       7.029   6.398  24.570  0.00  0.00    -0.386 OA
ATOM     50  H   UNL     1       7.106   6.036  25.490  0.00  0.00    +0.210 HD
ENDBRANCH  45  49
BRANCH  44  51
ATOM     51  C   UNL     1       9.752   5.340  24.047  0.00  0.00    +0.190 C 
BRANCH  51  52
ATOM     52  O   UNL     1       9.674   6.361  23.049  0.00  0.00    -0.392 OA
ATOM     53  H   UNL     1       8.731   6.587  22.939  0.00  0.00    +0.210 HD
ENDBRANCH  51  52
ENDBRANCH  44  51
BRANCH  41  54
ATOM     54  O   UNL     1       4.720   2.607  24.561  0.00  0.00    -0.337 OA
BRANCH  54  58
ATOM     55  C   UNL     1       3.166   2.182  28.419  0.00  0.00    +0.041 C 
ATOM     56  C   UNL     1       2.535   1.474  27.226  0.00  0.00    +0.149 C 
ATOM     57  O   UNL     1       3.410   1.468  26.103  0.00  0.00    -0.343 OA
ATOM     58  C   UNL     1       3.630   2.723  25.473  0.00  0.00    +0.282 C 
ATOM     59  C   UNL     1       2.314   3.113  24.779  0.00  0.00    +0.201 C 
ATOM     60  C   UNL     1       1.213   3.210  25.862  0.00  0.00    +0.179 C 
ATOM     61  C   UNL     1       1.155   1.958  26.762  0.00  0.00    +0.174 C 
BRANCH  61  62
ATOM     62  O   UNL     1       0.565   0.894  25.993  0.00  0.00    -0.387 OA
ATOM     63  H   UNL     1       0.816   0.042  26.402  0.00  0.00    +0.210 HD
ENDBRANCH  61  62
BRANCH  60  64
ATOM     64  O   UNL     1       1.394   4.422  26.617  0.00  0.00    -0.386 OA
ATOM     65  H   UNL     1       1.903   5.076  26.113  0.00  0.00    +0.210 HD
ENDBRANCH  60  64
BRANCH  59  66
ATOM     66  O   UNL     1       2.432   4.357  24.079  0.00  0.00    -0.384 OA
ATOM     67  H   UNL     1       1.540   4.756  24.064  0.00  0.00    +0.210 HD
ENDBRANCH  59  66
ENDBRANCH  54  58
ENDBRANCH  41  54
ENDBRANCH  40  42
ENDBRANCH   1  40
TORSDOF 22
ENDMDL
MODEL 4
REMARK VINA RESULT:      -6.6      2.097      4.819
REMARK  Name = 
REMARK  23 active torsions:
REMARK  status: ('A' for Active; 'I' for Inactive)
REMARK    1  A    between atoms: C_1  and  C_2
REMARK    2  A    between atoms: C_4  and  O_69
REMARK    3  A    between atoms: C_6  and  O_68
REMARK    4  A    between atoms: C_8  and  O_67
REMARK    5  A    between atoms: C_10  and  O_13
REMARK    6  A    between atoms: O_13  and  C_14
REMARK    7  A    between atoms: C_16  and  O_66
REMARK    8  A    between atoms: C_18  and  O_65
REMARK    9  A    between atoms: C_20  and  C_63
REMARK   10  A    between atoms: C_23  and  O_25
REMARK   11  A    between atoms: O_25  and  C_26
REMARK   12  A    between atoms: C_27  and  C_55
REMARK   13  A    between atoms: C_31  and  O_38
REMARK   14  A    between atoms: C_33  and  O_37
REMARK   15  A    between atoms: O_38  and  C_39
REMARK   16  A    between atoms: C_41  and  O_54
REMARK   17  A    between atoms: C_43  and  O_53
REMARK   18  A    between atoms: C_45  and  O_52
REMARK   19  A    between atoms: C_47  and  C_50
REMARK   20  A    between atoms: C_50  and  O_51
REMARK   21  A    between atoms: C_57  and  O_62
REMARK   22  A    between atoms: C_58  and  O_61
REMARK   23  A    between atoms: C_63  and  O_64
REMARK                            x       y       z     vdW  Elec       q    Type
REMARK                         _______ _______ _______ _____ _____    ______ ____
ROOT
ATOM      1  C   UNL     1       5.541  -4.330  27.208  0.00  0.00    +0.214 A 
ATOM      2  C   UNL     1       7.006  -4.542  26.935  0.00  0.00    +0.238 A 
ATOM      3  O   UNL     1       7.602  -5.533  27.339  0.00  0.00    -0.283 OA
ATOM      4  C   UNL     1       7.662  -3.511  26.110  0.00  0.00    +0.109 A 
ATOM      5  C   UNL     1       7.031  -2.278  26.012  0.00  0.00    +0.147 A 
ATOM      6  C   UNL     1       7.556  -1.278  25.176  0.00  0.00    +0.093 A 
ATOM      7  C   UNL     1       8.728  -1.500  24.433  0.00  0.00    +0.131 A 
ATOM      8  C   UNL     1       9.383  -2.722  24.559  0.00  0.00    +0.092 A 
ATOM      9  O   UNL     1       5.903  -1.981  26.742  0.00  0.00    -0.451 OA
ATOM     10  C   UNL     1       8.848  -3.721  25.393  0.00  0.00    +0.135 A 
ATOM     11  C   UNL     1       5.113  -3.043  27.200  0.00  0.00    +0.181 A 
ENDROOT
BRANCH  11  12
ATOM     12  C   UNL     1       3.761  -2.537  27.595  0.00  0.00    +0.025 A 
ATOM     13  C   UNL     1       3.156  -1.560  26.786  0.00  0.00    +0.015 A 
ATOM     14  C   UNL     1       2.033  -0.844  27.225  0.00  0.00    +0.050 A 
ATOM     15  C   UNL     1       1.497  -1.108  28.474  0.00  0.00    +0.158 A 
ATOM     16  C   UNL     1       2.040  -2.110  29.273  0.00  0.00    +0.159 A 
ATOM     17  C   UNL     1       3.173  -2.823  28.850  0.00  0.00    +0.060 A 
BRANCH  16  18
ATOM     18  O   UNL     1       1.434  -2.321  30.485  0.00  0.00    -0.503 OA
ATOM     19  H   UNL     1       1.944  -1.859  31.173  0.00  0.00    +0.292 HD
ENDBRANCH  16  18
BRANCH  15  20
ATOM     20  O   UNL     1       0.446  -0.357  28.921  0.00  0.00    -0.503 OA
ATOM     21  H   UNL     1      -0.326  -0.958  28.903  0.00  0.00    +0.292 HD
ENDBRANCH  15  20
ENDBRANCH  11  12
BRANCH  10  22
ATOM     22  O   UNL     1       9.493  -4.922  25.487  0.00  0.00    -0.506 OA
ATOM     23  H   UNL     1      10.068  -5.070  24.719  0.00  0.00    +0.292 HD
ENDBRANCH  10  22
BRANCH   7  24
ATOM     24  O   UNL     1       9.182  -0.440  23.694  0.00  0.00    -0.461 OA
BRANCH  24  25
ATOM     25  C   UNL     1       9.655   0.748  24.357  0.00  0.00    +0.339 C 
ATOM     26  O   UNL     1       8.629   1.611  24.850  0.00  0.00    -0.331 OA
ATOM     27  C   UNL     1       7.831   2.317  23.884  0.00  0.00    +0.179 C 
ATOM     28  C   UNL     1       8.438   2.655  22.497  0.00  0.00    +0.177 C 
ATOM     29  C   UNL     1       9.743   1.932  22.134  0.00  0.00    +0.180 C 
ATOM     30  C   UNL     1      10.544   1.550  23.384  0.00  0.00    +0.214 C 
BRANCH  30  31
ATOM     31  O   UNL     1      11.089   2.726  24.005  0.00  0.00    -0.383 OA
ATOM     32  H   UNL     1      10.994   3.476  23.381  0.00  0.00    +0.210 HD
ENDBRANCH  30  31
BRANCH  29  33
ATOM     33  O   UNL     1       9.440   0.823  21.287  0.00  0.00    -0.386 OA
ATOM     34  H   UNL     1       8.719   0.306  21.689  0.00  0.00    +0.210 HD
ENDBRANCH  29  33
BRANCH  28  35
ATOM     35  O   UNL     1       8.739   4.070  22.510  0.00  0.00    -0.386 OA
ATOM     36  H   UNL     1       8.032   4.508  23.024  0.00  0.00    +0.210 HD
ENDBRANCH  28  35
BRANCH  27  37
ATOM     37  C   UNL     1       6.465   1.624  23.823  0.00  0.00    +0.190 C 
BRANCH  37  38
ATOM     38  O   UNL     1       6.377   0.854  22.616  0.00  0.00    -0.392 OA
ATOM     39  H   UNL     1       7.093   0.190  22.657  0.00  0.00    +0.210 HD
ENDBRANCH  37  38
ENDBRANCH  27  37
ENDBRANCH  24  25
ENDBRANCH   7  24
BRANCH   1  40
ATOM     40  O   UNL     1       4.703  -5.403  27.468  0.00  0.00    -0.453 OA
BRANCH  40  42
ATOM     41  C   UNL     1       3.586  -5.540  25.138  0.00  0.00    +0.221 C 
ATOM     42  C   UNL     1       3.474  -5.603  26.706  0.00  0.00    +0.340 C 
ATOM     43  O   UNL     1       2.717  -6.739  27.175  0.00  0.00    -0.331 OA
ATOM     44  C   UNL     1       1.402  -6.821  26.592  0.00  0.00    +0.179 C 
ATOM     45  C   UNL     1       1.510  -7.054  25.075  0.00  0.00    +0.177 C 
ATOM     46  C   UNL     1       2.221  -5.846  24.484  0.00  0.00    +0.180 C 
BRANCH  46  47
ATOM     47  O   UNL     1       2.355  -5.917  23.063  0.00  0.00    -0.386 OA
ATOM     48  H   UNL     1       3.124  -5.353  22.846  0.00  0.00    +0.210 HD
ENDBRANCH  46  47
BRANCH  45  49
ATOM     49  O   UNL     1       2.164  -8.283  24.776  0.00  0.00    -0.386 OA
ATOM     50  H   UNL     1       3.135  -8.109  24.667  0.00  0.00    +0.210 HD
ENDBRANCH  45  49
BRANCH  44  51
ATOM     51  C   UNL     1       0.565  -7.922  27.250  0.00  0.00    +0.190 C 
BRANCH  51  52
ATOM     52  O   UNL     1       1.241  -9.179  27.159  0.00  0.00    -0.392 OA
ATOM     53  H   UNL     1       1.174  -9.608  28.033  0.00  0.00    +0.210 HD
ENDBRANCH  51  52
ENDBRANCH  44  51
BRANCH  41  54
ATOM     54  O   UNL     1       4.182  -4.333  24.585  0.00  0.00    -0.337 OA
BRANCH  54  58
ATOM     55  C   UNL     1       6.839  -2.849  21.718  0.00  0.00    +0.041 C 
ATOM     56  C   UNL     1       5.902  -4.011  21.407  0.00  0.00    +0.149 C 
ATOM     57  O   UNL     1       4.865  -4.114  22.377  0.00  0.00    -0.343 OA
ATOM     58  C   UNL     1       5.259  -4.542  23.673  0.00  0.00    +0.282 C 
ATOM     59  C   UNL     1       5.658  -6.023  23.555  0.00  0.00    +0.201 C 
ATOM     60  C   UNL     1       6.828  -6.123  22.548  0.00  0.00    +0.179 C 
ATOM     61  C   UNL     1       6.530  -5.398  21.219  0.00  0.00    +0.174 C 
BRANCH  61  62
ATOM     62  O   UNL     1       5.584  -6.199  20.486  0.00  0.00    -0.387 OA
ATOM     63  H   UNL     1       5.577  -5.895  19.558  0.00  0.00    +0.210 HD
ENDBRANCH  61  62
BRANCH  60  64
ATOM     64  O   UNL     1       8.036  -5.652  23.173  0.00  0.00    -0.386 OA
ATOM     65  H   UNL     1       8.821  -5.965  22.697  0.00  0.00    +0.210 HD
ENDBRANCH  60  64
BRANCH  59  66
ATOM     66  O   UNL     1       6.045  -6.571  24.821  0.00  0.00    -0.384 OA
ATOM     67  H   UNL     1       5.251  -6.998  25.197  0.00  0.00    +0.210 HD
ENDBRANCH  59  66
ENDBRANCH  54  58
ENDBRANCH  41  54
ENDBRANCH  40  42
ENDBRANCH   1  40
TORSDOF 22
ENDMDL
MODEL 5
REMARK VINA RESULT:      -6.4      1.773      4.336
REMARK  Name = 
REMARK  23 active torsions:
REMARK  status: ('A' for Active; 'I' for Inactive)
REMARK    1  A    between atoms: C_1  and  C_2
REMARK    2  A    between atoms: C_4  and  O_69
REMARK    3  A    between atoms: C_6  and  O_68
REMARK    4  A    between atoms: C_8  and  O_67
REMARK    5  A    between atoms: C_10  and  O_13
REMARK    6  A    between atoms: O_13  and  C_14
REMARK    7  A    between atoms: C_16  and  O_66
REMARK    8  A    between atoms: C_18  and  O_65
REMARK    9  A    between atoms: C_20  and  C_63
REMARK   10  A    between atoms: C_23  and  O_25
REMARK   11  A    between atoms: O_25  and  C_26
REMARK   12  A    between atoms: C_27  and  C_55
REMARK   13  A    between atoms: C_31  and  O_38
REMARK   14  A    between atoms: C_33  and  O_37
REMARK   15  A    between atoms: O_38  and  C_39
REMARK   16  A    between atoms: C_41  and  O_54
REMARK   17  A    between atoms: C_43  and  O_53
REMARK   18  A    between atoms: C_45  and  O_52
REMARK   19  A    between atoms: C_47  and  C_50
REMARK   20  A    between atoms: C_50  and  O_51
REMARK   21  A    between atoms: C_57  and  O_62
REMARK   22  A    between atoms: C_58  and  O_61
REMARK   23  A    between atoms: C_63  and  O_64
REMARK                            x       y       z     vdW  Elec       q    Type
REMARK                         _______ _______ _______ _____ _____    ______ ____
ROOT
ATOM      1  C   UNL     1       6.161  -3.588  27.276  0.00  0.00    +0.214 A 
ATOM      2  C   UNL     1       7.569  -3.407  26.778  0.00  0.00    +0.238 A 
ATOM      3  O   UNL     1       8.366  -4.338  26.738  0.00  0.00    -0.283 OA
ATOM      4  C   UNL     1       7.912  -2.056  26.295  0.00  0.00    +0.109 A 
ATOM      5  C   UNL     1       7.101  -1.009  26.709  0.00  0.00    +0.147 A 
ATOM      6  C   UNL     1       7.319   0.291  26.220  0.00  0.00    +0.093 A 
ATOM      7  C   UNL     1       8.361   0.557  25.315  0.00  0.00    +0.131 A 
ATOM      8  C   UNL     1       9.200  -0.485  24.930  0.00  0.00    +0.092 A 
ATOM      9  O   UNL     1       6.088  -1.192  27.622  0.00  0.00    -0.451 OA
ATOM     10  C   UNL     1       8.971  -1.785  25.418  0.00  0.00    +0.135 A 
ATOM     11  C   UNL     1       5.555  -2.478  27.769  0.00  0.00    +0.181 A 
ENDROOT
BRANCH  11  12
ATOM     12  C   UNL     1       4.235  -2.405  28.470  0.00  0.00    +0.025 A 
ATOM     13  C   UNL     1       4.066  -3.154  29.647  0.00  0.00    +0.015 A 
ATOM     14  C   UNL     1       2.796  -3.357  30.206  0.00  0.00    +0.050 A 
ATOM     15  C   UNL     1       1.683  -2.800  29.598  0.00  0.00    +0.158 A 
ATOM     16  C   UNL     1       1.826  -2.006  28.465  0.00  0.00    +0.159 A 
ATOM     17  C   UNL     1       3.091  -1.808  27.888  0.00  0.00    +0.060 A 
BRANCH  16  18
ATOM     18  O   UNL     1       0.676  -1.476  27.941  0.00  0.00    -0.503 OA
ATOM     19  H   UNL     1       0.495  -1.905  27.087  0.00  0.00    +0.292 HD
ENDBRANCH  16  18
BRANCH  15  20
ATOM     20  O   UNL     1       0.443  -3.062  30.112  0.00  0.00    -0.503 OA
ATOM     21  H   UNL     1      -0.070  -2.239  29.976  0.00  0.00    +0.292 HD
ENDBRANCH  15  20
ENDBRANCH  11  12
BRANCH  10  22
ATOM     22  O   UNL     1       9.791  -2.801  25.011  0.00  0.00    -0.506 OA
ATOM     23  H   UNL     1      10.249  -3.202  25.767  0.00  0.00    +0.292 HD
ENDBRANCH  10  22
BRANCH   7  24
ATOM     24  O   UNL     1       8.518   1.867  24.946  0.00  0.00    -0.461 OA
BRANCH  24  25
ATOM     25  C   UNL     1       9.171   2.190  23.703  0.00  0.00    +0.339 C 
ATOM     26  O   UNL     1       9.763   3.489  23.655  0.00  0.00    -0.331 OA
ATOM     27  C   UNL     1       8.879   4.623  23.631  0.00  0.00    +0.179 C 
ATOM     28  C   UNL     1       7.458   4.466  23.027  0.00  0.00    +0.177 C 
ATOM     29  C   UNL     1       6.978   3.028  22.788  0.00  0.00    +0.180 C 
ATOM     30  C   UNL     1       8.153   2.072  22.551  0.00  0.00    +0.214 C 
BRANCH  30  31
ATOM     31  O   UNL     1       8.758   2.335  21.275  0.00  0.00    -0.383 OA
ATOM     32  H   UNL     1       9.192   1.513  20.964  0.00  0.00    +0.210 HD
ENDBRANCH  30  31
BRANCH  29  33
ATOM     33  O   UNL     1       6.130   2.634  23.868  0.00  0.00    -0.386 OA
ATOM     34  H   UNL     1       6.316   3.200  24.639  0.00  0.00    +0.210 HD
ENDBRANCH  29  33
BRANCH  28  35
ATOM     35  O   UNL     1       7.482   5.114  21.735  0.00  0.00    -0.386 OA
ATOM     36  H   UNL     1       7.923   5.978  21.856  0.00  0.00    +0.210 HD
ENDBRANCH  28  35
BRANCH  27  37
ATOM     37  C   UNL     1       8.906   5.258  25.026  0.00  0.00    +0.190 C 
BRANCH  37  38
ATOM     38  O   UNL     1       7.886   4.660  25.838  0.00  0.00    -0.392 OA
ATOM     39  H   UNL     1       7.138   4.458  25.243  0.00  0.00    +0.210 HD
ENDBRANCH  37  38
ENDBRANCH  27  37
ENDBRANCH  24  25
ENDBRANCH   7  24
BRANCH   1  40
ATOM     40  O   UNL     1       5.547  -4.831  27.241  0.00  0.00    -0.453 OA
BRANCH  40  42
ATOM     41  C   UNL     1       4.653  -6.380  25.370  0.00  0.00    +0.221 C 
ATOM     42  C   UNL     1       4.476  -5.116  26.290  0.00  0.00    +0.340 C 
ATOM     43  O   UNL     1       3.169  -5.036  26.898  0.00  0.00    -0.331 OA
ATOM     44  C   UNL     1       2.096  -5.091  25.937  0.00  0.00    +0.179 C 
ATOM     45  C   UNL     1       2.089  -6.458  25.231  0.00  0.00    +0.177 C 
ATOM     46  C   UNL     1       3.407  -6.584  24.482  0.00  0.00    +0.180 C 
BRANCH  46  47
ATOM     47  O   UNL     1       3.516  -7.803  23.745  0.00  0.00    -0.386 OA
ATOM     48  H   UNL     1       2.905  -7.705  22.988  0.00  0.00    +0.210 HD
ENDBRANCH  46  47
BRANCH  45  49
ATOM     49  O   UNL     1       1.868  -7.525  26.148  0.00  0.00    -0.386 OA
ATOM     50  H   UNL     1       2.569  -7.492  26.850  0.00  0.00    +0.210 HD
ENDBRANCH  45  49
BRANCH  44  51
ATOM     51  C   UNL     1       0.741  -4.815  26.596  0.00  0.00    +0.190 C 
BRANCH  51  52
ATOM     52  O   UNL     1       0.680  -5.438  27.882  0.00  0.00    -0.392 OA
ATOM     53  H   UNL     1       1.594  -5.662  28.139  0.00  0.00    +0.210 HD
ENDBRANCH  51  52
ENDBRANCH  44  51
BRANCH  41  54
ATOM     54  O   UNL     1       5.879  -6.437  24.587  0.00  0.00    -0.337 OA
BRANCH  54  58
ATOM     55  C   UNL     1       5.282  -2.362  23.870  0.00  0.00    +0.041 C 
ATOM     56  C   UNL     1       5.132  -3.395  22.759  0.00  0.00    +0.149 C 
ATOM     57  O   UNL     1       5.029  -4.713  23.287  0.00  0.00    -0.343 OA
ATOM     58  C   UNL     1       6.208  -5.248  23.873  0.00  0.00    +0.282 C 
ATOM     59  C   UNL     1       7.204  -5.500  22.728  0.00  0.00    +0.201 C 
ATOM     60  C   UNL     1       7.484  -4.146  22.033  0.00  0.00    +0.179 C 
ATOM     61  C   UNL     1       6.190  -3.398  21.648  0.00  0.00    +0.174 C 
BRANCH  61  62
ATOM     62  O   UNL     1       5.615  -4.075  20.514  0.00  0.00    -0.387 OA
ATOM     63  H   UNL     1       5.505  -5.018  20.741  0.00  0.00    +0.210 HD
ENDBRANCH  61  62
BRANCH  60  64
ATOM     64  O   UNL     1       8.350  -3.353  22.864  0.00  0.00    -0.386 OA
ATOM     65  H   UNL     1       9.018  -2.891  22.334  0.00  0.00    +0.210 HD
ENDBRANCH  60  64
BRANCH  59  66
ATOM     66  O   UNL     1       8.426  -6.074  23.205  0.00  0.00    -0.384 OA
ATOM     67  H   UNL     1       8.385  -6.053  24.181  0.00  0.00    +0.210 HD
ENDBRANCH  59  66
ENDBRANCH  54  58
ENDBRANCH  41  54
ENDBRANCH  40  42
ENDBRANCH   1  40
TORSDOF 22
ENDMDL
MODEL 6
REMARK VINA RESULT:      -6.2      2.450     10.494
REMARK  Name = 
REMARK  23 active torsions:
REMARK  status: ('A' for Active; 'I' for Inactive)
REMARK    1  A    between atoms: C_1  and  C_2
REMARK    2  A    between atoms: C_4  and  O_69
REMARK    3  A    between atoms: C_6  and  O_68
REMARK    4  A    between atoms: C_8  and  O_67
REMARK    5  A    between atoms: C_10  and  O_13
REMARK    6  A    between atoms: O_13  and  C_14
REMARK    7  A    between atoms: C_16  and  O_66
REMARK    8  A    between atoms: C_18  and  O_65
REMARK    9  A    between atoms: C_20  and  C_63
REMARK   10  A    between atoms: C_23  and  O_25
REMARK   11  A    between atoms: O_25  and  C_26
REMARK   12  A    between atoms: C_27  and  C_55
REMARK   13  A    between atoms: C_31  and  O_38
REMARK   14  A    between atoms: C_33  and  O_37
REMARK   15  A    between atoms: O_38  and  C_39
REMARK   16  A    between atoms: C_41  and  O_54
REMARK   17  A    between atoms: C_43  and  O_53
REMARK   18  A    between atoms: C_45  and  O_52
REMARK   19  A    between atoms: C_47  and  C_50
REMARK   20  A    between atoms: C_50  and  O_51
REMARK   21  A    between atoms: C_57  and  O_62
REMARK   22  A    between atoms: C_58  and  O_61
REMARK   23  A    between atoms: C_63  and  O_64
REMARK                            x       y       z     vdW  Elec       q    Type
REMARK                         _______ _______ _______ _____ _____    ______ ____
ROOT
ATOM      1  C   UNL     1       5.737   0.722  26.608  0.00  0.00    +0.214 A 
ATOM      2  C   UNL     1       4.775   0.170  27.625  0.00  0.00    +0.238 A 
ATOM      3  O   UNL     1       4.546   0.750  28.680  0.00  0.00    -0.283 OA
ATOM      4  C   UNL     1       4.089  -1.081  27.250  0.00  0.00    +0.109 A 
ATOM      5  C   UNL     1       4.663  -1.841  26.240  0.00  0.00    +0.147 A 
ATOM      6  C   UNL     1       4.019  -3.001  25.775  0.00  0.00    +0.093 A 
ATOM      7  C   UNL     1       2.795  -3.417  26.324  0.00  0.00    +0.131 A 
ATOM      8  C   UNL     1       2.237  -2.677  27.363  0.00  0.00    +0.092 A 
ATOM      9  O   UNL     1       5.879  -1.513  25.686  0.00  0.00    -0.451 OA
ATOM     10  C   UNL     1       2.884  -1.513  27.819  0.00  0.00    +0.135 A 
ATOM     11  C   UNL     1       6.309  -0.183  25.775  0.00  0.00    +0.181 A 
ENDROOT
BRANCH  11  12
ATOM     12  C   UNL     1       7.408   0.063  24.790  0.00  0.00    +0.025 A 
ATOM     13  C   UNL     1       7.197  -0.313  23.452  0.00  0.00    +0.015 A 
ATOM     14  C   UNL     1       8.257  -0.371  22.535  0.00  0.00    +0.050 A 
ATOM     15  C   UNL     1       9.537  -0.041  22.947  0.00  0.00    +0.158 A 
ATOM     16  C   UNL     1       9.767   0.389  24.250  0.00  0.00    +0.159 A 
ATOM     17  C   UNL     1       8.716   0.438  25.180  0.00  0.00    +0.060 A 
BRANCH  16  18
ATOM     18  O   UNL     1      11.060   0.717  24.566  0.00  0.00    -0.503 OA
ATOM     19  H   UNL     1      11.049   1.462  25.192  0.00  0.00    +0.292 HD
ENDBRANCH  16  18
BRANCH  15  20
ATOM     20  O   UNL     1      10.574  -0.168  22.064  0.00  0.00    -0.503 OA
ATOM     21  H   UNL     1      10.394   0.487  21.360  0.00  0.00    +0.292 HD
ENDBRANCH  15  20
ENDBRANCH  11  12
BRANCH  10  22
ATOM     22  O   UNL     1       2.311  -0.786  28.826  0.00  0.00    -0.506 OA
ATOM     23  H   UNL     1       1.344  -0.785  28.746  0.00  0.00    +0.292 HD
ENDBRANCH  10  22
BRANCH   7  24
ATOM     24  O   UNL     1       2.283  -4.589  25.835  0.00  0.00    -0.461 OA
BRANCH  24  25
ATOM     25  C   UNL     1       2.739  -5.849  26.365  0.00  0.00    +0.339 C 
ATOM     26  O   UNL     1       3.879  -6.401  25.705  0.00  0.00    -0.331 OA
ATOM     27  C   UNL     1       3.702  -6.887  24.363  0.00  0.00    +0.179 C 
ATOM     28  C   UNL     1       2.306  -7.398  23.918  0.00  0.00    +0.177 C 
ATOM     29  C   UNL     1       1.131  -7.052  24.842  0.00  0.00    +0.180 C 
ATOM     30  C   UNL     1       1.588  -6.873  26.295  0.00  0.00    +0.214 C 
BRANCH  30  31
ATOM     31  O   UNL     1       1.967  -8.141  26.856  0.00  0.00    -0.383 OA
ATOM     32  H   UNL     1       2.922  -8.109  27.073  0.00  0.00    +0.210 HD
ENDBRANCH  30  31
BRANCH  29  33
ATOM     33  O   UNL     1       0.443  -5.916  24.316  0.00  0.00    -0.386 OA
ATOM     34  H   UNL     1       0.131  -5.364  25.056  0.00  0.00    +0.210 HD
ENDBRANCH  29  33
BRANCH  28  35
ATOM     35  O   UNL     1       2.387  -8.841  23.874  0.00  0.00    -0.386 OA
ATOM     36  H   UNL     1       3.310  -9.082  24.085  0.00  0.00    +0.210 HD
ENDBRANCH  28  35
BRANCH  27  37
ATOM     37  C   UNL     1       4.331  -5.859  23.416  0.00  0.00    +0.190 C 
BRANCH  37  38
ATOM     38  O   UNL     1       3.308  -4.983  22.921  0.00  0.00    -0.392 OA
ATOM     39  H   UNL     1       2.466  -5.475  22.982  0.00  0.00    +0.210 HD
ENDBRANCH  37  38
ENDBRANCH  27  37
ENDBRANCH  24  25
ENDBRANCH   7  24
BRANCH   1  40
ATOM     40  O   UNL     1       6.019   2.079  26.557  0.00  0.00    -0.453 OA
BRANCH  40  42
ATOM     41  C   UNL     1       5.455   2.889  24.165  0.00  0.00    +0.221 C 
ATOM     42  C   UNL     1       5.235   2.983  25.720  0.00  0.00    +0.340 C 
ATOM     43  O   UNL     1       3.842   3.006  26.095  0.00  0.00    -0.331 OA
ATOM     44  C   UNL     1       3.098   4.050  25.437  0.00  0.00    +0.179 C 
ATOM     45  C   UNL     1       3.065   3.799  23.919  0.00  0.00    +0.177 C 
ATOM     46  C   UNL     1       4.502   3.851  23.424  0.00  0.00    +0.180 C 
BRANCH  46  47
ATOM     47  O   UNL     1       4.612   3.669  22.010  0.00  0.00    -0.386 OA
ATOM     48  H   UNL     1       5.250   4.347  21.710  0.00  0.00    +0.210 HD
ENDBRANCH  46  47
BRANCH  45  49
ATOM     49  O   UNL     1       2.413   2.574  23.602  0.00  0.00    -0.386 OA
ATOM     50  H   UNL     1       1.437   2.688  23.735  0.00  0.00    +0.210 HD
ENDBRANCH  45  49
BRANCH  44  51
ATOM     51  C   UNL     1       1.677   4.163  25.998  0.00  0.00    +0.190 C 
BRANCH  51  52
ATOM     52  O   UNL     1       0.774   4.591  24.976  0.00  0.00    -0.392 OA
ATOM     53  H   UNL     1       1.185   4.378  24.117  0.00  0.00    +0.210 HD
ENDBRANCH  51  52
ENDBRANCH  44  51
BRANCH  41  54
ATOM     54  O   UNL     1       6.827   3.037  23.701  0.00  0.00    -0.337 OA
BRANCH  54  58
ATOM     55  C   UNL     1       6.918   7.106  22.744  0.00  0.00    +0.041 C 
ATOM     56  C   UNL     1       8.143   6.218  22.559  0.00  0.00    +0.149 C 
ATOM     57  O   UNL     1       7.796   4.839  22.604  0.00  0.00    -0.343 OA
ATOM     58  C   UNL     1       7.396   4.333  23.870  0.00  0.00    +0.282 C 
ATOM     59  C   UNL     1       8.649   4.319  24.763  0.00  0.00    +0.201 C 
ATOM     60  C   UNL     1       9.173   5.770  24.874  0.00  0.00    +0.179 C 
ATOM     61  C   UNL     1       9.334   6.449  23.498  0.00  0.00    +0.174 C 
BRANCH  61  62
ATOM     62  O   UNL     1      10.494   5.881  22.863  0.00  0.00    -0.387 OA
ATOM     63  H   UNL     1      10.456   6.088  21.909  0.00  0.00    +0.210 HD
ENDBRANCH  61  62
BRANCH  60  64
ATOM     64  O   UNL     1       8.320   6.518  25.760  0.00  0.00    -0.386 OA
ATOM     65  H   UNL     1       7.649   5.947  26.165  0.00  0.00    +0.210 HD
ENDBRANCH  60  64
BRANCH  59  66
ATOM     66  O   UNL     1       8.367   3.792  26.065  0.00  0.00    -0.384 OA
ATOM     67  H   UNL     1       8.552   2.834  26.027  0.00  0.00    +0.210 HD
ENDBRANCH  59  66
ENDBRANCH  54  58
ENDBRANCH  41  54
ENDBRANCH  40  42
ENDBRANCH   1  40
TORSDOF 22
ENDMDL
MODEL 7
REMARK VINA RESULT:      -6.2      2.397     10.297
REMARK  Name = 
REMARK  23 active torsions:
REMARK  status: ('A' for Active; 'I' for Inactive)
REMARK    1  A    between atoms: C_1  and  C_2
REMARK    2  A    between atoms: C_4  and  O_69
REMARK    3  A    between atoms: C_6  and  O_68
REMARK    4  A    between atoms: C_8  and  O_67
REMARK    5  A    between atoms: C_10  and  O_13
REMARK    6  A    between atoms: O_13  and  C_14
REMARK    7  A    between atoms: C_16  and  O_66
REMARK    8  A    between atoms: C_18  and  O_65
REMARK    9  A    between atoms: C_20  and  C_63
REMARK   10  A    between atoms: C_23  and  O_25
REMARK   11  A    between atoms: O_25  and  C_26
REMARK   12  A    between atoms: C_27  and  C_55
REMARK   13  A    between atoms: C_31  and  O_38
REMARK   14  A    between atoms: C_33  and  O_37
REMARK   15  A    between atoms: O_38  and  C_39
REMARK   16  A    between atoms: C_41  and  O_54
REMARK   17  A    between atoms: C_43  and  O_53
REMARK   18  A    between atoms: C_45  and  O_52
REMARK   19  A    between atoms: C_47  and  C_50
REMARK   20  A    between atoms: C_50  and  O_51
REMARK   21  A    between atoms: C_57  and  O_62
REMARK   22  A    between atoms: C_58  and  O_61
REMARK   23  A    between atoms: C_63  and  O_64
REMARK                            x       y       z     vdW  Elec       q    Type
REMARK                         _______ _______ _______ _____ _____    ______ ____
ROOT
ATOM      1  C   UNL     1       6.678   0.766  26.640  0.00  0.00    +0.214 A 
ATOM      2  C   UNL     1       6.034   0.074  27.811  0.00  0.00    +0.238 A 
ATOM      3  O   UNL     1       5.827   0.653  28.871  0.00  0.00    -0.283 OA
ATOM      4  C   UNL     1       5.622  -1.324  27.585  0.00  0.00    +0.109 A 
ATOM      5  C   UNL     1       6.209  -1.995  26.521  0.00  0.00    +0.147 A 
ATOM      6  C   UNL     1       5.802  -3.301  26.197  0.00  0.00    +0.093 A 
ATOM      7  C   UNL     1       4.805  -3.953  26.942  0.00  0.00    +0.131 A 
ATOM      8  C   UNL     1       4.243  -3.295  28.033  0.00  0.00    +0.092 A 
ATOM      9  O   UNL     1       7.217  -1.430  25.774  0.00  0.00    -0.451 OA
ATOM     10  C   UNL     1       4.650  -1.986  28.347  0.00  0.00    +0.135 A 
ATOM     11  C   UNL     1       7.324  -0.034  25.755  0.00  0.00    +0.181 A 
ENDROOT
BRANCH  11  12
ATOM     12  C   UNL     1       8.178   0.395  24.604  0.00  0.00    +0.025 A 
ATOM     13  C   UNL     1       9.506   0.771  24.868  0.00  0.00    +0.015 A 
ATOM     14  C   UNL     1      10.280   1.437  23.907  0.00  0.00    +0.050 A 
ATOM     15  C   UNL     1       9.735   1.724  22.666  0.00  0.00    +0.158 A 
ATOM     16  C   UNL     1       8.442   1.313  22.357  0.00  0.00    +0.159 A 
ATOM     17  C   UNL     1       7.653   0.657  23.317  0.00  0.00    +0.060 A 
BRANCH  16  18
ATOM     18  O   UNL     1       7.988   1.617  21.100  0.00  0.00    -0.503 OA
ATOM     19  H   UNL     1       8.254   2.528  20.884  0.00  0.00    +0.292 HD
ENDBRANCH  16  18
BRANCH  15  20
ATOM     20  O   UNL     1      10.473   2.435  21.762  0.00  0.00    -0.503 OA
ATOM     21  H   UNL     1       9.826   2.991  21.283  0.00  0.00    +0.292 HD
ENDBRANCH  15  20
ENDBRANCH  11  12
BRANCH  10  22
ATOM     22  O   UNL     1       4.071  -1.348  29.409  0.00  0.00    -0.506 OA
ATOM     23  H   UNL     1       4.682  -1.300  30.162  0.00  0.00    +0.292 HD
ENDBRANCH  10  22
BRANCH   7  24
ATOM     24  O   UNL     1       4.524  -5.242  26.574  0.00  0.00    -0.461 OA
BRANCH  24  25
ATOM     25  C   UNL     1       4.368  -5.574  25.181  0.00  0.00    +0.339 C 
ATOM     26  O   UNL     1       3.306  -4.889  24.515  0.00  0.00    -0.331 OA
ATOM     27  C   UNL     1       1.958  -5.236  24.878  0.00  0.00    +0.179 C 
ATOM     28  C   UNL     1       1.659  -6.660  25.416  0.00  0.00    +0.177 C 
ATOM     29  C   UNL     1       2.877  -7.501  25.826  0.00  0.00    +0.180 C 
ATOM     30  C   UNL     1       4.132  -7.092  25.047  0.00  0.00    +0.214 C 
BRANCH  30  31
ATOM     31  O   UNL     1       4.018  -7.495  23.672  0.00  0.00    -0.383 OA
ATOM     32  H   UNL     1       3.212  -8.045  23.577  0.00  0.00    +0.210 HD
ENDBRANCH  30  31
BRANCH  29  33
ATOM     33  O   UNL     1       3.036  -7.430  27.243  0.00  0.00    -0.386 OA
ATOM     34  H   UNL     1       2.203  -7.117  27.640  0.00  0.00    +0.210 HD
ENDBRANCH  29  33
BRANCH  28  35
ATOM     35  O   UNL     1       1.002  -7.378  24.346  0.00  0.00    -0.386 OA
ATOM     36  H   UNL     1       0.457  -6.729  23.859  0.00  0.00    +0.210 HD
ENDBRANCH  28  35
BRANCH  27  37
ATOM     37  C   UNL     1       1.412  -4.102  25.754  0.00  0.00    +0.190 C 
BRANCH  37  38
ATOM     38  O   UNL     1       1.924  -2.849  25.279  0.00  0.00    -0.392 OA
ATOM     39  H   UNL     1       1.491  -2.679  24.420  0.00  0.00    +0.210 HD
ENDBRANCH  37  38
ENDBRANCH  27  37
ENDBRANCH  24  25
ENDBRANCH   7  24
BRANCH   1  40
ATOM     40  O   UNL     1       6.616   2.145  26.506  0.00  0.00    -0.453 OA
BRANCH  40  42
ATOM     41  C   UNL     1       4.696   2.663  24.849  0.00  0.00    +0.221 C 
ATOM     42  C   UNL     1       5.345   2.825  26.273  0.00  0.00    +0.340 C 
ATOM     43  O   UNL     1       4.407   2.616  27.351  0.00  0.00    -0.331 OA
ATOM     44  C   UNL     1       3.239   3.454  27.252  0.00  0.00    +0.179 C 
ATOM     45  C   UNL     1       2.435   3.093  25.991  0.00  0.00    +0.177 C 
ATOM     46  C   UNL     1       3.328   3.375  24.792  0.00  0.00    +0.180 C 
BRANCH  46  47
ATOM     47  O   UNL     1       2.684   3.116  23.542  0.00  0.00    -0.386 OA
ATOM     48  H   UNL     1       2.699   2.144  23.439  0.00  0.00    +0.210 HD
ENDBRANCH  46  47
BRANCH  45  49
ATOM     49  O   UNL     1       1.968   1.748  26.030  0.00  0.00    -0.386 OA
ATOM     50  H   UNL     1       1.861   1.421  25.100  0.00  0.00    +0.210 HD
ENDBRANCH  45  49
BRANCH  44  51
ATOM     51  C   UNL     1       2.363   3.341  28.503  0.00  0.00    +0.190 C 
BRANCH  51  52
ATOM     52  O   UNL     1       2.526   2.055  29.108  0.00  0.00    -0.392 OA
ATOM     53  H   UNL     1       3.230   1.592  28.617  0.00  0.00    +0.210 HD
ENDBRANCH  51  52
ENDBRANCH  44  51
BRANCH  41  54
ATOM     54  O   UNL     1       5.534   3.029  23.717  0.00  0.00    -0.337 OA
BRANCH  54  58
ATOM     55  C   UNL     1       4.515   7.072  23.395  0.00  0.00    +0.041 C 
ATOM     56  C   UNL     1       5.459   6.408  22.399  0.00  0.00    +0.149 C 
ATOM     57  O   UNL     1       5.386   4.989  22.481  0.00  0.00    -0.343 OA
ATOM     58  C   UNL     1       5.922   4.400  23.658  0.00  0.00    +0.282 C 
ATOM     59  C   UNL     1       7.449   4.583  23.595  0.00  0.00    +0.201 C 
ATOM     60  C   UNL     1       7.746   6.100  23.538  0.00  0.00    +0.179 C 
ATOM     61  C   UNL     1       6.936   6.821  22.440  0.00  0.00    +0.174 C 
BRANCH  61  62
ATOM     62  O   UNL     1       7.513   6.470  21.169  0.00  0.00    -0.387 OA
ATOM     63  H   UNL     1       8.373   6.036  21.330  0.00  0.00    +0.210 HD
ENDBRANCH  61  62
BRANCH  60  64
ATOM     64  O   UNL     1       7.541   6.676  24.840  0.00  0.00    -0.386 OA
ATOM     65  H   UNL     1       8.383   6.951  25.238  0.00  0.00    +0.210 HD
ENDBRANCH  60  64
BRANCH  59  66
ATOM     66  O   UNL     1       8.100   3.993  24.727  0.00  0.00    -0.384 OA
ATOM     67  H   UNL     1       7.531   4.168  25.501  0.00  0.00    +0.210 HD
ENDBRANCH  59  66
ENDBRANCH  54  58
ENDBRANCH  41  54
ENDBRANCH  40  42
ENDBRANCH   1  40
TORSDOF 22
ENDMDL
MODEL 8
REMARK VINA RESULT:      -6.1      2.663      5.862
REMARK  Name = 
REMARK  23 active torsions:
REMARK  status: ('A' for Active; 'I' for Inactive)
REMARK    1  A    between atoms: C_1  and  C_2
REMARK    2  A    between atoms: C_4  and  O_69
REMARK    3  A    between atoms: C_6  and  O_68
REMARK    4  A    between atoms: C_8  and  O_67
REMARK    5  A    between atoms: C_10  and  O_13
REMARK    6  A    between atoms: O_13  and  C_14
REMARK    7  A    between atoms: C_16  and  O_66
REMARK    8  A    between atoms: C_18  and  O_65
REMARK    9  A    between atoms: C_20  and  C_63
REMARK   10  A    between atoms: C_23  and  O_25
REMARK   11  A    between atoms: O_25  and  C_26
REMARK   12  A    between atoms: C_27  and  C_55
REMARK   13  A    between atoms: C_31  and  O_38
REMARK   14  A    between atoms: C_33  and  O_37
REMARK   15  A    between atoms: O_38  and  C_39
REMARK   16  A    between atoms: C_41  and  O_54
REMARK   17  A    between atoms: C_43  and  O_53
REMARK   18  A    between atoms: C_45  and  O_52
REMARK   19  A    between atoms: C_47  and  C_50
REMARK   20  A    between atoms: C_50  and  O_51
REMARK   21  A    between atoms: C_57  and  O_62
REMARK   22  A    between atoms: C_58  and  O_61
REMARK   23  A    between atoms: C_63  and  O_64
REMARK                            x       y       z     vdW  Elec       q    Type
REMARK                         _______ _______ _______ _____ _____    ______ ____
ROOT
ATOM      1  C   UNL     1       5.812  -0.906  27.490  0.00  0.00    +0.214 A 
ATOM      2  C   UNL     1       6.348   0.480  27.729  0.00  0.00    +0.238 A 
ATOM      3  O   UNL     1       7.322   0.682  28.444  0.00  0.00    -0.283 OA
ATOM      4  C   UNL     1       5.660   1.569  27.010  0.00  0.00    +0.109 A 
ATOM      5  C   UNL     1       4.382   1.309  26.535  0.00  0.00    +0.147 A 
ATOM      6  C   UNL     1       3.702   2.272  25.769  0.00  0.00    +0.093 A 
ATOM      7  C   UNL     1       4.294   3.512  25.477  0.00  0.00    +0.131 A 
ATOM      8  C   UNL     1       5.561   3.789  25.985  0.00  0.00    +0.092 A 
ATOM      9  O   UNL     1       3.729   0.131  26.818  0.00  0.00    -0.451 OA
ATOM     10  C   UNL     1       6.238   2.818  26.745  0.00  0.00    +0.135 A 
ATOM     11  C   UNL     1       4.499  -0.988  27.155  0.00  0.00    +0.181 A 
ENDROOT
BRANCH  11  12
ATOM     12  C   UNL     1       3.677  -2.231  27.022  0.00  0.00    +0.025 A 
ATOM     13  C   UNL     1       3.460  -3.009  28.172  0.00  0.00    +0.015 A 
ATOM     14  C   UNL     1       2.943  -4.310  28.085  0.00  0.00    +0.050 A 
ATOM     15  C   UNL     1       2.627  -4.840  26.845  0.00  0.00    +0.158 A 
ATOM     16  C   UNL     1       2.777  -4.072  25.694  0.00  0.00    +0.159 A 
ATOM     17  C   UNL     1       3.307  -2.773  25.768  0.00  0.00    +0.060 A 
BRANCH  16  18
ATOM     18  O   UNL     1       2.419  -4.666  24.512  0.00  0.00    -0.503 OA
ATOM     19  H   UNL     1       3.222  -4.820  23.984  0.00  0.00    +0.292 HD
ENDBRANCH  16  18
BRANCH  15  20
ATOM     20  O   UNL     1       2.189  -6.133  26.765  0.00  0.00    -0.503 OA
ATOM     21  H   UNL     1       2.968  -6.682  26.989  0.00  0.00    +0.292 HD
ENDBRANCH  15  20
ENDBRANCH  11  12
BRANCH  10  22
ATOM     22  O   UNL     1       7.490   3.100  27.218  0.00  0.00    -0.506 OA
ATOM     23  H   UNL     1       7.913   2.304  27.577  0.00  0.00    +0.292 HD
ENDBRANCH  10  22
BRANCH   7  24
ATOM     24  O   UNL     1       3.523   4.396  24.770  0.00  0.00    -0.461 OA
BRANCH  24  25
ATOM     25  C   UNL     1       4.148   5.443  24.004  0.00  0.00    +0.339 C 
ATOM     26  O   UNL     1       3.294   6.541  23.677  0.00  0.00    -0.331 OA
ATOM     27  C   UNL     1       2.239   6.305  22.730  0.00  0.00    +0.179 C 
ATOM     28  C   UNL     1       2.413   5.198  21.658  0.00  0.00    +0.177 C 
ATOM     29  C   UNL     1       3.569   4.212  21.883  0.00  0.00    +0.180 C 
ATOM     30  C   UNL     1       4.703   4.848  22.694  0.00  0.00    +0.214 C 
BRANCH  30  31
ATOM     31  O   UNL     1       5.385   5.837  21.905  0.00  0.00    -0.383 OA
ATOM     32  H   UNL     1       5.954   5.374  21.255  0.00  0.00    +0.210 HD
ENDBRANCH  30  31
BRANCH  29  33
ATOM     33  O   UNL     1       3.052   3.014  22.464  0.00  0.00    -0.386 OA
ATOM     34  H   UNL     1       2.354   2.657  21.886  0.00  0.00    +0.210 HD
ENDBRANCH  29  33
BRANCH  28  35
ATOM     35  O   UNL     1       2.681   5.870  20.406  0.00  0.00    -0.386 OA
ATOM     36  H   UNL     1       3.423   5.397  19.980  0.00  0.00    +0.210 HD
ENDBRANCH  28  35
BRANCH  27  37
ATOM     37  C   UNL     1       0.926   6.223  23.516  0.00  0.00    +0.190 C 
BRANCH  37  38
ATOM     38  O   UNL     1       0.674   4.857  23.877  0.00  0.00    -0.392 OA
ATOM     39  H   UNL     1       0.135   4.879  24.691  0.00  0.00    +0.210 HD
ENDBRANCH  37  38
ENDBRANCH  27  37
ENDBRANCH  24  25
ENDBRANCH   7  24
BRANCH   1  40
ATOM     40  O   UNL     1       6.627  -2.018  27.628  0.00  0.00    -0.453 OA
BRANCH  40  42
ATOM     41  C   UNL     1       8.472  -2.914  26.050  0.00  0.00    +0.221 C 
ATOM     42  C   UNL     1       6.960  -2.857  26.480  0.00  0.00    +0.340 C 
ATOM     43  O   UNL     1       6.343  -4.160  26.558  0.00  0.00    -0.331 OA
ATOM     44  C   UNL     1       6.472  -4.918  25.339  0.00  0.00    +0.179 C 
ATOM     45  C   UNL     1       7.954  -5.230  25.064  0.00  0.00    +0.177 C 
ATOM     46  C   UNL     1       8.665  -3.898  24.876  0.00  0.00    +0.180 C 
BRANCH  46  47
ATOM     47  O   UNL     1      10.055  -4.046  24.574  0.00  0.00    -0.386 OA
ATOM     48  H   UNL     1      10.379  -4.745  25.176  0.00  0.00    +0.210 HD
ENDBRANCH  46  47
BRANCH  45  49
ATOM     49  O   UNL     1       8.526  -6.023  26.099  0.00  0.00    -0.386 OA
ATOM     50  H   UNL     1       9.404  -6.366  25.789  0.00  0.00    +0.210 HD
ENDBRANCH  45  49
BRANCH  44  51
ATOM     51  C   UNL     1       5.649  -6.209  25.393  0.00  0.00    +0.190 C 
BRANCH  51  52
ATOM     52  O   UNL     1       5.619  -6.721  26.728  0.00  0.00    -0.392 OA
ATOM     53  H   UNL     1       6.342  -7.372  26.804  0.00  0.00    +0.210 HD
ENDBRANCH  51  52
ENDBRANCH  44  51
BRANCH  41  54
ATOM     54  O   UNL     1       9.112  -1.634  25.781  0.00  0.00    -0.337 OA
BRANCH  54  58
ATOM     55  C   UNL     1       6.665  -1.441  22.396  0.00  0.00    +0.041 C 
ATOM     56  C   UNL     1       8.153  -1.115  22.321  0.00  0.00    +0.149 C 
ATOM     57  O   UNL     1       8.844  -1.580  23.476  0.00  0.00    -0.343 OA
ATOM     58  C   UNL     1       8.570  -0.894  24.689  0.00  0.00    +0.282 C 
ATOM     59  C   UNL     1       9.185   0.510  24.560  0.00  0.00    +0.201 C 
ATOM     60  C   UNL     1       8.522   1.213  23.352  0.00  0.00    +0.179 C 
ATOM     61  C   UNL     1       8.547   0.346  22.076  0.00  0.00    +0.174 C 
BRANCH  61  62
ATOM     62  O   UNL     1       9.896   0.346  21.573  0.00  0.00    -0.387 OA
ATOM     63  H   UNL     1      10.083  -0.535  21.194  0.00  0.00    +0.210 HD
ENDBRANCH  61  62
BRANCH  60  64
ATOM     64  O   UNL     1       7.191   1.624  23.712  0.00  0.00    -0.386 OA
ATOM     65  H   UNL     1       7.195   2.501  24.128  0.00  0.00    +0.210 HD
ENDBRANCH  60  64
BRANCH  59  66
ATOM     66  O   UNL     1       8.995   1.284  25.750  0.00  0.00    -0.384 OA
ATOM     67  H   UNL     1       8.031   1.331  25.903  0.00  0.00    +0.210 HD
ENDBRANCH  59  66
ENDBRANCH  54  58
ENDBRANCH  41  54
ENDBRANCH  40  42
ENDBRANCH   1  40
TORSDOF 22
ENDMDL
MODEL 9
REMARK VINA RESULT:      -6.1      3.169      6.555
REMARK  Name = 
REMARK  23 active torsions:
REMARK  status: ('A' for Active; 'I' for Inactive)
REMARK    1  A    between atoms: C_1  and  C_2
REMARK    2  A    between atoms: C_4  and  O_69
REMARK    3  A    between atoms: C_6  and  O_68
REMARK    4  A    between atoms: C_8  and  O_67
REMARK    5  A    between atoms: C_10  and  O_13
REMARK    6  A    between atoms: O_13  and  C_14
REMARK    7  A    between atoms: C_16  and  O_66
REMARK    8  A    between atoms: C_18  and  O_65
REMARK    9  A    between atoms: C_20  and  C_63
REMARK   10  A    between atoms: C_23  and  O_25
REMARK   11  A    between atoms: O_25  and  C_26
REMARK   12  A    between atoms: C_27  and  C_55
REMARK   13  A    between atoms: C_31  and  O_38
REMARK   14  A    between atoms: C_33  and  O_37
REMARK   15  A    between atoms: O_38  and  C_39
REMARK   16  A    between atoms: C_41  and  O_54
REMARK   17  A    between atoms: C_43  and  O_53
REMARK   18  A    between atoms: C_45  and  O_52
REMARK   19  A    between atoms: C_47  and  C_50
REMARK   20  A    between atoms: C_50  and  O_51
REMARK   21  A    between atoms: C_57  and  O_62
REMARK   22  A    between atoms: C_58  and  O_61
REMARK   23  A    between atoms: C_63  and  O_64
REMARK                            x       y       z     vdW  Elec       q    Type
REMARK                         _______ _______ _______ _____ _____    ______ ____
ROOT
ATOM      1  C   UNL     1       6.487  -2.084  26.768  0.00  0.00    +0.214 A 
ATOM      2  C   UNL     1       7.176  -0.763  26.985  0.00  0.00    +0.238 A 
ATOM      3  O   UNL     1       8.375  -0.618  26.781  0.00  0.00    -0.283 OA
ATOM      4  C   UNL     1       6.309   0.352  27.409  0.00  0.00    +0.109 A 
ATOM      5  C   UNL     1       5.077   0.026  27.959  0.00  0.00    +0.147 A 
ATOM      6  C   UNL     1       4.166   1.039  28.306  0.00  0.00    +0.093 A 
ATOM      7  C   UNL     1       4.485   2.394  28.113  0.00  0.00    +0.131 A 
ATOM      8  C   UNL     1       5.735   2.724  27.597  0.00  0.00    +0.092 A 
ATOM      9  O   UNL     1       4.717  -1.278  28.211  0.00  0.00    -0.451 OA
ATOM     10  C   UNL     1       6.639   1.704  27.245  0.00  0.00    +0.135 A 
ATOM     11  C   UNL     1       5.355  -2.292  27.486  0.00  0.00    +0.181 A 
ENDROOT
BRANCH  11  12
ATOM     12  C   UNL     1       4.569  -3.561  27.587  0.00  0.00    +0.025 A 
ATOM     13  C   UNL     1       5.161  -4.657  28.239  0.00  0.00    +0.015 A 
ATOM     14  C   UNL     1       4.615  -5.946  28.139  0.00  0.00    +0.050 A 
ATOM     15  C   UNL     1       3.465  -6.147  27.395  0.00  0.00    +0.158 A 
ATOM     16  C   UNL     1       2.826  -5.071  26.786  0.00  0.00    +0.159 A 
ATOM     17  C   UNL     1       3.371  -3.779  26.868  0.00  0.00    +0.060 A 
BRANCH  16  18
ATOM     18  O   UNL     1       1.681  -5.356  26.088  0.00  0.00    -0.503 OA
ATOM     19  H   UNL     1       1.402  -6.263  26.302  0.00  0.00    +0.292 HD
ENDBRANCH  16  18
BRANCH  15  20
ATOM     20  O   UNL     1       2.981  -7.417  27.246  0.00  0.00    -0.503 OA
ATOM     21  H   UNL     1       3.600  -7.857  26.629  0.00  0.00    +0.292 HD
ENDBRANCH  15  20
ENDBRANCH  11  12
BRANCH  10  22
ATOM     22  O   UNL     1       7.853   2.047  26.720  0.00  0.00    -0.506 OA
ATOM     23  H   UNL     1       7.748   2.509  25.873  0.00  0.00    +0.292 HD
ENDBRANCH  10  22
BRANCH   7  24
ATOM     24  O   UNL     1       3.548   3.299  28.537  0.00  0.00    -0.461 OA
BRANCH  24  25
ATOM     25  C   UNL     1       3.762   4.708  28.326  0.00  0.00    +0.339 C 
ATOM     26  O   UNL     1       3.151   5.560  29.296  0.00  0.00    -0.331 OA
ATOM     27  C   UNL     1       1.716   5.651  29.293  0.00  0.00    +0.179 C 
ATOM     28  C   UNL     1       0.942   5.408  27.971  0.00  0.00    +0.177 C 
ATOM     29  C   UNL     1       1.740   4.773  26.824  0.00  0.00    +0.180 C 
ATOM     30  C   UNL     1       3.235   5.096  26.930  0.00  0.00    +0.214 C 
BRANCH  30  31
ATOM     31  O   UNL     1       3.466   6.485  26.640  0.00  0.00    -0.383 OA
ATOM     32  H   UNL     1       3.668   6.571  25.685  0.00  0.00    +0.210 HD
ENDBRANCH  30  31
BRANCH  29  33
ATOM     33  O   UNL     1       1.460   3.373  26.780  0.00  0.00    -0.386 OA
ATOM     34  H   UNL     1       1.142   3.142  25.889  0.00  0.00    +0.210 HD
ENDBRANCH  29  33
BRANCH  28  35
ATOM     35  O   UNL     1       0.505   6.705  27.502  0.00  0.00    -0.386 OA
ATOM     36  H   UNL     1       1.296   7.170  27.167  0.00  0.00    +0.210 HD
ENDBRANCH  28  35
BRANCH  27  37
ATOM     37  C   UNL     1       1.202   4.835  30.485  0.00  0.00    +0.190 C 
BRANCH  37  38
ATOM     38  O   UNL     1       0.955   3.486  30.064  0.00  0.00    -0.392 OA
ATOM     39  H   UNL     1       0.195   3.521  29.451  0.00  0.00    +0.210 HD
ENDBRANCH  37  38
ENDBRANCH  27  37
ENDBRANCH  24  25
ENDBRANCH   7  24
BRANCH   1  40
ATOM     40  O   UNL     1       7.009  -3.023  25.892  0.00  0.00    -0.453 OA
BRANCH  40  42
ATOM     41  C   UNL     1       6.397  -3.010  23.377  0.00  0.00    +0.221 C 
ATOM     42  C   UNL     1       6.194  -3.595  24.824  0.00  0.00    +0.340 C 
ATOM     43  O   UNL     1       6.183  -5.038  24.856  0.00  0.00    -0.331 OA
ATOM     44  C   UNL     1       5.213  -5.614  23.959  0.00  0.00    +0.179 C 
ATOM     45  C   UNL     1       5.579  -5.283  22.501  0.00  0.00    +0.177 C 
ATOM     46  C   UNL     1       5.522  -3.769  22.358  0.00  0.00    +0.180 C 
BRANCH  46  47
ATOM     47  O   UNL     1       5.806  -3.324  21.029  0.00  0.00    -0.386 OA
ATOM     48  H   UNL     1       6.378  -2.538  21.135  0.00  0.00    +0.210 HD
ENDBRANCH  46  47
BRANCH  45  49
ATOM     49  O   UNL     1       6.843  -5.827  22.138  0.00  0.00    -0.386 OA
ATOM     50  H   UNL     1       7.554  -5.188  22.403  0.00  0.00    +0.210 HD
ENDBRANCH  45  49
BRANCH  44  51
ATOM     51  C   UNL     1       5.100  -7.129  24.157  0.00  0.00    +0.190 C 
BRANCH  51  52
ATOM     52  O   UNL     1       3.727  -7.529  24.147  0.00  0.00    -0.392 OA
ATOM     53  H   UNL     1       3.619  -8.211  24.836  0.00  0.00    +0.210 HD
ENDBRANCH  51  52
ENDBRANCH  44  51
BRANCH  41  54
ATOM     54  O   UNL     1       6.245  -1.569  23.240  0.00  0.00    -0.337 OA
BRANCH  54  58
ATOM     55  C   UNL     1      10.289  -1.545  22.180  0.00  0.00    +0.041 C 
ATOM     56  C   UNL     1       9.799  -0.882  23.462  0.00  0.00    +0.149 C 
ATOM     57  O   UNL     1       8.483  -1.308  23.797  0.00  0.00    -0.343 OA
ATOM     58  C   UNL     1       7.440  -0.850  22.948  0.00  0.00    +0.282 C 
ATOM     59  C   UNL     1       7.297   0.663  23.189  0.00  0.00    +0.201 C 
ATOM     60  C   UNL     1       8.647   1.332  22.838  0.00  0.00    +0.179 C 
ATOM     61  C   UNL     1       9.845   0.650  23.530  0.00  0.00    +0.174 C 
BRANCH  61  62
ATOM     62  O   UNL     1       9.813   1.016  24.922  0.00  0.00    -0.387 OA
ATOM     63  H   UNL     1       8.890   0.955  25.236  0.00  0.00    +0.210 HD
ENDBRANCH  61  62
BRANCH  60  64
ATOM     64  O   UNL     1       8.796   1.384  21.407  0.00  0.00    -0.386 OA
ATOM     65  H   UNL     1       9.355   0.659  21.087  0.00  0.00    +0.210 HD
ENDBRANCH  60  64
BRANCH  59  66
ATOM     66  O   UNL     1       6.244   1.229  22.401  0.00  0.00    -0.384 OA
ATOM     67  H   UNL     1       6.034   0.578  21.703  0.00  0.00    +0.210 HD
ENDBRANCH  59  66
ENDBRANCH  54  58
ENDBRANCH  41  54
ENDBRANCH  40  42
ENDBRANCH   1  40
TORSDOF 22
ENDMDL
