MODEL 1
REMARK VINA RESULT:      -7.6      0.000      0.000
REMARK  Name = 
REMARK  12 active torsions:
REMARK  status: ('A' for Active; 'I' for Inactive)
REMARK    1  A    between atoms: C_3  and  O_28
REMARK    2  A    between atoms: C_4  and  O_27
REMARK    3  A    between atoms: C_6  and  C_7
REMARK    4  A    between atoms: C_8  and  O_26
REMARK    5  A    between atoms: C_15  and  O_25
REMARK    6  A    between atoms: C_16  and  C_19
REMARK    7  A    between atoms: C_17  and  O_18
REMARK    8  A    between atoms: C_19  and  C_20
REMARK    9  A    between atoms: C_19  and  O_23
REMARK   10  A    between atoms: C_19  and  O_24
REMARK   11  A    between atoms: C_20  and  O_21
REMARK   12  A    between atoms: C_20  and  O_22
REMARK                            x       y       z     vdW  Elec       q    Type
REMARK                         _______ _______ _______ _____ _____    ______ ____
ROOT
ATOM      1  C   UNL     1       6.971  -3.874  24.310  0.00  0.00    +0.181 A 
ATOM      2  O   UNL     1       6.315  -2.647  24.219  0.00  0.00    -0.451 OA
ATOM      3  C   UNL     1       7.026  -1.537  23.821  0.00  0.00    +0.147 A 
ATOM      4  C   UNL     1       6.305  -0.357  23.633  0.00  0.00    +0.093 A 
ATOM      5  C   UNL     1       6.966   0.812  23.227  0.00  0.00    +0.135 A 
ATOM      6  C   UNL     1       8.353   0.848  23.009  0.00  0.00    +0.126 A 
ATOM      7  C   UNL     1       9.050  -0.363  23.205  0.00  0.00    +0.146 A 
ATOM      8  C   UNL     1       8.401  -1.546  23.608  0.00  0.00    +0.110 A 
ATOM      9  C   UNL     1       9.121  -2.820  23.809  0.00  0.00    +0.238 A 
ATOM     10  O   UNL     1      10.340  -2.923  23.718  0.00  0.00    -0.283 OA
ATOM     11  C   UNL     1       8.295  -4.023  24.086  0.00  0.00    +0.208 A 
ENDROOT
BRANCH   1  13
ATOM     12  C   UNL     1       5.156  -5.546  23.710  0.00  0.00    +0.015 A 
ATOM     13  C   UNL     1       6.074  -5.019  24.646  0.00  0.00    +0.025 A 
ATOM     14  C   UNL     1       6.103  -5.600  25.923  0.00  0.00    +0.060 A 
ATOM     15  C   UNL     1       5.187  -6.595  26.260  0.00  0.00    +0.159 A 
ATOM     16  C   UNL     1       4.230  -7.031  25.350  0.00  0.00    +0.158 A 
ATOM     17  C   UNL     1       4.215  -6.522  24.063  0.00  0.00    +0.050 A 
BRANCH  15  18
ATOM     18  O   UNL     1       5.221  -7.136  27.515  0.00  0.00    -0.503 OA
ATOM     19  H   UNL     1       4.932  -6.409  28.103  0.00  0.00    +0.292 HD
ENDBRANCH  15  18
BRANCH  16  20
ATOM     20  O   UNL     1       3.322  -7.961  25.771  0.00  0.00    -0.503 OA
ATOM     21  H   UNL     1       2.778  -7.561  26.474  0.00  0.00    +0.292 HD
ENDBRANCH  16  20
ENDBRANCH   1  13
BRANCH   5  22
ATOM     22  O   UNL     1       6.248   1.962  23.042  0.00  0.00    -0.506 OA
ATOM     23  H   UNL     1       6.112   2.115  22.089  0.00  0.00    +0.292 HD
ENDBRANCH   5  22
BRANCH   7  24
ATOM     24  O   UNL     1      10.397  -0.410  22.972  0.00  0.00    -0.505 OA
ATOM     25  H   UNL     1      10.829  -0.869  23.723  0.00  0.00    +0.292 HD
ENDBRANCH   7  24
BRANCH  11  26
ATOM     26  O   UNL     1       8.964  -5.234  24.070  0.00  0.00    -0.501 OA
ATOM     27  H   UNL     1       8.384  -5.903  24.465  0.00  0.00    +0.292 HD
ENDBRANCH  11  26
BRANCH   6  28
ATOM     28  C   UNL     1       9.071   2.105  22.509  0.00  0.00    +0.348 C 
BRANCH  28  29
ATOM     29  O   UNL     1       8.121   2.948  21.830  0.00  0.00    -0.497 OA
ATOM     30  H   UNL     1       7.800   2.402  21.082  0.00  0.00    +0.288 HD
ENDBRANCH  28  29
BRANCH  28  31
ATOM     31  O   UNL     1      10.093   1.862  21.540  0.00  0.00    -0.497 OA
ATOM     32  H   UNL     1       9.692   1.308  20.847  0.00  0.00    +0.288 HD
ENDBRANCH  28  31
BRANCH  28  33
ATOM     33  C   UNL     1       9.737   2.927  23.681  0.00  0.00    +0.439 C 
BRANCH  33  34
ATOM     34  O   UNL     1       9.783   4.309  23.364  0.00  0.00    -0.502 OA
ATOM     35  H   UNL     1       9.318   4.428  22.518  0.00  0.00    +0.287 HD
ENDBRANCH  33  34
BRANCH  33  36
ATOM     36  O   UNL     1      11.092   2.504  23.857  0.00  0.00    -0.502 OA
ATOM     37  H   UNL     1      11.182   2.292  24.808  0.00  0.00    +0.287 HD
ENDBRANCH  33  36
ENDBRANCH  28  33
ENDBRANCH   6  28
TORSDOF 12
ENDMDL
MODEL 2
REMARK VINA RESULT:      -7.3      2.161      8.328
REMARK  Name = 
REMARK  12 active torsions:
REMARK  status: ('A' for Active; 'I' for Inactive)
REMARK    1  A    between atoms: C_3  and  O_28
REMARK    2  A    between atoms: C_4  and  O_27
REMARK    3  A    between atoms: C_6  and  C_7
REMARK    4  A    between atoms: C_8  and  O_26
REMARK    5  A    between atoms: C_15  and  O_25
REMARK    6  A    between atoms: C_16  and  C_19
REMARK    7  A    between atoms: C_17  and  O_18
REMARK    8  A    between atoms: C_19  and  C_20
REMARK    9  A    between atoms: C_19  and  O_23
REMARK   10  A    between atoms: C_19  and  O_24
REMARK   11  A    between atoms: C_20  and  O_21
REMARK   12  A    between atoms: C_20  and  O_22
REMARK                            x       y       z     vdW  Elec       q    Type
REMARK                         _______ _______ _______ _____ _____    ______ ____
ROOT
ATOM      1  C   UNL     1       8.610  -1.864  24.398  0.00  0.00    +0.181 A 
ATOM      2  O   UNL     1       7.454  -1.700  25.160  0.00  0.00    -0.451 OA
ATOM      3  C   UNL     1       7.065  -2.712  26.009  0.00  0.00    +0.147 A 
ATOM      4  C   UNL     1       5.970  -2.458  26.836  0.00  0.00    +0.093 A 
ATOM      5  C   UNL     1       5.520  -3.445  27.726  0.00  0.00    +0.135 A 
ATOM      6  C   UNL     1       6.130  -4.707  27.814  0.00  0.00    +0.126 A 
ATOM      7  C   UNL     1       7.236  -4.928  26.966  0.00  0.00    +0.146 A 
ATOM      8  C   UNL     1       7.703  -3.946  26.070  0.00  0.00    +0.110 A 
ATOM      9  C   UNL     1       8.865  -4.166  25.184  0.00  0.00    +0.238 A 
ATOM     10  O   UNL     1       9.454  -5.239  25.105  0.00  0.00    -0.283 OA
ATOM     11  C   UNL     1       9.343  -2.998  24.400  0.00  0.00    +0.208 A 
ENDROOT
BRANCH   1  13
ATOM     12  C   UNL     1       8.901  -0.645  22.189  0.00  0.00    +0.015 A 
ATOM     13  C   UNL     1       8.986  -0.659  23.599  0.00  0.00    +0.025 A 
ATOM     14  C   UNL     1       9.458   0.501  24.233  0.00  0.00    +0.060 A 
ATOM     15  C   UNL     1       9.907   1.579  23.473  0.00  0.00    +0.159 A 
ATOM     16  C   UNL     1       9.903   1.532  22.083  0.00  0.00    +0.158 A 
ATOM     17  C   UNL     1       9.386   0.427  21.428  0.00  0.00    +0.050 A 
BRANCH  15  18
ATOM     18  O   UNL     1      10.379   2.693  24.109  0.00  0.00    -0.503 OA
ATOM     19  H   UNL     1       9.761   2.830  24.855  0.00  0.00    +0.292 HD
ENDBRANCH  15  18
BRANCH  16  20
ATOM     20  O   UNL     1      10.421   2.599  21.403  0.00  0.00    -0.503 OA
ATOM     21  H   UNL     1      10.082   3.415  21.812  0.00  0.00    +0.292 HD
ENDBRANCH  16  20
ENDBRANCH   1  13
BRANCH   5  22
ATOM     22  O   UNL     1       4.447  -3.183  28.535  0.00  0.00    -0.506 OA
ATOM     23  H   UNL     1       4.706  -2.549  29.229  0.00  0.00    +0.292 HD
ENDBRANCH   5  22
BRANCH   7  24
ATOM     24  O   UNL     1       7.903  -6.121  27.027  0.00  0.00    -0.505 OA
ATOM     25  H   UNL     1       8.467  -6.204  26.228  0.00  0.00    +0.292 HD
ENDBRANCH   7  24
BRANCH  11  26
ATOM     26  O   UNL     1      10.545  -3.167  23.736  0.00  0.00    -0.501 OA
ATOM     27  H   UNL     1      10.929  -2.289  23.582  0.00  0.00    +0.292 HD
ENDBRANCH  11  26
BRANCH   6  28
ATOM     28  C   UNL     1       5.680  -5.766  28.824  0.00  0.00    +0.348 C 
BRANCH  28  29
ATOM     29  O   UNL     1       5.257  -5.109  30.033  0.00  0.00    -0.497 OA
ATOM     30  H   UNL     1       5.095  -5.840  30.666  0.00  0.00    +0.288 HD
ENDBRANCH  28  29
BRANCH  28  31
ATOM     31  O   UNL     1       6.710  -6.664  29.244  0.00  0.00    -0.497 OA
ATOM     32  H   UNL     1       7.284  -6.810  28.470  0.00  0.00    +0.288 HD
ENDBRANCH  28  31
BRANCH  28  33
ATOM     33  C   UNL     1       4.493  -6.653  28.282  0.00  0.00    +0.439 C 
BRANCH  33  34
ATOM     34  O   UNL     1       4.061  -7.575  29.269  0.00  0.00    -0.502 OA
ATOM     35  H   UNL     1       3.094  -7.495  29.338  0.00  0.00    +0.287 HD
ENDBRANCH  33  34
BRANCH  33  36
ATOM     36  O   UNL     1       4.941  -7.430  27.167  0.00  0.00    -0.502 OA
ATOM     37  H   UNL     1       4.807  -8.364  27.424  0.00  0.00    +0.287 HD
ENDBRANCH  33  36
ENDBRANCH  28  33
ENDBRANCH   6  28
TORSDOF 12
ENDMDL
MODEL 3
REMARK VINA RESULT:      -7.1      1.683      2.126
REMARK  Name = 
REMARK  12 active torsions:
REMARK  status: ('A' for Active; 'I' for Inactive)
REMARK    1  A    between atoms: C_3  and  O_28
REMARK    2  A    between atoms: C_4  and  O_27
REMARK    3  A    between atoms: C_6  and  C_7
REMARK    4  A    between atoms: C_8  and  O_26
REMARK    5  A    between atoms: C_15  and  O_25
REMARK    6  A    between atoms: C_16  and  C_19
REMARK    7  A    between atoms: C_17  and  O_18
REMARK    8  A    between atoms: C_19  and  C_20
REMARK    9  A    between atoms: C_19  and  O_23
REMARK   10  A    between atoms: C_19  and  O_24
REMARK   11  A    between atoms: C_20  and  O_21
REMARK   12  A    between atoms: C_20  and  O_22
REMARK                            x       y       z     vdW  Elec       q    Type
REMARK                         _______ _______ _______ _____ _____    ______ ____
ROOT
ATOM      1  C   UNL     1       7.148  -4.526  26.007  0.00  0.00    +0.181 A 
ATOM      2  O   UNL     1       6.518  -3.325  25.682  0.00  0.00    -0.451 OA
ATOM      3  C   UNL     1       7.140  -2.459  24.811  0.00  0.00    +0.147 A 
ATOM      4  C   UNL     1       6.423  -1.326  24.424  0.00  0.00    +0.093 A 
ATOM      5  C   UNL     1       6.996  -0.401  23.538  0.00  0.00    +0.135 A 
ATOM      6  C   UNL     1       8.292  -0.565  23.022  0.00  0.00    +0.126 A 
ATOM      7  C   UNL     1       8.987  -1.723  23.431  0.00  0.00    +0.146 A 
ATOM      8  C   UNL     1       8.424  -2.663  24.316  0.00  0.00    +0.110 A 
ATOM      9  C   UNL     1       9.142  -3.881  24.744  0.00  0.00    +0.238 A 
ATOM     10  O   UNL     1      10.302  -4.123  24.426  0.00  0.00    -0.283 OA
ATOM     11  C   UNL     1       8.377  -4.861  25.558  0.00  0.00    +0.208 A 
ENDROOT
BRANCH   1  13
ATOM     12  C   UNL     1       5.143  -6.033  26.404  0.00  0.00    +0.015 A 
ATOM     13  C   UNL     1       6.330  -5.426  26.873  0.00  0.00    +0.025 A 
ATOM     14  C   UNL     1       6.711  -5.684  28.199  0.00  0.00    +0.060 A 
ATOM     15  C   UNL     1       5.884  -6.437  29.030  0.00  0.00    +0.159 A 
ATOM     16  C   UNL     1       4.672  -6.945  28.572  0.00  0.00    +0.158 A 
ATOM     17  C   UNL     1       4.298  -6.760  27.252  0.00  0.00    +0.050 A 
BRANCH  15  18
ATOM     18  O   UNL     1       6.264  -6.662  30.323  0.00  0.00    -0.503 OA
ATOM     19  H   UNL     1       6.094  -7.615  30.467  0.00  0.00    +0.292 HD
ENDBRANCH  15  18
BRANCH  16  20
ATOM     20  O   UNL     1       3.881  -7.616  29.462  0.00  0.00    -0.503 OA
ATOM     21  H   UNL     1       4.045  -8.571  29.356  0.00  0.00    +0.292 HD
ENDBRANCH  16  20
ENDBRANCH   1  13
BRANCH   5  22
ATOM     22  O   UNL     1       6.281   0.704  23.164  0.00  0.00    -0.506 OA
ATOM     23  H   UNL     1       5.339   0.575  23.381  0.00  0.00    +0.292 HD
ENDBRANCH   5  22
BRANCH   7  24
ATOM     24  O   UNL     1      10.239  -1.967  22.936  0.00  0.00    -0.505 OA
ATOM     25  H   UNL     1      10.858  -2.068  23.690  0.00  0.00    +0.292 HD
ENDBRANCH   7  24
BRANCH  11  26
ATOM     26  O   UNL     1       8.995  -6.080  25.776  0.00  0.00    -0.501 OA
ATOM     27  H   UNL     1       9.615  -5.974  26.515  0.00  0.00    +0.292 HD
ENDBRANCH  11  26
BRANCH   6  28
ATOM     28  C   UNL     1       8.900   0.410  22.010  0.00  0.00    +0.348 C 
BRANCH  28  29
ATOM     29  O   UNL     1       7.836   1.112  21.340  0.00  0.00    -0.497 OA
ATOM     30  H   UNL     1       7.598   0.535  20.585  0.00  0.00    +0.288 HD
ENDBRANCH  28  29
BRANCH  28  31
ATOM     31  O   UNL     1       9.640  -0.211  20.956  0.00  0.00    -0.497 OA
ATOM     32  H   UNL     1       9.801   0.478  20.287  0.00  0.00    +0.288 HD
ENDBRANCH  28  31
BRANCH  28  33
ATOM     33  C   UNL     1       9.861   1.463  22.687  0.00  0.00    +0.439 C 
BRANCH  33  34
ATOM     34  O   UNL     1       9.170   2.217  23.670  0.00  0.00    -0.502 OA
ATOM     35  H   UNL     1       8.236   2.255  23.402  0.00  0.00    +0.287 HD
ENDBRANCH  33  34
BRANCH  33  36
ATOM     36  O   UNL     1      10.320   2.397  21.705  0.00  0.00    -0.502 OA
ATOM     37  H   UNL     1      10.555   1.863  20.920  0.00  0.00    +0.287 HD
ENDBRANCH  33  36
ENDBRANCH  28  33
ENDBRANCH   6  28
TORSDOF 12
ENDMDL
MODEL 4
REMARK VINA RESULT:      -7.1      2.556      3.786
REMARK  Name = 
REMARK  12 active torsions:
REMARK  status: ('A' for Active; 'I' for Inactive)
REMARK    1  A    between atoms: C_3  and  O_28
REMARK    2  A    between atoms: C_4  and  O_27
REMARK    3  A    between atoms: C_6  and  C_7
REMARK    4  A    between atoms: C_8  and  O_26
REMARK    5  A    between atoms: C_15  and  O_25
REMARK    6  A    between atoms: C_16  and  C_19
REMARK    7  A    between atoms: C_17  and  O_18
REMARK    8  A    between atoms: C_19  and  C_20
REMARK    9  A    between atoms: C_19  and  O_23
REMARK   10  A    between atoms: C_19  and  O_24
REMARK   11  A    between atoms: C_20  and  O_21
REMARK   12  A    between atoms: C_20  and  O_22
REMARK                            x       y       z     vdW  Elec       q    Type
REMARK                         _______ _______ _______ _____ _____    ______ ____
ROOT
ATOM      1  C   UNL     1       8.346  -1.201  24.544  0.00  0.00    +0.181 A 
ATOM      2  O   UNL     1       8.202  -0.094  25.381  0.00  0.00    -0.451 OA
ATOM      3  C   UNL     1       8.232   1.167  24.831  0.00  0.00    +0.147 A 
ATOM      4  C   UNL     1       7.969   2.238  25.687  0.00  0.00    +0.093 A 
ATOM      5  C   UNL     1       7.982   3.551  25.193  0.00  0.00    +0.135 A 
ATOM      6  C   UNL     1       8.268   3.840  23.849  0.00  0.00    +0.126 A 
ATOM      7  C   UNL     1       8.527   2.735  23.012  0.00  0.00    +0.146 A 
ATOM      8  C   UNL     1       8.512   1.411  23.490  0.00  0.00    +0.110 A 
ATOM      9  C   UNL     1       8.775   0.247  22.619  0.00  0.00    +0.238 A 
ATOM     10  O   UNL     1       9.101   0.351  21.441  0.00  0.00    -0.283 OA
ATOM     11  C   UNL     1       8.579  -1.099  23.218  0.00  0.00    +0.208 A 
ENDROOT
BRANCH   1  13
ATOM     12  C   UNL     1       7.047  -2.811  26.018  0.00  0.00    +0.015 A 
ATOM     13  C   UNL     1       8.189  -2.513  25.240  0.00  0.00    +0.025 A 
ATOM     14  C   UNL     1       9.190  -3.493  25.154  0.00  0.00    +0.060 A 
ATOM     15  C   UNL     1       9.081  -4.669  25.893  0.00  0.00    +0.159 A 
ATOM     16  C   UNL     1       7.992  -4.898  26.728  0.00  0.00    +0.158 A 
ATOM     17  C   UNL     1       6.959  -3.979  26.787  0.00  0.00    +0.050 A 
BRANCH  15  18
ATOM     18  O   UNL     1      10.075  -5.603  25.810  0.00  0.00    -0.503 OA
ATOM     19  H   UNL     1       9.604  -6.457  25.735  0.00  0.00    +0.292 HD
ENDBRANCH  15  18
BRANCH  16  20
ATOM     20  O   UNL     1       7.986  -6.042  27.475  0.00  0.00    -0.503 OA
ATOM     21  H   UNL     1       8.838  -6.107  27.942  0.00  0.00    +0.292 HD
ENDBRANCH  16  20
ENDBRANCH   1  13
BRANCH   5  22
ATOM     22  O   UNL     1       7.719   4.591  26.042  0.00  0.00    -0.506 OA
ATOM     23  H   UNL     1       7.430   4.245  26.906  0.00  0.00    +0.292 HD
ENDBRANCH   5  22
BRANCH   7  24
ATOM     24  O   UNL     1       8.773   2.941  21.681  0.00  0.00    -0.505 OA
ATOM     25  H   UNL     1       9.734   2.825  21.520  0.00  0.00    +0.292 HD
ENDBRANCH   7  24
BRANCH  11  26
ATOM     26  O   UNL     1       8.631  -2.166  22.338  0.00  0.00    -0.501 OA
ATOM     27  H   UNL     1       7.740  -2.304  21.980  0.00  0.00    +0.292 HD
ENDBRANCH  11  26
BRANCH   6  28
ATOM     28  C   UNL     1       8.228   5.266  23.292  0.00  0.00    +0.348 C 
BRANCH  28  29
ATOM     29  O   UNL     1       7.206   6.009  23.982  0.00  0.00    -0.497 OA
ATOM     30  H   UNL     1       6.390   5.479  23.859  0.00  0.00    +0.288 HD
ENDBRANCH  28  29
BRANCH  28  31
ATOM     31  O   UNL     1       7.867   5.356  21.912  0.00  0.00    -0.497 OA
ATOM     32  H   UNL     1       7.049   4.838  21.804  0.00  0.00    +0.288 HD
ENDBRANCH  28  31
BRANCH  28  33
ATOM     33  C   UNL     1       9.605   6.019  23.455  0.00  0.00    +0.439 C 
BRANCH  33  34
ATOM     34  O   UNL     1      10.688   5.166  23.120  0.00  0.00    -0.502 OA
ATOM     35  H   UNL     1      10.912   4.656  23.917  0.00  0.00    +0.287 HD
ENDBRANCH  33  34
BRANCH  33  36
ATOM     36  O   UNL     1       9.790   6.395  24.824  0.00  0.00    -0.502 OA
ATOM     37  H   UNL     1      10.596   6.949  24.839  0.00  0.00    +0.287 HD
ENDBRANCH  33  36
ENDBRANCH  28  33
ENDBRANCH   6  28
TORSDOF 12
ENDMDL
MODEL 5
REMARK VINA RESULT:      -6.9      1.514      2.162
REMARK  Name = 
REMARK  12 active torsions:
REMARK  status: ('A' for Active; 'I' for Inactive)
REMARK    1  A    between atoms: C_3  and  O_28
REMARK    2  A    between atoms: C_4  and  O_27
REMARK    3  A    between atoms: C_6  and  C_7
REMARK    4  A    between atoms: C_8  and  O_26
REMARK    5  A    between atoms: C_15  and  O_25
REMARK    6  A    between atoms: C_16  and  C_19
REMARK    7  A    between atoms: C_17  and  O_18
REMARK    8  A    between atoms: C_19  and  C_20
REMARK    9  A    between atoms: C_19  and  O_23
REMARK   10  A    between atoms: C_19  and  O_24
REMARK   11  A    between atoms: C_20  and  O_21
REMARK   12  A    between atoms: C_20  and  O_22
REMARK                            x       y       z     vdW  Elec       q    Type
REMARK                         _______ _______ _______ _____ _____    ______ ____
ROOT
ATOM      1  C   UNL     1       7.611  -3.625  25.736  0.00  0.00    +0.181 A 
ATOM      2  O   UNL     1       7.228  -2.355  26.164  0.00  0.00    -0.451 OA
ATOM      3  C   UNL     1       7.819  -1.250  25.593  0.00  0.00    +0.147 A 
ATOM      4  C   UNL     1       7.323  -0.001  25.968  0.00  0.00    +0.093 A 
ATOM      5  C   UNL     1       7.878   1.167  25.424  0.00  0.00    +0.135 A 
ATOM      6  C   UNL     1       8.942   1.131  24.508  0.00  0.00    +0.126 A 
ATOM      7  C   UNL     1       9.416  -0.148  24.148  0.00  0.00    +0.146 A 
ATOM      8  C   UNL     1       8.867  -1.330  24.681  0.00  0.00    +0.110 A 
ATOM      9  C   UNL     1       9.352  -2.673  24.304  0.00  0.00    +0.238 A 
ATOM     10  O   UNL     1      10.315  -2.856  23.567  0.00  0.00    -0.283 OA
ATOM     11  C   UNL     1       8.586  -3.835  24.825  0.00  0.00    +0.208 A 
ENDROOT
BRANCH   1  13
ATOM     12  C   UNL     1       5.656  -5.247  25.743  0.00  0.00    +0.015 A 
ATOM     13  C   UNL     1       6.826  -4.736  26.351  0.00  0.00    +0.025 A 
ATOM     14  C   UNL     1       7.221  -5.300  27.574  0.00  0.00    +0.060 A 
ATOM     15  C   UNL     1       6.422  -6.261  28.191  0.00  0.00    +0.159 A 
ATOM     16  C   UNL     1       5.225  -6.679  27.618  0.00  0.00    +0.158 A 
ATOM     17  C   UNL     1       4.839  -6.187  26.384  0.00  0.00    +0.050 A 
BRANCH  15  18
ATOM     18  O   UNL     1       6.816  -6.786  29.390  0.00  0.00    -0.503 OA
ATOM     19  H   UNL     1       7.754  -7.027  29.256  0.00  0.00    +0.292 HD
ENDBRANCH  15  18
BRANCH  16  20
ATOM     20  O   UNL     1       4.460  -7.573  28.313  0.00  0.00    -0.503 OA
ATOM     21  H   UNL     1       5.048  -8.256  28.683  0.00  0.00    +0.292 HD
ENDBRANCH  16  20
ENDBRANCH   1  13
BRANCH   5  22
ATOM     22  O   UNL     1       7.381   2.385  25.797  0.00  0.00    -0.506 OA
ATOM     23  H   UNL     1       7.045   2.337  26.711  0.00  0.00    +0.292 HD
ENDBRANCH   5  22
BRANCH   7  24
ATOM     24  O   UNL     1      10.424  -0.258  23.229  0.00  0.00    -0.505 OA
ATOM     25  H   UNL     1      11.053   0.482  23.365  0.00  0.00    +0.292 HD
ENDBRANCH   7  24
BRANCH  11  26
ATOM     26  O   UNL     1       8.929  -5.069  24.302  0.00  0.00    -0.501 OA
ATOM     27  H   UNL     1       9.623  -4.932  23.637  0.00  0.00    +0.292 HD
ENDBRANCH  11  26
BRANCH   6  28
ATOM     28  C   UNL     1       9.513   2.399  23.866  0.00  0.00    +0.348 C 
BRANCH  28  29
ATOM     29  O   UNL     1      10.949   2.304  23.839  0.00  0.00    -0.497 OA
ATOM     30  H   UNL     1      11.129   1.353  23.683  0.00  0.00    +0.288 HD
ENDBRANCH  28  29
BRANCH  28  31
ATOM     31  O   UNL     1       9.246   3.604  24.587  0.00  0.00    -0.497 OA
ATOM     32  H   UNL     1       9.025   3.339  25.498  0.00  0.00    +0.288 HD
ENDBRANCH  28  31
BRANCH  28  33
ATOM     33  C   UNL     1       8.988   2.621  22.394  0.00  0.00    +0.439 C 
BRANCH  33  34
ATOM     34  O   UNL     1       7.752   1.954  22.194  0.00  0.00    -0.502 OA
ATOM     35  H   UNL     1       7.793   1.524  21.323  0.00  0.00    +0.287 HD
ENDBRANCH  33  34
BRANCH  33  36
ATOM     36  O   UNL     1       9.913   2.053  21.462  0.00  0.00    -0.502 OA
ATOM     37  H   UNL     1      10.086   1.145  21.779  0.00  0.00    +0.287 HD
ENDBRANCH  33  36
ENDBRANCH  28  33
ENDBRANCH   6  28
TORSDOF 12
ENDMDL
MODEL 6
REMARK VINA RESULT:      -6.9      1.386      2.596
REMARK  Name = 
REMARK  12 active torsions:
REMARK  status: ('A' for Active; 'I' for Inactive)
REMARK    1  A    between atoms: C_3  and  O_28
REMARK    2  A    between atoms: C_4  and  O_27
REMARK    3  A    between atoms: C_6  and  C_7
REMARK    4  A    between atoms: C_8  and  O_26
REMARK    5  A    between atoms: C_15  and  O_25
REMARK    6  A    between atoms: C_16  and  C_19
REMARK    7  A    between atoms: C_17  and  O_18
REMARK    8  A    between atoms: C_19  and  C_20
REMARK    9  A    between atoms: C_19  and  O_23
REMARK   10  A    between atoms: C_19  and  O_24
REMARK   11  A    between atoms: C_20  and  O_21
REMARK   12  A    between atoms: C_20  and  O_22
REMARK                            x       y       z     vdW  Elec       q    Type
REMARK                         _______ _______ _______ _____ _____    ______ ____
ROOT
ATOM      1  C   UNL     1       5.560  -3.145  24.329  0.00  0.00    +0.181 A 
ATOM      2  O   UNL     1       6.620  -3.040  23.428  0.00  0.00    -0.451 OA
ATOM      3  C   UNL     1       7.229  -1.818  23.254  0.00  0.00    +0.147 A 
ATOM      4  C   UNL     1       8.356  -1.784  22.432  0.00  0.00    +0.093 A 
ATOM      5  C   UNL     1       9.028  -0.572  22.212  0.00  0.00    +0.135 A 
ATOM      6  C   UNL     1       8.597   0.636  22.785  0.00  0.00    +0.126 A 
ATOM      7  C   UNL     1       7.456   0.564  23.612  0.00  0.00    +0.146 A 
ATOM      8  C   UNL     1       6.774  -0.645  23.848  0.00  0.00    +0.110 A 
ATOM      9  C   UNL     1       5.584  -0.730  24.719  0.00  0.00    +0.238 A 
ATOM     10  O   UNL     1       5.057   0.251  25.233  0.00  0.00    -0.283 OA
ATOM     11  C   UNL     1       5.053  -2.089  25.001  0.00  0.00    +0.208 A 
ENDROOT
BRANCH   1  13
ATOM     12  C   UNL     1       4.216  -5.156  23.554  0.00  0.00    +0.015 A 
ATOM     13  C   UNL     1       5.053  -4.538  24.510  0.00  0.00    +0.025 A 
ATOM     14  C   UNL     1       5.383  -5.276  25.657  0.00  0.00    +0.060 A 
ATOM     15  C   UNL     1       4.818  -6.533  25.866  0.00  0.00    +0.159 A 
ATOM     16  C   UNL     1       3.921  -7.080  24.955  0.00  0.00    +0.158 A 
ATOM     17  C   UNL     1       3.623  -6.404  23.784  0.00  0.00    +0.050 A 
BRANCH  15  18
ATOM     18  O   UNL     1       5.138  -7.228  26.999  0.00  0.00    -0.503 OA
ATOM     19  H   UNL     1       4.423  -7.011  27.630  0.00  0.00    +0.292 HD
ENDBRANCH  15  18
BRANCH  16  20
ATOM     20  O   UNL     1       3.354  -8.286  25.259  0.00  0.00    -0.503 OA
ATOM     21  H   UNL     1       2.619  -8.443  24.640  0.00  0.00    +0.292 HD
ENDBRANCH  16  20
ENDBRANCH   1  13
BRANCH   5  22
ATOM     22  O   UNL     1      10.134  -0.552  21.407  0.00  0.00    -0.506 OA
ATOM     23  H   UNL     1      10.035   0.143  20.730  0.00  0.00    +0.292 HD
ENDBRANCH   5  22
BRANCH   7  24
ATOM     24  O   UNL     1       7.005   1.696  24.236  0.00  0.00    -0.505 OA
ATOM     25  H   UNL     1       7.716   2.371  24.211  0.00  0.00    +0.292 HD
ENDBRANCH   7  24
BRANCH  11  26
ATOM     26  O   UNL     1       4.071  -2.165  25.973  0.00  0.00    -0.501 OA
ATOM     27  H   UNL     1       4.102  -3.054  26.361  0.00  0.00    +0.292 HD
ENDBRANCH  11  26
BRANCH   6  28
ATOM     28  C   UNL     1       9.359   1.951  22.595  0.00  0.00    +0.348 C 
BRANCH  28  29
ATOM     29  O   UNL     1       8.410   3.020  22.424  0.00  0.00    -0.497 OA
ATOM     30  H   UNL     1       8.097   2.926  21.500  0.00  0.00    +0.288 HD
ENDBRANCH  28  29
BRANCH  28  31
ATOM     31  O   UNL     1      10.174   2.002  21.422  0.00  0.00    -0.497 OA
ATOM     32  H   UNL     1      11.055   1.677  21.681  0.00  0.00    +0.288 HD
ENDBRANCH  28  31
BRANCH  28  33
ATOM     33  C   UNL     1      10.295   2.289  23.819  0.00  0.00    +0.439 C 
BRANCH  33  34
ATOM     34  O   UNL     1      11.225   3.303  23.477  0.00  0.00    -0.502 OA
ATOM     35  H   UNL     1      11.726   2.989  22.705  0.00  0.00    +0.287 HD
ENDBRANCH  33  34
BRANCH  33  36
ATOM     36  O   UNL     1      11.064   1.134  24.172  0.00  0.00    -0.502 OA
ATOM     37  H   UNL     1      10.852   0.458  23.497  0.00  0.00    +0.287 HD
ENDBRANCH  33  36
ENDBRANCH  28  33
ENDBRANCH   6  28
TORSDOF 12
ENDMDL
MODEL 7
REMARK VINA RESULT:      -6.9      2.270      8.286
REMARK  Name = 
REMARK  12 active torsions:
REMARK  status: ('A' for Active; 'I' for Inactive)
REMARK    1  A    between atoms: C_3  and  O_28
REMARK    2  A    between atoms: C_4  and  O_27
REMARK    3  A    between atoms: C_6  and  C_7
REMARK    4  A    between atoms: C_8  and  O_26
REMARK    5  A    between atoms: C_15  and  O_25
REMARK    6  A    between atoms: C_16  and  C_19
REMARK    7  A    between atoms: C_17  and  O_18
REMARK    8  A    between atoms: C_19  and  C_20
REMARK    9  A    between atoms: C_19  and  O_23
REMARK   10  A    between atoms: C_19  and  O_24
REMARK   11  A    between atoms: C_20  and  O_21
REMARK   12  A    between atoms: C_20  and  O_22
REMARK                            x       y       z     vdW  Elec       q    Type
REMARK                         _______ _______ _______ _____ _____    ______ ____
ROOT
ATOM      1  C   UNL     1       8.528   1.610  23.306  0.00  0.00    +0.181 A 
ATOM      2  O   UNL     1       7.826   0.915  24.290  0.00  0.00    -0.451 OA
ATOM      3  C   UNL     1       8.166  -0.392  24.555  0.00  0.00    +0.147 A 
ATOM      4  C   UNL     1       7.517  -1.011  25.625  0.00  0.00    +0.093 A 
ATOM      5  C   UNL     1       7.816  -2.342  25.951  0.00  0.00    +0.135 A 
ATOM      6  C   UNL     1       8.751  -3.098  25.225  0.00  0.00    +0.126 A 
ATOM      7  C   UNL     1       9.390  -2.441  24.152  0.00  0.00    +0.146 A 
ATOM      8  C   UNL     1       9.105  -1.103  23.815  0.00  0.00    +0.110 A 
ATOM      9  C   UNL     1       9.775  -0.405  22.698  0.00  0.00    +0.238 A 
ATOM     10  O   UNL     1      10.564  -0.957  21.938  0.00  0.00    -0.283 OA
ATOM     11  C   UNL     1       9.492   1.046  22.547  0.00  0.00    +0.208 A 
ENDROOT
BRANCH   1  13
ATOM     12  C   UNL     1       7.025   3.457  22.421  0.00  0.00    +0.015 A 
ATOM     13  C   UNL     1       8.141   3.048  23.185  0.00  0.00    +0.025 A 
ATOM     14  C   UNL     1       8.894   4.047  23.821  0.00  0.00    +0.060 A 
ATOM     15  C   UNL     1       8.588   5.391  23.613  0.00  0.00    +0.159 A 
ATOM     16  C   UNL     1       7.542   5.771  22.779  0.00  0.00    +0.158 A 
ATOM     17  C   UNL     1       6.742   4.809  22.187  0.00  0.00    +0.050 A 
BRANCH  15  18
ATOM     18  O   UNL     1       9.345   6.350  24.227  0.00  0.00    -0.503 OA
ATOM     19  H   UNL     1       8.883   6.523  25.072  0.00  0.00    +0.292 HD
ENDBRANCH  15  18
BRANCH  16  20
ATOM     20  O   UNL     1       7.343   7.107  22.568  0.00  0.00    -0.503 OA
ATOM     21  H   UNL     1       8.151   7.478  22.171  0.00  0.00    +0.292 HD
ENDBRANCH  16  20
ENDBRANCH   1  13
BRANCH   5  22
ATOM     22  O   UNL     1       7.176  -2.937  27.004  0.00  0.00    -0.506 OA
ATOM     23  H   UNL     1       6.308  -3.272  26.714  0.00  0.00    +0.292 HD
ENDBRANCH   5  22
BRANCH   7  24
ATOM     24  O   UNL     1      10.342  -3.104  23.427  0.00  0.00    -0.505 OA
ATOM     25  H   UNL     1      10.044  -3.154  22.493  0.00  0.00    +0.292 HD
ENDBRANCH   7  24
BRANCH  11  26
ATOM     26  O   UNL     1      10.277   1.723  21.631  0.00  0.00    -0.501 OA
ATOM     27  H   UNL     1      11.164   1.823  22.011  0.00  0.00    +0.292 HD
ENDBRANCH  11  26
BRANCH   6  28
ATOM     28  C   UNL     1       9.124  -4.532  25.612  0.00  0.00    +0.348 C 
BRANCH  28  29
ATOM     29  O   UNL     1       9.445  -4.569  27.015  0.00  0.00    -0.497 OA
ATOM     30  H   UNL     1       8.580  -4.489  27.468  0.00  0.00    +0.288 HD
ENDBRANCH  28  29
BRANCH  28  31
ATOM     31  O   UNL     1      10.291  -5.040  24.962  0.00  0.00    -0.497 OA
ATOM     32  H   UNL     1      10.600  -5.794  25.495  0.00  0.00    +0.288 HD
ENDBRANCH  28  31
BRANCH  28  33
ATOM     33  C   UNL     1       7.958  -5.557  25.328  0.00  0.00    +0.439 C 
BRANCH  33  34
ATOM     34  O   UNL     1       6.976  -4.982  24.482  0.00  0.00    -0.502 OA
ATOM     35  H   UNL     1       6.901  -4.042  24.722  0.00  0.00    +0.287 HD
ENDBRANCH  33  34
BRANCH  33  36
ATOM     36  O   UNL     1       7.297  -5.888  26.554  0.00  0.00    -0.502 OA
ATOM     37  H   UNL     1       7.204  -6.862  26.550  0.00  0.00    +0.287 HD
ENDBRANCH  33  36
ENDBRANCH  28  33
ENDBRANCH   6  28
TORSDOF 12
ENDMDL
MODEL 8
REMARK VINA RESULT:      -6.8      1.656      3.355
REMARK  Name = 
REMARK  12 active torsions:
REMARK  status: ('A' for Active; 'I' for Inactive)
REMARK    1  A    between atoms: C_3  and  O_28
REMARK    2  A    between atoms: C_4  and  O_27
REMARK    3  A    between atoms: C_6  and  C_7
REMARK    4  A    between atoms: C_8  and  O_26
REMARK    5  A    between atoms: C_15  and  O_25
REMARK    6  A    between atoms: C_16  and  C_19
REMARK    7  A    between atoms: C_17  and  O_18
REMARK    8  A    between atoms: C_19  and  C_20
REMARK    9  A    between atoms: C_19  and  O_23
REMARK   10  A    between atoms: C_19  and  O_24
REMARK   11  A    between atoms: C_20  and  O_21
REMARK   12  A    between atoms: C_20  and  O_22
REMARK                            x       y       z     vdW  Elec       q    Type
REMARK                         _______ _______ _______ _____ _____    ______ ____
ROOT
ATOM      1  C   UNL     1       5.211  -3.709  24.613  0.00  0.00    +0.181 A 
ATOM      2  O   UNL     1       6.417  -3.790  23.919  0.00  0.00    -0.451 OA
ATOM      3  C   UNL     1       7.191  -2.659  23.791  0.00  0.00    +0.147 A 
ATOM      4  C   UNL     1       8.442  -2.812  23.190  0.00  0.00    +0.093 A 
ATOM      5  C   UNL     1       9.283  -1.701  23.028  0.00  0.00    +0.135 A 
ATOM      6  C   UNL     1       8.906  -0.413  23.441  0.00  0.00    +0.126 A 
ATOM      7  C   UNL     1       7.637  -0.295  24.047  0.00  0.00    +0.146 A 
ATOM      8  C   UNL     1       6.783  -1.401  24.222  0.00  0.00    +0.110 A 
ATOM      9  C   UNL     1       5.456  -1.288  24.861  0.00  0.00    +0.238 A 
ATOM     10  O   UNL     1       4.970  -0.218  25.212  0.00  0.00    -0.283 OA
ATOM     11  C   UNL     1       4.724  -2.555  25.118  0.00  0.00    +0.208 A 
ENDROOT
BRANCH   1  13
ATOM     12  C   UNL     1       4.631  -5.782  25.963  0.00  0.00    +0.015 A 
ATOM     13  C   UNL     1       4.515  -5.021  24.778  0.00  0.00    +0.025 A 
ATOM     14  C   UNL     1       3.732  -5.550  23.741  0.00  0.00    +0.060 A 
ATOM     15  C   UNL     1       3.177  -6.823  23.864  0.00  0.00    +0.159 A 
ATOM     16  C   UNL     1       3.384  -7.592  25.004  0.00  0.00    +0.158 A 
ATOM     17  C   UNL     1       4.100  -7.074  26.069  0.00  0.00    +0.050 A 
BRANCH  15  18
ATOM     18  O   UNL     1       2.432  -7.328  22.835  0.00  0.00    -0.503 OA
ATOM     19  H   UNL     1       2.003  -8.124  23.210  0.00  0.00    +0.292 HD
ENDBRANCH  15  18
BRANCH  16  20
ATOM     20  O   UNL     1       2.866  -8.857  25.027  0.00  0.00    -0.503 OA
ATOM     21  H   UNL     1       2.239  -8.943  24.287  0.00  0.00    +0.292 HD
ENDBRANCH  16  20
ENDBRANCH   1  13
BRANCH   5  22
ATOM     22  O   UNL     1      10.508  -1.865  22.442  0.00  0.00    -0.506 OA
ATOM     23  H   UNL     1      10.603  -2.783  22.129  0.00  0.00    +0.292 HD
ENDBRANCH   5  22
BRANCH   7  24
ATOM     24  O   UNL     1       7.223   0.924  24.510  0.00  0.00    -0.505 OA
ATOM     25  H   UNL     1       7.970   1.555  24.439  0.00  0.00    +0.292 HD
ENDBRANCH   7  24
BRANCH  11  26
ATOM     26  O   UNL     1       3.584  -2.448  25.895  0.00  0.00    -0.501 OA
ATOM     27  H   UNL     1       3.133  -3.307  25.887  0.00  0.00    +0.292 HD
ENDBRANCH  11  26
BRANCH   6  28
ATOM     28  C   UNL     1       9.843   0.793  23.320  0.00  0.00    +0.348 C 
BRANCH  28  29
ATOM     29  O   UNL     1      11.139   0.431  23.832  0.00  0.00    -0.497 OA
ATOM     30  H   UNL     1      10.949  -0.175  24.578  0.00  0.00    +0.288 HD
ENDBRANCH  28  29
BRANCH  28  31
ATOM     31  O   UNL     1       9.455   1.929  24.095  0.00  0.00    -0.497 OA
ATOM     32  H   UNL     1       9.058   2.566  23.474  0.00  0.00    +0.288 HD
ENDBRANCH  28  31
BRANCH  28  33
ATOM     33  C   UNL     1      10.002   1.287  21.830  0.00  0.00    +0.439 C 
BRANCH  33  34
ATOM     34  O   UNL     1      10.588   2.578  21.787  0.00  0.00    -0.502 OA
ATOM     35  H   UNL     1      11.508   2.469  21.492  0.00  0.00    +0.287 HD
ENDBRANCH  33  34
BRANCH  33  36
ATOM     36  O   UNL     1       8.712   1.405  21.221  0.00  0.00    -0.502 OA
ATOM     37  H   UNL     1       8.785   0.954  20.356  0.00  0.00    +0.287 HD
ENDBRANCH  33  36
ENDBRANCH  28  33
ENDBRANCH   6  28
TORSDOF 12
ENDMDL
MODEL 9
REMARK VINA RESULT:      -6.8      1.820      3.021
REMARK  Name = 
REMARK  12 active torsions:
REMARK  status: ('A' for Active; 'I' for Inactive)
REMARK    1  A    between atoms: C_3  and  O_28
REMARK    2  A    between atoms: C_4  and  O_27
REMARK    3  A    between atoms: C_6  and  C_7
REMARK    4  A    between atoms: C_8  and  O_26
REMARK    5  A    between atoms: C_15  and  O_25
REMARK    6  A    between atoms: C_16  and  C_19
REMARK    7  A    between atoms: C_17  and  O_18
REMARK    8  A    between atoms: C_19  and  C_20
REMARK    9  A    between atoms: C_19  and  O_23
REMARK   10  A    between atoms: C_19  and  O_24
REMARK   11  A    between atoms: C_20  and  O_21
REMARK   12  A    between atoms: C_20  and  O_22
REMARK                            x       y       z     vdW  Elec       q    Type
REMARK                         _______ _______ _______ _____ _____    ______ ____
ROOT
ATOM      1  C   UNL     1       7.779  -1.850  24.215  0.00  0.00    +0.181 A 
ATOM      2  O   UNL     1       7.685  -0.819  25.150  0.00  0.00    -0.451 OA
ATOM      3  C   UNL     1       8.065   0.452  24.783  0.00  0.00    +0.147 A 
ATOM      4  C   UNL     1       7.845   1.472  25.710  0.00  0.00    +0.093 A 
ATOM      5  C   UNL     1       8.208   2.791  25.401  0.00  0.00    +0.135 A 
ATOM      6  C   UNL     1       8.806   3.135  24.178  0.00  0.00    +0.126 A 
ATOM      7  C   UNL     1       9.011   2.080  23.263  0.00  0.00    +0.146 A 
ATOM      8  C   UNL     1       8.648   0.752  23.555  0.00  0.00    +0.110 A 
ATOM      9  C   UNL     1       8.852  -0.357  22.601  0.00  0.00    +0.238 A 
ATOM     10  O   UNL     1       9.421  -0.218  21.523  0.00  0.00    -0.283 OA
ATOM     11  C   UNL     1       8.288  -1.679  22.976  0.00  0.00    +0.208 A 
ENDROOT
BRANCH   1  13
ATOM     12  C   UNL     1       5.935  -3.591  24.363  0.00  0.00    +0.015 A 
ATOM     13  C   UNL     1       7.239  -3.156  24.696  0.00  0.00    +0.025 A 
ATOM     14  C   UNL     1       8.012  -3.992  25.516  0.00  0.00    +0.060 A 
ATOM     15  C   UNL     1       7.459  -5.157  26.046  0.00  0.00    +0.159 A 
ATOM     16  C   UNL     1       6.141  -5.514  25.780  0.00  0.00    +0.158 A 
ATOM     17  C   UNL     1       5.373  -4.743  24.926  0.00  0.00    +0.050 A 
BRANCH  15  18
ATOM     18  O   UNL     1       8.223  -5.949  26.857  0.00  0.00    -0.503 OA
ATOM     19  H   UNL     1       8.715  -5.319  27.421  0.00  0.00    +0.292 HD
ENDBRANCH  15  18
BRANCH  16  20
ATOM     20  O   UNL     1       5.645  -6.633  26.389  0.00  0.00    -0.503 OA
ATOM     21  H   UNL     1       6.115  -6.755  27.233  0.00  0.00    +0.292 HD
ENDBRANCH  16  20
ENDBRANCH   1  13
BRANCH   5  22
ATOM     22  O   UNL     1       7.984   3.783  26.317  0.00  0.00    -0.506 OA
ATOM     23  H   UNL     1       7.844   4.630  25.856  0.00  0.00    +0.292 HD
ENDBRANCH   5  22
BRANCH   7  24
ATOM     24  O   UNL     1       9.552   2.350  22.035  0.00  0.00    -0.505 OA
ATOM     25  H   UNL     1       8.858   2.750  21.469  0.00  0.00    +0.292 HD
ENDBRANCH   7  24
BRANCH  11  26
ATOM     26  O   UNL     1       8.309  -2.649  21.988  0.00  0.00    -0.501 OA
ATOM     27  H   UNL     1       7.438  -2.661  21.560  0.00  0.00    +0.292 HD
ENDBRANCH  11  26
BRANCH   6  28
ATOM     28  C   UNL     1       9.150   4.582  23.812  0.00  0.00    +0.348 C 
BRANCH  28  29
ATOM     29  O   UNL     1      10.368   4.592  23.043  0.00  0.00    -0.497 OA
ATOM     30  H   UNL     1      11.075   4.426  23.701  0.00  0.00    +0.288 HD
ENDBRANCH  28  29
BRANCH  28  31
ATOM     31  O   UNL     1       9.423   5.430  24.930  0.00  0.00    -0.497 OA
ATOM     32  H   UNL     1      10.010   6.136  24.606  0.00  0.00    +0.288 HD
ENDBRANCH  28  31
BRANCH  28  33
ATOM     33  C   UNL     1       8.011   5.281  22.974  0.00  0.00    +0.439 C 
BRANCH  33  34
ATOM     34  O   UNL     1       7.534   4.418  21.954  0.00  0.00    -0.502 OA
ATOM     35  H   UNL     1       7.319   4.971  21.184  0.00  0.00    +0.287 HD
ENDBRANCH  33  34
BRANCH  33  36
ATOM     36  O   UNL     1       8.536   6.438  22.317  0.00  0.00    -0.502 OA
ATOM     37  H   UNL     1       9.226   6.792  22.914  0.00  0.00    +0.287 HD
ENDBRANCH  33  36
ENDBRANCH  28  33
ENDBRANCH   6  28
TORSDOF 12
ENDMDL
