MODEL 1
REMARK VINA RESULT:      -7.3      0.000      0.000
REMARK  Name = 
REMARK  15 active torsions:
REMARK  status: ('A' for Active; 'I' for Inactive)
REMARK    1  A    between atoms: C_3  and  O_47
REMARK    2  A    between atoms: C_6  and  C_7
REMARK    3  A    between atoms: C_7  and  O_9
REMARK    4  A    between atoms: O_9  and  C_10
REMARK    5  A    between atoms: C_10  and  C_11
REMARK    6  A    between atoms: C_13  and  O_46
REMARK    7  A    between atoms: C_15  and  O_45
REMARK    8  A    between atoms: C_17  and  O_44
REMARK    9  A    between atoms: C_19  and  O_22
REMARK   10  A    between atoms: O_22  and  C_23
REMARK   11  A    between atoms: C_24  and  C_36
REMARK   12  A    between atoms: C_28  and  O_35
REMARK   13  A    between atoms: C_30  and  O_34
REMARK   14  A    between atoms: C_38  and  O_43
REMARK   15  A    between atoms: C_39  and  O_42
REMARK                            x       y       z     vdW  Elec       q    Type
REMARK                         _______ _______ _______ _____ _____    ______ ____
ROOT
ATOM      1  O   UNL     1       7.132  -2.062  26.785  0.00  0.00    -0.453 OA
ENDROOT
BRANCH   1   2
ATOM      2  C   UNL     1       6.437  -0.895  26.537  0.00  0.00    +0.214 A 
ATOM      3  C   UNL     1       6.666   0.376  27.283  0.00  0.00    +0.238 A 
ATOM      4  O   UNL     1       7.166   0.404  28.401  0.00  0.00    -0.283 OA
ATOM      5  C   UNL     1       6.189   1.612  26.647  0.00  0.00    +0.109 A 
ATOM      6  C   UNL     1       5.298   1.487  25.583  0.00  0.00    +0.147 A 
ATOM      7  C   UNL     1       4.828   2.635  24.934  0.00  0.00    +0.092 A 
ATOM      8  C   UNL     1       5.244   3.890  25.376  0.00  0.00    +0.124 A 
ATOM      9  C   UNL     1       6.116   4.028  26.445  0.00  0.00    +0.091 A 
ATOM     10  O   UNL     1       4.826   0.271  25.149  0.00  0.00    -0.451 OA
ATOM     11  C   UNL     1       6.592   2.882  27.085  0.00  0.00    +0.135 A 
ATOM     12  C   UNL     1       5.459  -0.884  25.602  0.00  0.00    +0.181 A 
BRANCH  12  13
ATOM     13  C   UNL     1       4.950  -2.143  24.973  0.00  0.00    +0.025 A 
ATOM     14  C   UNL     1       3.966  -2.930  25.595  0.00  0.00    +0.015 A 
ATOM     15  C   UNL     1       3.487  -4.103  24.989  0.00  0.00    +0.050 A 
ATOM     16  C   UNL     1       3.987  -4.492  23.756  0.00  0.00    +0.158 A 
ATOM     17  C   UNL     1       4.979  -3.747  23.134  0.00  0.00    +0.159 A 
ATOM     18  C   UNL     1       5.481  -2.602  23.747  0.00  0.00    +0.060 A 
BRANCH  16  19
ATOM     19  O   UNL     1       3.499  -5.614  23.149  0.00  0.00    -0.503 OA
ATOM     20  H   UNL     1       2.629  -5.342  22.795  0.00  0.00    +0.292 HD
ENDBRANCH  16  19
BRANCH  17  21
ATOM     21  O   UNL     1       5.432  -4.168  21.913  0.00  0.00    -0.503 OA
ATOM     22  H   UNL     1       5.106  -3.541  21.241  0.00  0.00    +0.292 HD
ENDBRANCH  17  21
ENDBRANCH  12  13
BRANCH   8  23
ATOM     23  O   UNL     1       4.822   5.040  24.780  0.00  0.00    -0.507 OA
ATOM     24  H   UNL     1       4.307   4.819  23.989  0.00  0.00    +0.292 HD
ENDBRANCH   8  23
BRANCH  11  25
ATOM     25  O   UNL     1       7.474   3.028  28.118  0.00  0.00    -0.506 OA
ATOM     26  H   UNL     1       8.011   2.228  28.221  0.00  0.00    +0.292 HD
ENDBRANCH  11  25
ENDBRANCH   1   2
BRANCH   1  29
ATOM     27  C   UNL     1       9.832  -1.857  24.363  0.00  0.00    +0.191 C 
ATOM     28  O   UNL     1       8.597  -1.524  25.027  0.00  0.00    -0.330 OA
ATOM     29  C   UNL     1       8.400  -2.348  26.200  0.00  0.00    +0.340 C 
ATOM     30  C   UNL     1       8.374  -3.862  25.866  0.00  0.00    +0.214 C 
ATOM     31  C   UNL     1       9.579  -4.223  24.995  0.00  0.00    +0.180 C 
ATOM     32  C   UNL     1       9.671  -3.273  23.800  0.00  0.00    +0.178 C 
BRANCH  30  33
ATOM     33  O   UNL     1       8.393  -4.642  27.081  0.00  0.00    -0.383 OA
ATOM     34  H   UNL     1       7.537  -5.110  27.124  0.00  0.00    +0.210 HD
ENDBRANCH  30  33
BRANCH  31  35
ATOM     35  O   UNL     1       9.487  -5.596  24.604  0.00  0.00    -0.386 OA
ATOM     36  H   UNL     1       8.667  -5.701  24.085  0.00  0.00    +0.210 HD
ENDBRANCH  31  35
BRANCH  32  37
ATOM     37  O   UNL     1       8.481  -3.352  22.999  0.00  0.00    -0.386 OA
ATOM     38  H   UNL     1       7.786  -2.817  23.437  0.00  0.00    +0.210 HD
ENDBRANCH  32  37
BRANCH  27  39
ATOM     39  C   UNL     1      10.199  -0.871  23.240  0.00  0.00    +0.266 C 
BRANCH  39  40
ATOM     40  O   UNL     1       9.277   0.250  23.172  0.00  0.00    -0.458 OA
BRANCH  40  41
ATOM     41  C   UNL     1       9.745   1.444  23.622  0.00  0.00    +0.339 C 
ATOM     42  O   UNL     1      10.810   1.609  24.198  0.00  0.00    -0.245 OA
BRANCH  41  44
ATOM     43  C   UNL     1       7.789   2.333  22.387  0.00  0.00    +0.018 A 
ATOM     44  C   UNL     1       8.841   2.578  23.287  0.00  0.00    +0.059 A 
ATOM     45  C   UNL     1       9.015   3.866  23.803  0.00  0.00    +0.018 A 
ATOM     46  C   UNL     1       8.174   4.903  23.378  0.00  0.00    +0.046 A 
ATOM     47  C   UNL     1       7.170   4.655  22.449  0.00  0.00    +0.117 A 
ATOM     48  C   UNL     1       6.955   3.371  21.963  0.00  0.00    +0.046 A 
BRANCH  47  49
ATOM     49  O   UNL     1       6.421   5.709  22.023  0.00  0.00    -0.507 OA
ATOM     50  H   UNL     1       5.551   5.672  22.454  0.00  0.00    +0.292 HD
ENDBRANCH  47  49
ENDBRANCH  41  44
ENDBRANCH  40  41
ENDBRANCH  39  40
ENDBRANCH  27  39
ENDBRANCH   1  29
TORSDOF 15
ENDMDL
MODEL 2
REMARK VINA RESULT:      -7.3      1.873      7.901
REMARK  Name = 
REMARK  15 active torsions:
REMARK  status: ('A' for Active; 'I' for Inactive)
REMARK    1  A    between atoms: C_3  and  O_47
REMARK    2  A    between atoms: C_6  and  C_7
REMARK    3  A    between atoms: C_7  and  O_9
REMARK    4  A    between atoms: O_9  and  C_10
REMARK    5  A    between atoms: C_10  and  C_11
REMARK    6  A    between atoms: C_13  and  O_46
REMARK    7  A    between atoms: C_15  and  O_45
REMARK    8  A    between atoms: C_17  and  O_44
REMARK    9  A    between atoms: C_19  and  O_22
REMARK   10  A    between atoms: O_22  and  C_23
REMARK   11  A    between atoms: C_24  and  C_36
REMARK   12  A    between atoms: C_28  and  O_35
REMARK   13  A    between atoms: C_30  and  O_34
REMARK   14  A    between atoms: C_38  and  O_43
REMARK   15  A    between atoms: C_39  and  O_42
REMARK                            x       y       z     vdW  Elec       q    Type
REMARK                         _______ _______ _______ _____ _____    ______ ____
ROOT
ATOM      1  O   UNL     1       8.497  -0.366  25.518  0.00  0.00    -0.453 OA
ENDROOT
BRANCH   1   2
ATOM      2  C   UNL     1       8.255  -1.255  24.490  0.00  0.00    +0.214 A 
ATOM      3  C   UNL     1       8.479  -2.726  24.601  0.00  0.00    +0.238 A 
ATOM      4  O   UNL     1       9.246  -3.216  25.421  0.00  0.00    -0.283 OA
ATOM      5  C   UNL     1       7.791  -3.577  23.621  0.00  0.00    +0.109 A 
ATOM      6  C   UNL     1       7.255  -2.957  22.493  0.00  0.00    +0.147 A 
ATOM      7  C   UNL     1       6.576  -3.723  21.539  0.00  0.00    +0.092 A 
ATOM      8  C   UNL     1       6.463  -5.101  21.721  0.00  0.00    +0.124 A 
ATOM      9  C   UNL     1       7.007  -5.732  22.829  0.00  0.00    +0.091 A 
ATOM     10  O   UNL     1       7.388  -1.610  22.254  0.00  0.00    -0.451 OA
ATOM     11  C   UNL     1       7.675  -4.965  23.786  0.00  0.00    +0.135 A 
ATOM     12  C   UNL     1       7.832  -0.794  23.291  0.00  0.00    +0.181 A 
BRANCH  12  13
ATOM     13  C   UNL     1       7.820   0.666  22.963  0.00  0.00    +0.025 A 
ATOM     14  C   UNL     1       6.646   1.316  22.543  0.00  0.00    +0.015 A 
ATOM     15  C   UNL     1       6.644   2.690  22.250  0.00  0.00    +0.050 A 
ATOM     16  C   UNL     1       7.815   3.421  22.380  0.00  0.00    +0.158 A 
ATOM     17  C   UNL     1       8.993   2.797  22.766  0.00  0.00    +0.159 A 
ATOM     18  C   UNL     1       9.007   1.429  23.025  0.00  0.00    +0.060 A 
BRANCH  16  19
ATOM     19  O   UNL     1       7.808   4.763  22.128  0.00  0.00    -0.503 OA
ATOM     20  H   UNL     1       8.032   5.174  22.986  0.00  0.00    +0.292 HD
ENDBRANCH  16  19
BRANCH  17  21
ATOM     21  O   UNL     1      10.119   3.566  22.889  0.00  0.00    -0.503 OA
ATOM     22  H   UNL     1      10.728   3.320  22.168  0.00  0.00    +0.292 HD
ENDBRANCH  17  21
ENDBRANCH  12  13
BRANCH   8  23
ATOM     23  O   UNL     1       5.810  -5.894  20.826  0.00  0.00    -0.507 OA
ATOM     24  H   UNL     1       5.900  -6.820  21.095  0.00  0.00    +0.292 HD
ENDBRANCH   8  23
BRANCH  11  25
ATOM     25  O   UNL     1       8.182  -5.591  24.889  0.00  0.00    -0.506 OA
ATOM     26  H   UNL     1       7.908  -5.131  25.697  0.00  0.00    +0.292 HD
ENDBRANCH  11  25
ENDBRANCH   1   2
BRANCH   1  29
ATOM     27  C   UNL     1       5.605  -0.947  27.640  0.00  0.00    +0.191 C 
ATOM     28  O   UNL     1       6.618  -1.213  26.651  0.00  0.00    -0.330 OA
ATOM     29  C   UNL     1       7.562  -0.119  26.565  0.00  0.00    +0.340 C 
ATOM     30  C   UNL     1       6.881   1.228  26.208  0.00  0.00    +0.214 C 
ATOM     31  C   UNL     1       5.675   1.459  27.120  0.00  0.00    +0.180 C 
ATOM     32  C   UNL     1       4.768   0.227  27.121  0.00  0.00    +0.178 C 
BRANCH  30  33
ATOM     33  O   UNL     1       7.820   2.315  26.346  0.00  0.00    -0.383 OA
ATOM     34  H   UNL     1       8.304   2.374  25.501  0.00  0.00    +0.210 HD
ENDBRANCH  30  33
BRANCH  31  35
ATOM     35  O   UNL     1       4.992   2.648  26.711  0.00  0.00    -0.386 OA
ATOM     36  H   UNL     1       4.436   2.941  27.457  0.00  0.00    +0.210 HD
ENDBRANCH  31  35
BRANCH  32  37
ATOM     37  O   UNL     1       4.297  -0.054  25.793  0.00  0.00    -0.386 OA
ATOM     38  H   UNL     1       5.049   0.059  25.176  0.00  0.00    +0.210 HD
ENDBRANCH  32  37
BRANCH  27  39
ATOM     39  C   UNL     1       4.706  -2.162  27.927  0.00  0.00    +0.266 C 
BRANCH  39  40
ATOM     40  O   UNL     1       4.385  -2.902  26.719  0.00  0.00    -0.458 OA
BRANCH  40  41
ATOM     41  C   UNL     1       5.117  -4.021  26.483  0.00  0.00    +0.339 C 
ATOM     42  O   UNL     1       6.134  -4.335  27.084  0.00  0.00    -0.245 OA
BRANCH  41  44
ATOM     43  C   UNL     1       3.856  -4.262  24.363  0.00  0.00    +0.018 A 
ATOM     44  C   UNL     1       4.519  -4.890  25.433  0.00  0.00    +0.059 A 
ATOM     45  C   UNL     1       4.565  -6.286  25.484  0.00  0.00    +0.018 A 
ATOM     46  C   UNL     1       3.908  -7.039  24.503  0.00  0.00    +0.046 A 
ATOM     47  C   UNL     1       3.213  -6.403  23.480  0.00  0.00    +0.117 A 
ATOM     48  C   UNL     1       3.198  -5.017  23.389  0.00  0.00    +0.046 A 
BRANCH  47  49
ATOM     49  O   UNL     1       2.540  -7.180  22.586  0.00  0.00    -0.507 OA
ATOM     50  H   UNL     1       1.688  -7.439  22.975  0.00  0.00    +0.292 HD
ENDBRANCH  47  49
ENDBRANCH  41  44
ENDBRANCH  40  41
ENDBRANCH  39  40
ENDBRANCH  27  39
ENDBRANCH   1  29
TORSDOF 15
ENDMDL
MODEL 3
REMARK VINA RESULT:      -7.0      2.257      7.154
REMARK  Name = 
REMARK  15 active torsions:
REMARK  status: ('A' for Active; 'I' for Inactive)
REMARK    1  A    between atoms: C_3  and  O_47
REMARK    2  A    between atoms: C_6  and  C_7
REMARK    3  A    between atoms: C_7  and  O_9
REMARK    4  A    between atoms: O_9  and  C_10
REMARK    5  A    between atoms: C_10  and  C_11
REMARK    6  A    between atoms: C_13  and  O_46
REMARK    7  A    between atoms: C_15  and  O_45
REMARK    8  A    between atoms: C_17  and  O_44
REMARK    9  A    between atoms: C_19  and  O_22
REMARK   10  A    between atoms: O_22  and  C_23
REMARK   11  A    between atoms: C_24  and  C_36
REMARK   12  A    between atoms: C_28  and  O_35
REMARK   13  A    between atoms: C_30  and  O_34
REMARK   14  A    between atoms: C_38  and  O_43
REMARK   15  A    between atoms: C_39  and  O_42
REMARK                            x       y       z     vdW  Elec       q    Type
REMARK                         _______ _______ _______ _____ _____    ______ ____
ROOT
ATOM      1  O   UNL     1       7.181   2.010  24.858  0.00  0.00    -0.453 OA
ENDROOT
BRANCH   1   2
ATOM      2  C   UNL     1       8.307   2.539  24.258  0.00  0.00    +0.214 A 
ATOM      3  C   UNL     1       8.614   3.999  24.223  0.00  0.00    +0.238 A 
ATOM      4  O   UNL     1       7.749   4.858  24.347  0.00  0.00    -0.283 OA
ATOM      5  C   UNL     1      10.007   4.376  23.951  0.00  0.00    +0.109 A 
ATOM      6  C   UNL     1      10.853   3.393  23.441  0.00  0.00    +0.147 A 
ATOM      7  C   UNL     1      12.194   3.699  23.181  0.00  0.00    +0.092 A 
ATOM      8  C   UNL     1      12.659   4.992  23.419  0.00  0.00    +0.124 A 
ATOM      9  C   UNL     1      11.824   5.984  23.910  0.00  0.00    +0.091 A 
ATOM     10  O   UNL     1      10.421   2.122  23.147  0.00  0.00    -0.451 OA
ATOM     11  C   UNL     1      10.489   5.674  24.177  0.00  0.00    +0.135 A 
ATOM     12  C   UNL     1       9.175   1.720  23.623  0.00  0.00    +0.181 A 
BRANCH  12  13
ATOM     13  C   UNL     1       8.857   0.282  23.356  0.00  0.00    +0.025 A 
ATOM     14  C   UNL     1       7.721  -0.095  22.620  0.00  0.00    +0.015 A 
ATOM     15  C   UNL     1       7.439  -1.447  22.365  0.00  0.00    +0.050 A 
ATOM     16  C   UNL     1       8.295  -2.428  22.842  0.00  0.00    +0.158 A 
ATOM     17  C   UNL     1       9.408  -2.083  23.595  0.00  0.00    +0.159 A 
ATOM     18  C   UNL     1       9.673  -0.746  23.879  0.00  0.00    +0.060 A 
BRANCH  16  19
ATOM     19  O   UNL     1       8.041  -3.742  22.567  0.00  0.00    -0.503 OA
ATOM     20  H   UNL     1       7.317  -3.719  21.910  0.00  0.00    +0.292 HD
ENDBRANCH  16  19
BRANCH  17  21
ATOM     21  O   UNL     1      10.227  -3.089  24.033  0.00  0.00    -0.503 OA
ATOM     22  H   UNL     1      10.715  -2.759  24.811  0.00  0.00    +0.292 HD
ENDBRANCH  17  21
ENDBRANCH  12  13
BRANCH   8  23
ATOM     23  O   UNL     1      13.955   5.344  23.187  0.00  0.00    -0.507 OA
ATOM     24  H   UNL     1      14.509   4.549  23.195  0.00  0.00    +0.292 HD
ENDBRANCH   8  23
BRANCH  11  25
ATOM     25  O   UNL     1       9.681   6.650  24.689  0.00  0.00    -0.506 OA
ATOM     26  H   UNL     1       8.812   6.631  24.260  0.00  0.00    +0.292 HD
ENDBRANCH  11  25
ENDBRANCH   1   2
BRANCH   1  29
ATOM     27  C   UNL     1       6.466  -0.950  26.839  0.00  0.00    +0.191 C 
ATOM     28  O   UNL     1       6.499  -0.080  25.692  0.00  0.00    -0.330 OA
ATOM     29  C   UNL     1       7.241   1.129  25.977  0.00  0.00    +0.340 C 
ATOM     30  C   UNL     1       6.645   1.925  27.167  0.00  0.00    +0.214 C 
ATOM     31  C   UNL     1       6.416   0.989  28.356  0.00  0.00    +0.180 C 
ATOM     32  C   UNL     1       5.630  -0.246  27.912  0.00  0.00    +0.178 C 
BRANCH  30  33
ATOM     33  O   UNL     1       7.536   2.996  27.548  0.00  0.00    -0.383 OA
ATOM     34  H   UNL     1       8.120   3.158  26.782  0.00  0.00    +0.210 HD
ENDBRANCH  30  33
BRANCH  31  35
ATOM     35  O   UNL     1       5.768   1.710  29.408  0.00  0.00    -0.386 OA
ATOM     36  H   UNL     1       6.451   2.226  29.877  0.00  0.00    +0.210 HD
ENDBRANCH  31  35
BRANCH  32  37
ATOM     37  O   UNL     1       4.355   0.136  27.371  0.00  0.00    -0.386 OA
ATOM     38  H   UNL     1       4.090   0.982  27.789  0.00  0.00    +0.210 HD
ENDBRANCH  32  37
BRANCH  27  39
ATOM     39  C   UNL     1       5.881  -2.339  26.529  0.00  0.00    +0.266 C 
BRANCH  39  40
ATOM     40  O   UNL     1       6.721  -3.412  27.033  0.00  0.00    -0.458 OA
BRANCH  40  41
ATOM     41  C   UNL     1       7.189  -4.296  26.114  0.00  0.00    +0.339 C 
ATOM     42  O   UNL     1       8.356  -4.395  25.765  0.00  0.00    -0.245 OA
BRANCH  41  44
ATOM     43  C   UNL     1       5.503  -6.068  26.512  0.00  0.00    +0.018 A 
ATOM     44  C   UNL     1       6.128  -5.203  25.597  0.00  0.00    +0.059 A 
ATOM     45  C   UNL     1       5.756  -5.246  24.250  0.00  0.00    +0.018 A 
ATOM     46  C   UNL     1       4.807  -6.184  23.821  0.00  0.00    +0.046 A 
ATOM     47  C   UNL     1       4.236  -7.068  24.730  0.00  0.00    +0.117 A 
ATOM     48  C   UNL     1       4.560  -7.005  26.080  0.00  0.00    +0.046 A 
BRANCH  47  49
ATOM     49  O   UNL     1       3.365  -8.000  24.253  0.00  0.00    -0.507 OA
ATOM     50  H   UNL     1       2.696  -8.182  24.932  0.00  0.00    +0.292 HD
ENDBRANCH  47  49
ENDBRANCH  41  44
ENDBRANCH  40  41
ENDBRANCH  39  40
ENDBRANCH  27  39
ENDBRANCH   1  29
TORSDOF 15
ENDMDL
MODEL 4
REMARK VINA RESULT:      -7.0      2.205      6.382
REMARK  Name = 
REMARK  15 active torsions:
REMARK  status: ('A' for Active; 'I' for Inactive)
REMARK    1  A    between atoms: C_3  and  O_47
REMARK    2  A    between atoms: C_6  and  C_7
REMARK    3  A    between atoms: C_7  and  O_9
REMARK    4  A    between atoms: O_9  and  C_10
REMARK    5  A    between atoms: C_10  and  C_11
REMARK    6  A    between atoms: C_13  and  O_46
REMARK    7  A    between atoms: C_15  and  O_45
REMARK    8  A    between atoms: C_17  and  O_44
REMARK    9  A    between atoms: C_19  and  O_22
REMARK   10  A    between atoms: O_22  and  C_23
REMARK   11  A    between atoms: C_24  and  C_36
REMARK   12  A    between atoms: C_28  and  O_35
REMARK   13  A    between atoms: C_30  and  O_34
REMARK   14  A    between atoms: C_38  and  O_43
REMARK   15  A    between atoms: C_39  and  O_42
REMARK                            x       y       z     vdW  Elec       q    Type
REMARK                         _______ _______ _______ _____ _____    ______ ____
ROOT
ATOM      1  O   UNL     1       7.506  -1.104  26.149  0.00  0.00    -0.453 OA
ENDROOT
BRANCH   1   2
ATOM      2  C   UNL     1       7.053  -2.180  25.411  0.00  0.00    +0.214 A 
ATOM      3  C   UNL     1       6.545  -3.443  26.021  0.00  0.00    +0.238 A 
ATOM      4  O   UNL     1       6.847  -3.796  27.154  0.00  0.00    -0.283 OA
ATOM      5  C   UNL     1       5.715  -4.303  25.167  0.00  0.00    +0.109 A 
ATOM      6  C   UNL     1       5.726  -4.054  23.796  0.00  0.00    +0.147 A 
ATOM      7  C   UNL     1       4.939  -4.836  22.942  0.00  0.00    +0.092 A 
ATOM      8  C   UNL     1       4.169  -5.868  23.476  0.00  0.00    +0.124 A 
ATOM      9  C   UNL     1       4.163  -6.138  24.836  0.00  0.00    +0.091 A 
ATOM     10  O   UNL     1       6.509  -3.078  23.226  0.00  0.00    -0.451 OA
ATOM     11  C   UNL     1       4.941  -5.351  25.687  0.00  0.00    +0.135 A 
ATOM     12  C   UNL     1       7.101  -2.133  24.060  0.00  0.00    +0.181 A 
BRANCH  12  13
ATOM     13  C   UNL     1       7.825  -1.046  23.330  0.00  0.00    +0.025 A 
ATOM     14  C   UNL     1       9.172  -1.185  22.953  0.00  0.00    +0.015 A 
ATOM     15  C   UNL     1       9.838  -0.162  22.257  0.00  0.00    +0.050 A 
ATOM     16  C   UNL     1       9.159   1.001  21.931  0.00  0.00    +0.158 A 
ATOM     17  C   UNL     1       7.837   1.174  22.317  0.00  0.00    +0.159 A 
ATOM     18  C   UNL     1       7.183   0.177  23.037  0.00  0.00    +0.060 A 
BRANCH  16  19
ATOM     19  O   UNL     1       9.794   1.983  21.226  0.00  0.00    -0.503 OA
ATOM     20  H   UNL     1      10.560   1.534  20.816  0.00  0.00    +0.292 HD
ENDBRANCH  16  19
BRANCH  17  21
ATOM     21  O   UNL     1       7.209   2.338  21.963  0.00  0.00    -0.503 OA
ATOM     22  H   UNL     1       7.413   3.007  22.642  0.00  0.00    +0.292 HD
ENDBRANCH  17  21
ENDBRANCH  12  13
BRANCH   8  23
ATOM     23  O   UNL     1       3.382  -6.658  22.693  0.00  0.00    -0.507 OA
ATOM     24  H   UNL     1       3.472  -7.580  22.978  0.00  0.00    +0.292 HD
ENDBRANCH   8  23
BRANCH  11  25
ATOM     25  O   UNL     1       4.905  -5.605  27.029  0.00  0.00    -0.506 OA
ATOM     26  H   UNL     1       5.366  -4.908  27.520  0.00  0.00    +0.292 HD
ENDBRANCH  11  25
ENDBRANCH   1   2
BRANCH   1  29
ATOM     27  C   UNL     1       6.820   2.447  26.498  0.00  0.00    +0.191 C 
ATOM     28  O   UNL     1       7.559   1.246  26.200  0.00  0.00    -0.330 OA
ATOM     29  C   UNL     1       6.729   0.072  26.361  0.00  0.00    +0.340 C 
ATOM     30  C   UNL     1       6.157  -0.059  27.797  0.00  0.00    +0.214 C 
ATOM     31  C   UNL     1       5.525   1.266  28.228  0.00  0.00    +0.180 C 
ATOM     32  C   UNL     1       6.504   2.418  27.997  0.00  0.00    +0.178 C 
BRANCH  30  33
ATOM     33  O   UNL     1       5.172  -1.114  27.848  0.00  0.00    -0.383 OA
ATOM     34  H   UNL     1       5.631  -1.906  28.189  0.00  0.00    +0.210 HD
ENDBRANCH  30  33
BRANCH  31  35
ATOM     35  O   UNL     1       5.098   1.166  29.589  0.00  0.00    -0.386 OA
ATOM     36  H   UNL     1       5.854   1.412  30.155  0.00  0.00    +0.210 HD
ENDBRANCH  31  35
BRANCH  32  37
ATOM     37  O   UNL     1       7.710   2.214  28.751  0.00  0.00    -0.386 OA
ATOM     38  H   UNL     1       7.803   2.959  29.380  0.00  0.00    +0.210 HD
ENDBRANCH  32  37
BRANCH  27  39
ATOM     39  C   UNL     1       7.584   3.733  26.135  0.00  0.00    +0.266 C 
BRANCH  39  40
ATOM     40  O   UNL     1       7.938   3.780  24.727  0.00  0.00    -0.458 OA
BRANCH  40  41
ATOM     41  C   UNL     1       8.419   4.962  24.264  0.00  0.00    +0.339 C 
ATOM     42  O   UNL     1       7.751   5.970  24.083  0.00  0.00    -0.245 OA
BRANCH  41  44
ATOM     43  C   UNL     1      10.611   6.119  24.303  0.00  0.00    +0.018 A 
ATOM     44  C   UNL     1       9.891   4.938  24.046  0.00  0.00    +0.059 A 
ATOM     45  C   UNL     1      10.571   3.811  23.573  0.00  0.00    +0.018 A 
ATOM     46  C   UNL     1      11.945   3.888  23.313  0.00  0.00    +0.046 A 
ATOM     47  C   UNL     1      12.633   5.078  23.524  0.00  0.00    +0.117 A 
ATOM     48  C   UNL     1      11.981   6.192  24.039  0.00  0.00    +0.046 A 
BRANCH  47  49
ATOM     49  O   UNL     1      13.955   5.118  23.198  0.00  0.00    -0.507 OA
ATOM     50  H   UNL     1      14.465   5.373  23.984  0.00  0.00    +0.292 HD
ENDBRANCH  47  49
ENDBRANCH  41  44
ENDBRANCH  40  41
ENDBRANCH  39  40
ENDBRANCH  27  39
ENDBRANCH   1  29
TORSDOF 15
ENDMDL
MODEL 5
REMARK VINA RESULT:      -6.9      2.343      6.813
REMARK  Name = 
REMARK  15 active torsions:
REMARK  status: ('A' for Active; 'I' for Inactive)
REMARK    1  A    between atoms: C_3  and  O_47
REMARK    2  A    between atoms: C_6  and  C_7
REMARK    3  A    between atoms: C_7  and  O_9
REMARK    4  A    between atoms: O_9  and  C_10
REMARK    5  A    between atoms: C_10  and  C_11
REMARK    6  A    between atoms: C_13  and  O_46
REMARK    7  A    between atoms: C_15  and  O_45
REMARK    8  A    between atoms: C_17  and  O_44
REMARK    9  A    between atoms: C_19  and  O_22
REMARK   10  A    between atoms: O_22  and  C_23
REMARK   11  A    between atoms: C_24  and  C_36
REMARK   12  A    between atoms: C_28  and  O_35
REMARK   13  A    between atoms: C_30  and  O_34
REMARK   14  A    between atoms: C_38  and  O_43
REMARK   15  A    between atoms: C_39  and  O_42
REMARK                            x       y       z     vdW  Elec       q    Type
REMARK                         _______ _______ _______ _____ _____    ______ ____
ROOT
ATOM      1  O   UNL     1       5.352  -0.958  24.694  0.00  0.00    -0.453 OA
ENDROOT
BRANCH   1   2
ATOM      2  C   UNL     1       6.342  -0.193  24.109  0.00  0.00    +0.214 A 
ATOM      3  C   UNL     1       6.349   1.299  24.125  0.00  0.00    +0.238 A 
ATOM      4  O   UNL     1       5.330   1.962  24.284  0.00  0.00    -0.283 OA
ATOM      5  C   UNL     1       7.634   1.958  23.861  0.00  0.00    +0.109 A 
ATOM      6  C   UNL     1       8.655   1.184  23.311  0.00  0.00    +0.147 A 
ATOM      7  C   UNL     1       9.904   1.763  23.057  0.00  0.00    +0.092 A 
ATOM      8  C   UNL     1      10.102   3.113  23.339  0.00  0.00    +0.124 A 
ATOM      9  C   UNL     1       9.090   3.899  23.869  0.00  0.00    +0.091 A 
ATOM     10  O   UNL     1       8.483  -0.137  22.974  0.00  0.00    -0.451 OA
ATOM     11  C   UNL     1       7.848   3.318  24.132  0.00  0.00    +0.135 A 
ATOM     12  C   UNL     1       7.350  -0.798  23.440  0.00  0.00    +0.181 A 
BRANCH  12  13
ATOM     13  C   UNL     1       7.324  -2.260  23.123  0.00  0.00    +0.025 A 
ATOM     14  C   UNL     1       8.061  -3.189  23.878  0.00  0.00    +0.015 A 
ATOM     15  C   UNL     1       8.019  -4.561  23.578  0.00  0.00    +0.050 A 
ATOM     16  C   UNL     1       7.238  -5.010  22.525  0.00  0.00    +0.158 A 
ATOM     17  C   UNL     1       6.524  -4.110  21.747  0.00  0.00    +0.159 A 
ATOM     18  C   UNL     1       6.588  -2.746  22.019  0.00  0.00    +0.060 A 
BRANCH  16  19
ATOM     19  O   UNL     1       7.169  -6.347  22.253  0.00  0.00    -0.503 OA
ATOM     20  H   UNL     1       7.631  -6.773  23.001  0.00  0.00    +0.292 HD
ENDBRANCH  16  19
BRANCH  17  21
ATOM     21  O   UNL     1       5.760  -4.605  20.725  0.00  0.00    -0.503 OA
ATOM     22  H   UNL     1       5.070  -3.947  20.521  0.00  0.00    +0.292 HD
ENDBRANCH  17  21
ENDBRANCH  12  13
BRANCH   8  23
ATOM     23  O   UNL     1      11.298   3.727  23.115  0.00  0.00    -0.507 OA
ATOM     24  H   UNL     1      11.973   3.056  22.935  0.00  0.00    +0.292 HD
ENDBRANCH   8  23
BRANCH  11  25
ATOM     25  O   UNL     1       6.867   4.093  24.682  0.00  0.00    -0.506 OA
ATOM     26  H   UNL     1       6.272   3.553  25.224  0.00  0.00    +0.292 HD
ENDBRANCH  11  25
ENDBRANCH   1   2
BRANCH   1  29
ATOM     27  C   UNL     1       5.513  -3.111  27.616  0.00  0.00    +0.191 C 
ATOM     28  O   UNL     1       5.595  -2.720  26.232  0.00  0.00    -0.330 OA
ATOM     29  C   UNL     1       5.355  -1.301  26.077  0.00  0.00    +0.340 C 
ATOM     30  C   UNL     1       3.966  -0.871  26.617  0.00  0.00    +0.214 C 
ATOM     31  C   UNL     1       3.759  -1.431  28.026  0.00  0.00    +0.180 C 
ATOM     32  C   UNL     1       4.053  -2.932  28.046  0.00  0.00    +0.178 C 
BRANCH  30  33
ATOM     33  O   UNL     1       3.862   0.569  26.639  0.00  0.00    -0.383 OA
ATOM     34  H   UNL     1       3.092   0.784  27.198  0.00  0.00    +0.210 HD
ENDBRANCH  30  33
BRANCH  31  35
ATOM     35  O   UNL     1       2.435  -1.120  28.470  0.00  0.00    -0.386 OA
ATOM     36  H   UNL     1       2.113  -1.879  28.991  0.00  0.00    +0.210 HD
ENDBRANCH  31  35
BRANCH  32  37
ATOM     37  O   UNL     1       3.184  -3.629  27.139  0.00  0.00    -0.386 OA
ATOM     38  H   UNL     1       2.738  -2.962  26.576  0.00  0.00    +0.210 HD
ENDBRANCH  32  37
BRANCH  27  39
ATOM     39  C   UNL     1       5.972  -4.558  27.864  0.00  0.00    +0.266 C 
BRANCH  39  40
ATOM     40  O   UNL     1       5.997  -5.342  26.641  0.00  0.00    -0.458 OA
BRANCH  40  41
ATOM     41  C   UNL     1       5.211  -6.450  26.618  0.00  0.00    +0.339 C 
ATOM     42  O   UNL     1       5.187  -7.312  27.484  0.00  0.00    -0.245 OA
BRANCH  41  44
ATOM     43  C   UNL     1       4.378  -5.422  24.522  0.00  0.00    +0.018 A 
ATOM     44  C   UNL     1       4.311  -6.491  25.433  0.00  0.00    +0.059 A 
ATOM     45  C   UNL     1       3.393  -7.523  25.212  0.00  0.00    +0.018 A 
ATOM     46  C   UNL     1       2.520  -7.453  24.119  0.00  0.00    +0.046 A 
ATOM     47  C   UNL     1       2.564  -6.363  23.256  0.00  0.00    +0.117 A 
ATOM     48  C   UNL     1       3.502  -5.354  23.436  0.00  0.00    +0.046 A 
BRANCH  47  49
ATOM     49  O   UNL     1       1.653  -6.313  22.245  0.00  0.00    -0.507 OA
ATOM     50  H   UNL     1       1.077  -7.093  22.302  0.00  0.00    +0.292 HD
ENDBRANCH  47  49
ENDBRANCH  41  44
ENDBRANCH  40  41
ENDBRANCH  39  40
ENDBRANCH  27  39
ENDBRANCH   1  29
TORSDOF 15
ENDMDL
MODEL 6
REMARK VINA RESULT:      -6.8      2.119      6.701
REMARK  Name = 
REMARK  15 active torsions:
REMARK  status: ('A' for Active; 'I' for Inactive)
REMARK    1  A    between atoms: C_3  and  O_47
REMARK    2  A    between atoms: C_6  and  C_7
REMARK    3  A    between atoms: C_7  and  O_9
REMARK    4  A    between atoms: O_9  and  C_10
REMARK    5  A    between atoms: C_10  and  C_11
REMARK    6  A    between atoms: C_13  and  O_46
REMARK    7  A    between atoms: C_15  and  O_45
REMARK    8  A    between atoms: C_17  and  O_44
REMARK    9  A    between atoms: C_19  and  O_22
REMARK   10  A    between atoms: O_22  and  C_23
REMARK   11  A    between atoms: C_24  and  C_36
REMARK   12  A    between atoms: C_28  and  O_35
REMARK   13  A    between atoms: C_30  and  O_34
REMARK   14  A    between atoms: C_38  and  O_43
REMARK   15  A    between atoms: C_39  and  O_42
REMARK                            x       y       z     vdW  Elec       q    Type
REMARK                         _______ _______ _______ _____ _____    ______ ____
ROOT
ATOM      1  O   UNL     1       6.719  -0.160  26.131  0.00  0.00    -0.453 OA
ENDROOT
BRANCH   1   2
ATOM      2  C   UNL     1       6.973  -1.335  25.452  0.00  0.00    +0.214 A 
ATOM      3  C   UNL     1       6.451  -2.665  25.881  0.00  0.00    +0.238 A 
ATOM      4  O   UNL     1       6.113  -2.900  27.036  0.00  0.00    -0.283 OA
ATOM      5  C   UNL     1       6.428  -3.727  24.867  0.00  0.00    +0.109 A 
ATOM      6  C   UNL     1       7.171  -3.524  23.705  0.00  0.00    +0.147 A 
ATOM      7  C   UNL     1       7.168  -4.499  22.701  0.00  0.00    +0.092 A 
ATOM      8  C   UNL     1       6.437  -5.671  22.888  0.00  0.00    +0.124 A 
ATOM      9  C   UNL     1       5.708  -5.894  24.046  0.00  0.00    +0.091 A 
ATOM     10  O   UNL     1       7.943  -2.405  23.504  0.00  0.00    -0.451 OA
ATOM     11  C   UNL     1       5.704  -4.915  25.042  0.00  0.00    +0.135 A 
ATOM     12  C   UNL     1       7.771  -1.320  24.360  0.00  0.00    +0.181 A 
BRANCH  12  13
ATOM     13  C   UNL     1       8.567  -0.111  23.978  0.00  0.00    +0.025 A 
ATOM     14  C   UNL     1       9.703   0.281  24.707  0.00  0.00    +0.015 A 
ATOM     15  C   UNL     1      10.450   1.410  24.331  0.00  0.00    +0.050 A 
ATOM     16  C   UNL     1      10.066   2.149  23.223  0.00  0.00    +0.158 A 
ATOM     17  C   UNL     1       8.933   1.798  22.503  0.00  0.00    +0.159 A 
ATOM     18  C   UNL     1       8.170   0.700  22.891  0.00  0.00    +0.060 A 
BRANCH  16  19
ATOM     19  O   UNL     1      10.810   3.227  22.836  0.00  0.00    -0.503 OA
ATOM     20  H   UNL     1      10.597   3.920  23.492  0.00  0.00    +0.292 HD
ENDBRANCH  16  19
BRANCH  17  21
ATOM     21  O   UNL     1       8.603   2.555  21.411  0.00  0.00    -0.503 OA
ATOM     22  H   UNL     1       7.857   3.131  21.661  0.00  0.00    +0.292 HD
ENDBRANCH  17  21
ENDBRANCH  12  13
BRANCH   8  23
ATOM     23  O   UNL     1       6.395  -6.652  21.943  0.00  0.00    -0.507 OA
ATOM     24  H   UNL     1       6.957  -6.399  21.195  0.00  0.00    +0.292 HD
ENDBRANCH   8  23
BRANCH  11  25
ATOM     25  O   UNL     1       4.959  -5.130  26.167  0.00  0.00    -0.506 OA
ATOM     26  H   UNL     1       4.352  -5.874  26.036  0.00  0.00    +0.292 HD
ENDBRANCH  11  25
ENDBRANCH   1   2
BRANCH   1  29
ATOM     27  C   UNL     1       4.182   2.320  25.349  0.00  0.00    +0.191 C 
ATOM     28  O   UNL     1       5.438   1.619  25.280  0.00  0.00    -0.330 OA
ATOM     29  C   UNL     1       5.437   0.462  26.150  0.00  0.00    +0.340 C 
ATOM     30  C   UNL     1       5.174   0.834  27.632  0.00  0.00    +0.214 C 
ATOM     31  C   UNL     1       3.948   1.742  27.731  0.00  0.00    +0.180 C 
ATOM     32  C   UNL     1       4.078   2.915  26.758  0.00  0.00    +0.178 C 
BRANCH  30  33
ATOM     33  O   UNL     1       4.969  -0.360  28.418  0.00  0.00    -0.383 OA
ATOM     34  H   UNL     1       4.242  -0.163  29.039  0.00  0.00    +0.210 HD
ENDBRANCH  30  33
BRANCH  31  35
ATOM     35  O   UNL     1       3.779   2.165  29.088  0.00  0.00    -0.386 OA
ATOM     36  H   UNL     1       2.860   1.965  29.347  0.00  0.00    +0.210 HD
ENDBRANCH  31  35
BRANCH  32  37
ATOM     37  O   UNL     1       5.251   3.688  27.054  0.00  0.00    -0.386 OA
ATOM     38  H   UNL     1       5.185   4.536  26.567  0.00  0.00    +0.210 HD
ENDBRANCH  32  37
BRANCH  27  39
ATOM     39  C   UNL     1       4.047   3.427  24.288  0.00  0.00    +0.266 C 
BRANCH  39  40
ATOM     40  O   UNL     1       5.154   4.367  24.335  0.00  0.00    -0.458 OA
BRANCH  40  41
ATOM     41  C   UNL     1       6.090   4.247  23.358  0.00  0.00    +0.339 C 
ATOM     42  O   UNL     1       5.908   3.715  22.273  0.00  0.00    -0.245 OA
BRANCH  41  44
ATOM     43  C   UNL     1       7.923   4.617  24.984  0.00  0.00    +0.018 A 
ATOM     44  C   UNL     1       7.381   4.895  23.717  0.00  0.00    +0.059 A 
ATOM     45  C   UNL     1       8.050   5.779  22.865  0.00  0.00    +0.018 A 
ATOM     46  C   UNL     1       9.219   6.414  23.303  0.00  0.00    +0.046 A 
ATOM     47  C   UNL     1       9.714   6.168  24.579  0.00  0.00    +0.117 A 
ATOM     48  C   UNL     1       9.087   5.256  25.419  0.00  0.00    +0.046 A 
BRANCH  47  49
ATOM     49  O   UNL     1      10.819   6.858  24.979  0.00  0.00    -0.507 OA
ATOM     50  H   UNL     1      11.403   6.258  25.471  0.00  0.00    +0.292 HD
ENDBRANCH  47  49
ENDBRANCH  41  44
ENDBRANCH  40  41
ENDBRANCH  39  40
ENDBRANCH  27  39
ENDBRANCH   1  29
TORSDOF 15
ENDMDL
MODEL 7
REMARK VINA RESULT:      -6.8      2.298      6.145
REMARK  Name = 
REMARK  15 active torsions:
REMARK  status: ('A' for Active; 'I' for Inactive)
REMARK    1  A    between atoms: C_3  and  O_47
REMARK    2  A    between atoms: C_6  and  C_7
REMARK    3  A    between atoms: C_7  and  O_9
REMARK    4  A    between atoms: O_9  and  C_10
REMARK    5  A    between atoms: C_10  and  C_11
REMARK    6  A    between atoms: C_13  and  O_46
REMARK    7  A    between atoms: C_15  and  O_45
REMARK    8  A    between atoms: C_17  and  O_44
REMARK    9  A    between atoms: C_19  and  O_22
REMARK   10  A    between atoms: O_22  and  C_23
REMARK   11  A    between atoms: C_24  and  C_36
REMARK   12  A    between atoms: C_28  and  O_35
REMARK   13  A    between atoms: C_30  and  O_34
REMARK   14  A    between atoms: C_38  and  O_43
REMARK   15  A    between atoms: C_39  and  O_42
REMARK                            x       y       z     vdW  Elec       q    Type
REMARK                         _______ _______ _______ _____ _____    ______ ____
ROOT
ATOM      1  O   UNL     1       4.624  -1.646  25.235  0.00  0.00    -0.453 OA
ENDROOT
BRANCH   1   2
ATOM      2  C   UNL     1       5.638  -0.900  24.667  0.00  0.00    +0.214 A 
ATOM      3  C   UNL     1       5.819   0.562  24.903  0.00  0.00    +0.238 A 
ATOM      4  O   UNL     1       4.903   1.289  25.268  0.00  0.00    -0.283 OA
ATOM      5  C   UNL     1       7.143   1.122  24.602  0.00  0.00    +0.109 A 
ATOM      6  C   UNL     1       8.012   0.347  23.837  0.00  0.00    +0.147 A 
ATOM      7  C   UNL     1       9.291   0.830  23.537  0.00  0.00    +0.092 A 
ATOM      8  C   UNL     1       9.670   2.092  23.994  0.00  0.00    +0.124 A 
ATOM      9  C   UNL     1       8.809   2.880  24.741  0.00  0.00    +0.091 A 
ATOM     10  O   UNL     1       7.659  -0.880  23.327  0.00  0.00    -0.451 OA
ATOM     11  C   UNL     1       7.537   2.393  25.048  0.00  0.00    +0.135 A 
ATOM     12  C   UNL     1       6.504  -1.489  23.810  0.00  0.00    +0.181 A 
BRANCH  12  13
ATOM     13  C   UNL     1       6.280  -2.872  23.284  0.00  0.00    +0.025 A 
ATOM     14  C   UNL     1       6.859  -3.302  22.077  0.00  0.00    +0.015 A 
ATOM     15  C   UNL     1       6.652  -4.607  21.599  0.00  0.00    +0.050 A 
ATOM     16  C   UNL     1       5.868  -5.488  22.327  0.00  0.00    +0.158 A 
ATOM     17  C   UNL     1       5.262  -5.079  23.507  0.00  0.00    +0.159 A 
ATOM     18  C   UNL     1       5.437  -3.776  23.968  0.00  0.00    +0.060 A 
BRANCH  16  19
ATOM     19  O   UNL     1       5.692  -6.767  21.882  0.00  0.00    -0.503 OA
ATOM     20  H   UNL     1       5.834  -7.323  22.673  0.00  0.00    +0.292 HD
ENDBRANCH  16  19
BRANCH  17  21
ATOM     21  O   UNL     1       4.506  -5.990  24.193  0.00  0.00    -0.503 OA
ATOM     22  H   UNL     1       4.863  -6.878  24.003  0.00  0.00    +0.292 HD
ENDBRANCH  17  21
ENDBRANCH  12  13
BRANCH   8  23
ATOM     23  O   UNL     1      10.903   2.611  23.735  0.00  0.00    -0.507 OA
ATOM     24  H   UNL     1      11.459   1.927  23.330  0.00  0.00    +0.292 HD
ENDBRANCH   8  23
BRANCH  11  25
ATOM     25  O   UNL     1       6.706   3.164  25.810  0.00  0.00    -0.506 OA
ATOM     26  H   UNL     1       6.424   3.950  25.317  0.00  0.00    +0.292 HD
ENDBRANCH  11  25
ENDBRANCH   1   2
BRANCH   1  29
ATOM     27  C   UNL     1       4.543  -3.376  28.429  0.00  0.00    +0.191 C 
ATOM     28  O   UNL     1       4.774  -3.166  27.023  0.00  0.00    -0.330 OA
ATOM     29  C   UNL     1       4.474  -1.802  26.644  0.00  0.00    +0.340 C 
ATOM     30  C   UNL     1       3.006  -1.408  26.954  0.00  0.00    +0.214 C 
ATOM     31  C   UNL     1       2.659  -1.791  28.394  0.00  0.00    +0.180 C 
ATOM     32  C   UNL     1       3.033  -3.250  28.659  0.00  0.00    +0.178 C 
BRANCH  30  33
ATOM     33  O   UNL     1       2.818   0.010  26.762  0.00  0.00    -0.383 OA
ATOM     34  H   UNL     1       3.001   0.435  27.622  0.00  0.00    +0.210 HD
ENDBRANCH  30  33
BRANCH  31  35
ATOM     35  O   UNL     1       1.274  -1.522  28.634  0.00  0.00    -0.386 OA
ATOM     36  H   UNL     1       1.025  -0.750  28.092  0.00  0.00    +0.210 HD
ENDBRANCH  31  35
BRANCH  32  37
ATOM     37  O   UNL     1       2.325  -4.123  27.764  0.00  0.00    -0.386 OA
ATOM     38  H   UNL     1       2.668  -3.971  26.859  0.00  0.00    +0.210 HD
ENDBRANCH  32  37
BRANCH  27  39
ATOM     39  C   UNL     1       5.050  -4.740  28.929  0.00  0.00    +0.266 C 
BRANCH  39  40
ATOM     40  O   UNL     1       6.424  -4.993  28.529  0.00  0.00    -0.458 OA
BRANCH  40  41
ATOM     41  C   UNL     1       6.600  -5.642  27.349  0.00  0.00    +0.339 C 
ATOM     42  O   UNL     1       5.975  -6.630  26.991  0.00  0.00    -0.245 OA
BRANCH  41  44
ATOM     43  C   UNL     1       7.924  -3.640  26.735  0.00  0.00    +0.018 A 
ATOM     44  C   UNL     1       7.613  -4.987  26.478  0.00  0.00    +0.059 A 
ATOM     45  C   UNL     1       8.235  -5.642  25.411  0.00  0.00    +0.018 A 
ATOM     46  C   UNL     1       9.118  -4.937  24.583  0.00  0.00    +0.046 A 
ATOM     47  C   UNL     1       9.376  -3.591  24.820  0.00  0.00    +0.117 A 
ATOM     48  C   UNL     1       8.802  -2.939  25.904  0.00  0.00    +0.046 A 
BRANCH  47  49
ATOM     49  O   UNL     1      10.193  -2.935  23.949  0.00  0.00    -0.507 OA
ATOM     50  H   UNL     1      10.778  -2.344  24.451  0.00  0.00    +0.292 HD
ENDBRANCH  47  49
ENDBRANCH  41  44
ENDBRANCH  40  41
ENDBRANCH  39  40
ENDBRANCH  27  39
ENDBRANCH   1  29
TORSDOF 15
ENDMDL
MODEL 8
REMARK VINA RESULT:      -6.8      2.869      6.896
REMARK  Name = 
REMARK  15 active torsions:
REMARK  status: ('A' for Active; 'I' for Inactive)
REMARK    1  A    between atoms: C_3  and  O_47
REMARK    2  A    between atoms: C_6  and  C_7
REMARK    3  A    between atoms: C_7  and  O_9
REMARK    4  A    between atoms: O_9  and  C_10
REMARK    5  A    between atoms: C_10  and  C_11
REMARK    6  A    between atoms: C_13  and  O_46
REMARK    7  A    between atoms: C_15  and  O_45
REMARK    8  A    between atoms: C_17  and  O_44
REMARK    9  A    between atoms: C_19  and  O_22
REMARK   10  A    between atoms: O_22  and  C_23
REMARK   11  A    between atoms: C_24  and  C_36
REMARK   12  A    between atoms: C_28  and  O_35
REMARK   13  A    between atoms: C_30  and  O_34
REMARK   14  A    between atoms: C_38  and  O_43
REMARK   15  A    between atoms: C_39  and  O_42
REMARK                            x       y       z     vdW  Elec       q    Type
REMARK                         _______ _______ _______ _____ _____    ______ ____
ROOT
ATOM      1  O   UNL     1       6.239  -3.261  27.326  0.00  0.00    -0.453 OA
ENDROOT
BRANCH   1   2
ATOM      2  C   UNL     1       6.971  -2.405  26.527  0.00  0.00    +0.214 A 
ATOM      3  C   UNL     1       8.271  -2.775  25.896  0.00  0.00    +0.238 A 
ATOM      4  O   UNL     1       8.984  -3.672  26.331  0.00  0.00    -0.283 OA
ATOM      5  C   UNL     1       8.712  -1.958  24.758  0.00  0.00    +0.109 A 
ATOM      6  C   UNL     1       8.072  -0.736  24.556  0.00  0.00    +0.147 A 
ATOM      7  C   UNL     1       8.445   0.072  23.476  0.00  0.00    +0.092 A 
ATOM      8  C   UNL     1       9.467  -0.350  22.627  0.00  0.00    +0.124 A 
ATOM      9  C   UNL     1      10.123  -1.555  22.826  0.00  0.00    +0.091 A 
ATOM     10  O   UNL     1       7.094  -0.263  25.399  0.00  0.00    -0.451 OA
ATOM     11  C   UNL     1       9.744  -2.364  23.899  0.00  0.00    +0.135 A 
ATOM     12  C   UNL     1       6.534  -1.141  26.322  0.00  0.00    +0.181 A 
BRANCH  12  13
ATOM     13  C   UNL     1       5.396  -0.561  27.101  0.00  0.00    +0.025 A 
ATOM     14  C   UNL     1       5.605   0.116  28.315  0.00  0.00    +0.015 A 
ATOM     15  C   UNL     1       4.529   0.668  29.031  0.00  0.00    +0.050 A 
ATOM     16  C   UNL     1       3.241   0.548  28.534  0.00  0.00    +0.158 A 
ATOM     17  C   UNL     1       3.005  -0.140  27.353  0.00  0.00    +0.159 A 
ATOM     18  C   UNL     1       4.064  -0.718  26.657  0.00  0.00    +0.060 A 
BRANCH  16  19
ATOM     19  O   UNL     1       2.198   1.112  29.212  0.00  0.00    -0.503 OA
ATOM     20  H   UNL     1       1.789   0.368  29.696  0.00  0.00    +0.292 HD
ENDBRANCH  16  19
BRANCH  17  21
ATOM     21  O   UNL     1       1.716  -0.222  26.900  0.00  0.00    -0.503 OA
ATOM     22  H   UNL     1       1.703  -0.837  26.144  0.00  0.00    +0.292 HD
ENDBRANCH  17  21
ENDBRANCH  12  13
BRANCH   8  23
ATOM     23  O   UNL     1       9.868   0.394  21.558  0.00  0.00    -0.507 OA
ATOM     24  H   UNL     1      10.800   0.634  21.668  0.00  0.00    +0.292 HD
ENDBRANCH   8  23
BRANCH  11  25
ATOM     25  O   UNL     1      10.376  -3.563  24.070  0.00  0.00    -0.506 OA
ATOM     26  H   UNL     1      10.114  -4.187  23.377  0.00  0.00    +0.292 HD
ENDBRANCH  11  25
ENDBRANCH   1   2
BRANCH   1  29
ATOM     27  C   UNL     1       3.645  -5.570  26.256  0.00  0.00    +0.191 C 
ATOM     28  O   UNL     1       4.252  -4.326  26.655  0.00  0.00    -0.330 OA
ATOM     29  C   UNL     1       5.679  -4.480  26.844  0.00  0.00    +0.340 C 
ATOM     30  C   UNL     1       6.025  -5.550  27.912  0.00  0.00    +0.214 C 
ATOM     31  C   UNL     1       5.248  -6.837  27.630  0.00  0.00    +0.180 C 
ATOM     32  C   UNL     1       3.761  -6.528  27.446  0.00  0.00    +0.178 C 
BRANCH  30  33
ATOM     33  O   UNL     1       7.443  -5.819  27.909  0.00  0.00    -0.383 OA
ATOM     34  H   UNL     1       7.618  -6.402  28.672  0.00  0.00    +0.210 HD
ENDBRANCH  30  33
BRANCH  31  35
ATOM     35  O   UNL     1       5.492  -7.778  28.681  0.00  0.00    -0.386 OA
ATOM     36  H   UNL     1       4.635  -7.977  29.103  0.00  0.00    +0.210 HD
ENDBRANCH  31  35
BRANCH  32  37
ATOM     37  O   UNL     1       3.223  -5.913  28.627  0.00  0.00    -0.386 OA
ATOM     38  H   UNL     1       3.905  -5.309  28.990  0.00  0.00    +0.210 HD
ENDBRANCH  32  37
BRANCH  27  39
ATOM     39  C   UNL     1       2.174  -5.417  25.831  0.00  0.00    +0.266 C 
BRANCH  39  40
ATOM     40  O   UNL     1       2.028  -4.573  24.658  0.00  0.00    -0.458 OA
BRANCH  40  41
ATOM     41  C   UNL     1       2.409  -5.115  23.472  0.00  0.00    +0.339 C 
ATOM     42  O   UNL     1       1.658  -5.654  22.672  0.00  0.00    -0.245 OA
BRANCH  41  44
ATOM     43  C   UNL     1       4.413  -3.658  23.395  0.00  0.00    +0.018 A 
ATOM     44  C   UNL     1       3.861  -4.937  23.199  0.00  0.00    +0.059 A 
ATOM     45  C   UNL     1       4.679  -5.971  22.732  0.00  0.00    +0.018 A 
ATOM     46  C   UNL     1       6.019  -5.708  22.418  0.00  0.00    +0.046 A 
ATOM     47  C   UNL     1       6.536  -4.426  22.569  0.00  0.00    +0.117 A 
ATOM     48  C   UNL     1       5.748  -3.400  23.076  0.00  0.00    +0.046 A 
BRANCH  47  49
ATOM     49  O   UNL     1       7.826  -4.210  22.191  0.00  0.00    -0.507 OA
ATOM     50  H   UNL     1       8.212  -3.529  22.766  0.00  0.00    +0.292 HD
ENDBRANCH  47  49
ENDBRANCH  41  44
ENDBRANCH  40  41
ENDBRANCH  39  40
ENDBRANCH  27  39
ENDBRANCH   1  29
TORSDOF 15
ENDMDL
MODEL 9
REMARK VINA RESULT:      -6.5      2.247      8.182
REMARK  Name = 
REMARK  15 active torsions:
REMARK  status: ('A' for Active; 'I' for Inactive)
REMARK    1  A    between atoms: C_3  and  O_47
REMARK    2  A    between atoms: C_6  and  C_7
REMARK    3  A    between atoms: C_7  and  O_9
REMARK    4  A    between atoms: O_9  and  C_10
REMARK    5  A    between atoms: C_10  and  C_11
REMARK    6  A    between atoms: C_13  and  O_46
REMARK    7  A    between atoms: C_15  and  O_45
REMARK    8  A    between atoms: C_17  and  O_44
REMARK    9  A    between atoms: C_19  and  O_22
REMARK   10  A    between atoms: O_22  and  C_23
REMARK   11  A    between atoms: C_24  and  C_36
REMARK   12  A    between atoms: C_28  and  O_35
REMARK   13  A    between atoms: C_30  and  O_34
REMARK   14  A    between atoms: C_38  and  O_43
REMARK   15  A    between atoms: C_39  and  O_42
REMARK                            x       y       z     vdW  Elec       q    Type
REMARK                         _______ _______ _______ _____ _____    ______ ____
ROOT
ATOM      1  O   UNL     1       7.731   0.239  25.998  0.00  0.00    -0.453 OA
ENDROOT
BRANCH   1   2
ATOM      2  C   UNL     1       7.618  -0.731  25.021  0.00  0.00    +0.214 A 
ATOM      3  C   UNL     1       7.764  -2.191  25.287  0.00  0.00    +0.238 A 
ATOM      4  O   UNL     1       8.374  -2.627  26.257  0.00  0.00    -0.283 OA
ATOM      5  C   UNL     1       7.206  -3.107  24.284  0.00  0.00    +0.109 A 
ATOM      6  C   UNL     1       6.879  -2.576  23.037  0.00  0.00    +0.147 A 
ATOM      7  C   UNL     1       6.328  -3.404  22.053  0.00  0.00    +0.092 A 
ATOM      8  C   UNL     1       6.134  -4.757  22.328  0.00  0.00    +0.124 A 
ATOM      9  C   UNL     1       6.472  -5.302  23.557  0.00  0.00    +0.091 A 
ATOM     10  O   UNL     1       7.100  -1.258  22.712  0.00  0.00    -0.451 OA
ATOM     11  C   UNL     1       7.012  -4.472  24.541  0.00  0.00    +0.135 A 
ATOM     12  C   UNL     1       7.407  -0.366  23.735  0.00  0.00    +0.181 A 
BRANCH  12  13
ATOM     13  C   UNL     1       7.504   1.060  23.291  0.00  0.00    +0.025 A 
ATOM     14  C   UNL     1       6.374   1.771  22.851  0.00  0.00    +0.015 A 
ATOM     15  C   UNL     1       6.475   3.113  22.448  0.00  0.00    +0.050 A 
ATOM     16  C   UNL     1       7.705   3.750  22.487  0.00  0.00    +0.158 A 
ATOM     17  C   UNL     1       8.840   3.062  22.890  0.00  0.00    +0.159 A 
ATOM     18  C   UNL     1       8.751   1.722  23.258  0.00  0.00    +0.060 A 
BRANCH  16  19
ATOM     19  O   UNL     1       7.800   5.065  22.127  0.00  0.00    -0.503 OA
ATOM     20  H   UNL     1       7.361   5.549  22.853  0.00  0.00    +0.292 HD
ENDBRANCH  16  19
BRANCH  17  21
ATOM     21  O   UNL     1      10.029   3.740  22.919  0.00  0.00    -0.503 OA
ATOM     22  H   UNL     1      10.349   3.823  22.002  0.00  0.00    +0.292 HD
ENDBRANCH  17  21
ENDBRANCH  12  13
BRANCH   8  23
ATOM     23  O   UNL     1       5.600  -5.609  21.408  0.00  0.00    -0.507 OA
ATOM     24  H   UNL     1       6.023  -6.476  21.492  0.00  0.00    +0.292 HD
ENDBRANCH   8  23
BRANCH  11  25
ATOM     25  O   UNL     1       7.314  -5.012  25.759  0.00  0.00    -0.506 OA
ATOM     26  H   UNL     1       7.240  -5.978  25.731  0.00  0.00    +0.292 HD
ENDBRANCH  11  25
ENDBRANCH   1   2
BRANCH   1  29
ATOM     27  C   UNL     1       4.356   0.221  27.345  0.00  0.00    +0.191 C 
ATOM     28  O   UNL     1       5.473  -0.163  26.520  0.00  0.00    -0.330 OA
ATOM     29  C   UNL     1       6.667   0.570  26.886  0.00  0.00    +0.340 C 
ATOM     30  C   UNL     1       6.482   2.105  26.763  0.00  0.00    +0.214 C 
ATOM     31  C   UNL     1       5.195   2.533  27.471  0.00  0.00    +0.180 C 
ATOM     32  C   UNL     1       4.021   1.675  26.997  0.00  0.00    +0.178 C 
BRANCH  30  33
ATOM     33  O   UNL     1       7.614   2.792  27.340  0.00  0.00    -0.383 OA
ATOM     34  H   UNL     1       8.171   3.085  26.594  0.00  0.00    +0.210 HD
ENDBRANCH  30  33
BRANCH  31  35
ATOM     35  O   UNL     1       4.981   3.932  27.259  0.00  0.00    -0.386 OA
ATOM     36  H   UNL     1       4.866   4.071  26.300  0.00  0.00    +0.210 HD
ENDBRANCH  31  35
BRANCH  32  37
ATOM     37  O   UNL     1       3.837   1.812  25.579  0.00  0.00    -0.386 OA
ATOM     38  H   UNL     1       4.149   0.987  25.152  0.00  0.00    +0.210 HD
ENDBRANCH  32  37
BRANCH  27  39
ATOM     39  C   UNL     1       3.122  -0.676  27.148  0.00  0.00    +0.266 C 
BRANCH  39  40
ATOM     40  O   UNL     1       3.374  -2.050  27.550  0.00  0.00    -0.458 OA
BRANCH  40  41
ATOM     41  C   UNL     1       3.691  -2.921  26.557  0.00  0.00    +0.339 C 
ATOM     42  O   UNL     1       3.670  -2.662  25.363  0.00  0.00    -0.245 OA
BRANCH  41  44
ATOM     43  C   UNL     1       4.908  -4.262  28.249  0.00  0.00    +0.018 A 
ATOM     44  C   UNL     1       4.136  -4.244  27.074  0.00  0.00    +0.059 A 
ATOM     45  C   UNL     1       3.843  -5.449  26.428  0.00  0.00    +0.018 A 
ATOM     46  C   UNL     1       4.365  -6.649  26.927  0.00  0.00    +0.046 A 
ATOM     47  C   UNL     1       5.170  -6.644  28.061  0.00  0.00    +0.117 A 
ATOM     48  C   UNL     1       5.430  -5.461  28.741  0.00  0.00    +0.046 A 
BRANCH  47  49
ATOM     49  O   UNL     1       5.703  -7.829  28.470  0.00  0.00    -0.507 OA
ATOM     50  H   UNL     1       5.191  -8.556  28.079  0.00  0.00    +0.292 HD
ENDBRANCH  47  49
ENDBRANCH  41  44
ENDBRANCH  40  41
ENDBRANCH  39  40
ENDBRANCH  27  39
ENDBRANCH   1  29
TORSDOF 15
ENDMDL
