MODEL 1
REMARK VINA RESULT:      -7.4      0.000      0.000
REMARK  Name = 
REMARK  17 active torsions:
REMARK  status: ('A' for Active; 'I' for Inactive)
REMARK    1  A    between atoms: C_1  and  C_2
REMARK    2  A    between atoms: C_3  and  O_49
REMARK    3  A    between atoms: C_5  and  O_48
REMARK    4  A    between atoms: C_6  and  O_47
REMARK    5  A    between atoms: C_8  and  O_11
REMARK    6  A    between atoms: O_11  and  C_12
REMARK    7  A    between atoms: C_13  and  C_25
REMARK    8  A    between atoms: C_17  and  O_24
REMARK    9  A    between atoms: C_19  and  O_23
REMARK   10  A    between atoms: C_27  and  O_32
REMARK   11  A    between atoms: C_28  and  O_31
REMARK   12  A    between atoms: O_32  and  C_33
REMARK   13  A    between atoms: C_35  and  O_46
REMARK   14  A    between atoms: C_36  and  O_45
REMARK   15  A    between atoms: C_38  and  O_44
REMARK   16  A    between atoms: C_40  and  C_42
REMARK   17  A    between atoms: C_42  and  O_43
REMARK                            x       y       z     vdW  Elec       q    Type
REMARK                         _______ _______ _______ _____ _____    ______ ____
ROOT
ATOM      1  C   UNL     1       7.525  -2.108  25.466  0.00  0.00    +0.214 A 
ATOM      2  C   UNL     1       6.926  -3.478  25.486  0.00  0.00    +0.238 A 
ATOM      3  O   UNL     1       6.885  -4.168  26.499  0.00  0.00    -0.283 OA
ATOM      4  C   UNL     1       6.567  -4.079  24.203  0.00  0.00    +0.109 A 
ATOM      5  C   UNL     1       7.171  -3.556  23.068  0.00  0.00    +0.147 A 
ATOM      6  C   UNL     1       7.080  -4.251  21.856  0.00  0.00    +0.092 A 
ATOM      7  C   UNL     1       6.347  -5.440  21.804  0.00  0.00    +0.124 A 
ATOM      8  C   UNL     1       5.677  -5.928  22.920  0.00  0.00    +0.091 A 
ATOM      9  O   UNL     1       7.903  -2.386  23.082  0.00  0.00    -0.451 OA
ATOM     10  C   UNL     1       5.781  -5.240  24.122  0.00  0.00    +0.135 A 
ATOM     11  C   UNL     1       7.984  -1.676  24.274  0.00  0.00    +0.181 A 
ENDROOT
BRANCH  11  12
ATOM     12  C   UNL     1       8.827  -0.462  24.182  0.00  0.00    +0.025 A 
ATOM     13  C   UNL     1      10.162  -0.401  24.576  0.00  0.00    +0.015 A 
ATOM     14  C   UNL     1      10.895   0.780  24.370  0.00  0.00    +0.050 A 
ATOM     15  C   UNL     1      10.294   1.894  23.773  0.00  0.00    +0.159 A 
ATOM     16  C   UNL     1       8.957   1.864  23.378  0.00  0.00    +0.166 A 
ATOM     17  C   UNL     1       8.247   0.669  23.587  0.00  0.00    +0.061 A 
BRANCH  15  18
ATOM     18  O   UNL     1      11.076   2.997  23.565  0.00  0.00    -0.503 OA
ATOM     19  H   UNL     1      11.609   3.102  24.373  0.00  0.00    +0.292 HD
ENDBRANCH  15  18
BRANCH  16  20
ATOM     20  O   UNL     1       8.426   3.015  22.805  0.00  0.00    -0.457 OA
BRANCH  20  21
ATOM     21  C   UNL     1       7.849   3.924  23.767  0.00  0.00    +0.339 C 
ATOM     22  O   UNL     1       6.450   3.650  23.905  0.00  0.00    -0.331 OA
ATOM     23  C   UNL     1       5.682   4.178  22.807  0.00  0.00    +0.179 C 
ATOM     24  C   UNL     1       5.711   5.711  22.913  0.00  0.00    +0.177 C 
ATOM     25  C   UNL     1       7.149   6.182  22.659  0.00  0.00    +0.180 C 
ATOM     26  C   UNL     1       8.153   5.431  23.544  0.00  0.00    +0.214 C 
BRANCH  26  27
ATOM     27  O   UNL     1       9.501   5.654  23.119  0.00  0.00    -0.383 OA
ATOM     28  H   UNL     1       9.884   4.787  22.884  0.00  0.00    +0.210 HD
ENDBRANCH  26  27
BRANCH  25  29
ATOM     29  O   UNL     1       7.511   6.083  21.277  0.00  0.00    -0.386 OA
ATOM     30  H   UNL     1       7.666   6.974  20.923  0.00  0.00    +0.210 HD
ENDBRANCH  25  29
BRANCH  24  31
ATOM     31  O   UNL     1       5.325   6.114  24.234  0.00  0.00    -0.386 OA
ATOM     32  H   UNL     1       5.699   5.481  24.871  0.00  0.00    +0.210 HD
ENDBRANCH  24  31
BRANCH  23  33
ATOM     33  C   UNL     1       4.275   3.567  22.860  0.00  0.00    +0.190 C 
BRANCH  33  34
ATOM     34  O   UNL     1       4.205   2.409  23.682  0.00  0.00    -0.392 OA
ATOM     35  H   UNL     1       5.131   2.157  23.863  0.00  0.00    +0.210 HD
ENDBRANCH  33  34
ENDBRANCH  23  33
ENDBRANCH  20  21
ENDBRANCH  16  20
ENDBRANCH  11  12
BRANCH  10  36
ATOM     36  O   UNL     1       5.098  -5.703  25.213  0.00  0.00    -0.506 OA
ATOM     37  H   UNL     1       4.193  -5.353  25.216  0.00  0.00    +0.292 HD
ENDBRANCH  10  36
BRANCH   7  38
ATOM     38  O   UNL     1       6.253  -6.177  20.661  0.00  0.00    -0.507 OA
ATOM     39  H   UNL     1       5.403  -5.990  20.229  0.00  0.00    +0.292 HD
ENDBRANCH   7  38
BRANCH   1  40
ATOM     40  O   UNL     1       7.746  -1.368  26.626  0.00  0.00    -0.453 OA
BRANCH  40  44
ATOM     41  C   UNL     1       3.568  -0.568  27.445  0.00  0.00    +0.041 C 
ATOM     42  C   UNL     1       4.482   0.328  26.611  0.00  0.00    +0.150 C 
ATOM     43  O   UNL     1       5.661  -0.348  26.148  0.00  0.00    -0.334 OA
ATOM     44  C   UNL     1       6.624  -0.655  27.166  0.00  0.00    +0.339 C 
ATOM     45  C   UNL     1       7.134   0.631  27.840  0.00  0.00    +0.214 C 
ATOM     46  C   UNL     1       5.928   1.385  28.414  0.00  0.00    +0.180 C 
ATOM     47  C   UNL     1       4.860   1.627  27.334  0.00  0.00    +0.174 C 
BRANCH  47  48
ATOM     48  O   UNL     1       5.396   2.567  26.382  0.00  0.00    -0.387 OA
ATOM     49  H   UNL     1       5.458   3.426  26.861  0.00  0.00    +0.210 HD
ENDBRANCH  47  48
BRANCH  46  50
ATOM     50  O   UNL     1       6.372   2.649  28.934  0.00  0.00    -0.386 OA
ATOM     51  H   UNL     1       5.637   2.963  29.502  0.00  0.00    +0.210 HD
ENDBRANCH  46  50
BRANCH  45  52
ATOM     52  O   UNL     1       7.821   1.485  26.901  0.00  0.00    -0.383 OA
ATOM     53  H   UNL     1       8.252   2.166  27.451  0.00  0.00    +0.210 HD
ENDBRANCH  45  52
ENDBRANCH  40  44
ENDBRANCH   1  40
TORSDOF 16
ENDMDL
MODEL 2
REMARK VINA RESULT:      -7.1      2.109      8.055
REMARK  Name = 
REMARK  17 active torsions:
REMARK  status: ('A' for Active; 'I' for Inactive)
REMARK    1  A    between atoms: C_1  and  C_2
REMARK    2  A    between atoms: C_3  and  O_49
REMARK    3  A    between atoms: C_5  and  O_48
REMARK    4  A    between atoms: C_6  and  O_47
REMARK    5  A    between atoms: C_8  and  O_11
REMARK    6  A    between atoms: O_11  and  C_12
REMARK    7  A    between atoms: C_13  and  C_25
REMARK    8  A    between atoms: C_17  and  O_24
REMARK    9  A    between atoms: C_19  and  O_23
REMARK   10  A    between atoms: C_27  and  O_32
REMARK   11  A    between atoms: C_28  and  O_31
REMARK   12  A    between atoms: O_32  and  C_33
REMARK   13  A    between atoms: C_35  and  O_46
REMARK   14  A    between atoms: C_36  and  O_45
REMARK   15  A    between atoms: C_38  and  O_44
REMARK   16  A    between atoms: C_40  and  C_42
REMARK   17  A    between atoms: C_42  and  O_43
REMARK                            x       y       z     vdW  Elec       q    Type
REMARK                         _______ _______ _______ _____ _____    ______ ____
ROOT
ATOM      1  C   UNL     1       8.270   2.812  23.602  0.00  0.00    +0.214 A 
ATOM      2  C   UNL     1       8.703   4.239  23.706  0.00  0.00    +0.238 A 
ATOM      3  O   UNL     1       7.930   5.179  23.559  0.00  0.00    -0.283 OA
ATOM      4  C   UNL     1      10.139   4.508  23.781  0.00  0.00    +0.109 A 
ATOM      5  C   UNL     1      10.994   3.509  23.336  0.00  0.00    +0.147 A 
ATOM      6  C   UNL     1      12.348   3.801  23.131  0.00  0.00    +0.092 A 
ATOM      7  C   UNL     1      12.820   5.085  23.417  0.00  0.00    +0.124 A 
ATOM      8  C   UNL     1      11.983   6.067  23.934  0.00  0.00    +0.091 A 
ATOM      9  O   UNL     1      10.563   2.230  23.042  0.00  0.00    -0.451 OA
ATOM     10  C   UNL     1      10.639   5.774  24.125  0.00  0.00    +0.135 A 
ATOM     11  C   UNL     1       9.225   1.922  23.261  0.00  0.00    +0.181 A 
ENDROOT
BRANCH  11  12
ATOM     12  C   UNL     1       8.867   0.539  22.873  0.00  0.00    +0.025 A 
ATOM     13  C   UNL     1       9.421  -0.141  21.791  0.00  0.00    +0.015 A 
ATOM     14  C   UNL     1       9.071  -1.482  21.559  0.00  0.00    +0.050 A 
ATOM     15  C   UNL     1       8.169  -2.138  22.406  0.00  0.00    +0.159 A 
ATOM     16  C   UNL     1       7.592  -1.478  23.490  0.00  0.00    +0.166 A 
ATOM     17  C   UNL     1       7.965  -0.140  23.707  0.00  0.00    +0.061 A 
BRANCH  15  18
ATOM     18  O   UNL     1       7.903  -3.455  22.146  0.00  0.00    -0.503 OA
ATOM     19  H   UNL     1       7.092  -3.666  22.642  0.00  0.00    +0.292 HD
ENDBRANCH  15  18
BRANCH  16  20
ATOM     20  O   UNL     1       6.694  -2.192  24.277  0.00  0.00    -0.457 OA
BRANCH  20  21
ATOM     21  C   UNL     1       7.218  -2.540  25.576  0.00  0.00    +0.339 C 
ATOM     22  O   UNL     1       8.292  -3.476  25.425  0.00  0.00    -0.331 OA
ATOM     23  C   UNL     1       7.818  -4.808  25.156  0.00  0.00    +0.179 C 
ATOM     24  C   UNL     1       7.133  -5.325  26.431  0.00  0.00    +0.177 C 
ATOM     25  C   UNL     1       5.868  -4.490  26.668  0.00  0.00    +0.180 C 
ATOM     26  C   UNL     1       6.171  -2.986  26.633  0.00  0.00    +0.214 C 
BRANCH  26  27
ATOM     27  O   UNL     1       4.971  -2.207  26.569  0.00  0.00    -0.383 OA
ATOM     28  H   UNL     1       4.728  -1.964  27.483  0.00  0.00    +0.210 HD
ENDBRANCH  26  27
BRANCH  25  29
ATOM     29  O   UNL     1       4.823  -4.823  25.747  0.00  0.00    -0.386 OA
ATOM     30  H   UNL     1       3.966  -4.602  26.145  0.00  0.00    +0.210 HD
ENDBRANCH  25  29
BRANCH  24  31
ATOM     31  O   UNL     1       8.009  -5.156  27.555  0.00  0.00    -0.386 OA
ATOM     32  H   UNL     1       7.882  -5.907  28.160  0.00  0.00    +0.210 HD
ENDBRANCH  24  31
BRANCH  23  33
ATOM     33  C   UNL     1       9.005  -5.661  24.685  0.00  0.00    +0.190 C 
BRANCH  33  34
ATOM     34  O   UNL     1      10.081  -5.672  25.614  0.00  0.00    -0.392 OA
ATOM     35  H   UNL     1      10.895  -5.670  25.074  0.00  0.00    +0.210 HD
ENDBRANCH  33  34
ENDBRANCH  23  33
ENDBRANCH  20  21
ENDBRANCH  16  20
ENDBRANCH  11  12
BRANCH  10  36
ATOM     36  O   UNL     1       9.821   6.729  24.662  0.00  0.00    -0.506 OA
ATOM     37  H   UNL     1       9.439   6.414  25.496  0.00  0.00    +0.292 HD
ENDBRANCH  10  36
BRANCH   7  38
ATOM     38  O   UNL     1      14.120   5.436  23.203  0.00  0.00    -0.507 OA
ATOM     39  H   UNL     1      14.659   5.137  23.954  0.00  0.00    +0.292 HD
ENDBRANCH   7  38
BRANCH   1  40
ATOM     40  O   UNL     1       6.935   2.423  23.699  0.00  0.00    -0.453 OA
BRANCH  40  44
ATOM     41  C   UNL     1       6.474   4.019  27.699  0.00  0.00    +0.041 C 
ATOM     42  C   UNL     1       6.497   2.532  27.349  0.00  0.00    +0.150 C 
ATOM     43  O   UNL     1       7.070   2.268  26.059  0.00  0.00    -0.334 OA
ATOM     44  C   UNL     1       6.270   2.683  24.943  0.00  0.00    +0.339 C 
ATOM     45  C   UNL     1       4.916   1.951  24.941  0.00  0.00    +0.214 C 
ATOM     46  C   UNL     1       4.213   2.236  26.275  0.00  0.00    +0.180 C 
ATOM     47  C   UNL     1       5.116   1.875  27.466  0.00  0.00    +0.174 C 
BRANCH  47  48
ATOM     48  O   UNL     1       5.269   0.441  27.488  0.00  0.00    -0.387 OA
ATOM     49  H   UNL     1       5.189   0.150  26.550  0.00  0.00    +0.210 HD
ENDBRANCH  47  48
BRANCH  46  50
ATOM     50  O   UNL     1       3.006   1.459  26.341  0.00  0.00    -0.386 OA
ATOM     51  H   UNL     1       2.459   1.773  25.591  0.00  0.00    +0.210 HD
ENDBRANCH  46  50
BRANCH  45  52
ATOM     52  O   UNL     1       5.083   0.527  24.790  0.00  0.00    -0.383 OA
ATOM     53  H   UNL     1       5.377   0.214  25.667  0.00  0.00    +0.210 HD
ENDBRANCH  45  52
ENDBRANCH  40  44
ENDBRANCH   1  40
TORSDOF 16
ENDMDL
MODEL 3
REMARK VINA RESULT:      -6.7      1.540      7.508
REMARK  Name = 
REMARK  17 active torsions:
REMARK  status: ('A' for Active; 'I' for Inactive)
REMARK    1  A    between atoms: C_1  and  C_2
REMARK    2  A    between atoms: C_3  and  O_49
REMARK    3  A    between atoms: C_5  and  O_48
REMARK    4  A    between atoms: C_6  and  O_47
REMARK    5  A    between atoms: C_8  and  O_11
REMARK    6  A    between atoms: O_11  and  C_12
REMARK    7  A    between atoms: C_13  and  C_25
REMARK    8  A    between atoms: C_17  and  O_24
REMARK    9  A    between atoms: C_19  and  O_23
REMARK   10  A    between atoms: C_27  and  O_32
REMARK   11  A    between atoms: C_28  and  O_31
REMARK   12  A    between atoms: O_32  and  C_33
REMARK   13  A    between atoms: C_35  and  O_46
REMARK   14  A    between atoms: C_36  and  O_45
REMARK   15  A    between atoms: C_38  and  O_44
REMARK   16  A    between atoms: C_40  and  C_42
REMARK   17  A    between atoms: C_42  and  O_43
REMARK                            x       y       z     vdW  Elec       q    Type
REMARK                         _______ _______ _______ _____ _____    ______ ____
ROOT
ATOM      1  C   UNL     1       7.145   2.383  25.464  0.00  0.00    +0.214 A 
ATOM      2  C   UNL     1       6.297   3.614  25.427  0.00  0.00    +0.238 A 
ATOM      3  O   UNL     1       5.276   3.736  26.096  0.00  0.00    -0.283 OA
ATOM      4  C   UNL     1       6.596   4.612  24.401  0.00  0.00    +0.109 A 
ATOM      5  C   UNL     1       7.329   4.189  23.301  0.00  0.00    +0.147 A 
ATOM      6  C   UNL     1       7.416   5.013  22.173  0.00  0.00    +0.092 A 
ATOM      7  C   UNL     1       6.796   6.266  22.192  0.00  0.00    +0.124 A 
ATOM      8  C   UNL     1       6.125   6.725  23.319  0.00  0.00    +0.091 A 
ATOM      9  O   UNL     1       7.953   2.959  23.246  0.00  0.00    -0.451 OA
ATOM     10  C   UNL     1       6.032   5.898  24.432  0.00  0.00    +0.135 A 
ATOM     11  C   UNL     1       7.891   2.140  24.367  0.00  0.00    +0.181 A 
ENDROOT
BRANCH  11  12
ATOM     12  C   UNL     1       8.559   0.832  24.180  0.00  0.00    +0.025 A 
ATOM     13  C   UNL     1       9.783   0.487  24.749  0.00  0.00    +0.015 A 
ATOM     14  C   UNL     1      10.289  -0.812  24.574  0.00  0.00    +0.050 A 
ATOM     15  C   UNL     1       9.574  -1.760  23.832  0.00  0.00    +0.159 A 
ATOM     16  C   UNL     1       8.352  -1.438  23.243  0.00  0.00    +0.166 A 
ATOM     17  C   UNL     1       7.862  -0.135  23.440  0.00  0.00    +0.061 A 
BRANCH  15  18
ATOM     18  O   UNL     1      10.106  -3.017  23.735  0.00  0.00    -0.503 OA
ATOM     19  H   UNL     1       9.522  -3.508  23.130  0.00  0.00    +0.292 HD
ENDBRANCH  15  18
BRANCH  16  20
ATOM     20  O   UNL     1       7.708  -2.429  22.509  0.00  0.00    -0.457 OA
BRANCH  20  21
ATOM     21  C   UNL     1       6.407  -2.776  23.028  0.00  0.00    +0.339 C 
ATOM     22  O   UNL     1       6.532  -3.204  24.390  0.00  0.00    -0.331 OA
ATOM     23  C   UNL     1       7.035  -4.549  24.492  0.00  0.00    +0.179 C 
ATOM     24  C   UNL     1       5.943  -5.495  23.969  0.00  0.00    +0.177 C 
ATOM     25  C   UNL     1       5.773  -5.246  22.465  0.00  0.00    +0.180 C 
ATOM     26  C   UNL     1       5.569  -3.755  22.161  0.00  0.00    +0.214 C 
BRANCH  26  27
ATOM     27  O   UNL     1       5.693  -3.480  20.761  0.00  0.00    -0.383 OA
ATOM     28  H   UNL     1       4.986  -2.850  20.521  0.00  0.00    +0.210 HD
ENDBRANCH  26  27
BRANCH  25  29
ATOM     29  O   UNL     1       6.862  -5.779  21.704  0.00  0.00    -0.386 OA
ATOM     30  H   UNL     1       7.117  -6.640  22.072  0.00  0.00    +0.210 HD
ENDBRANCH  25  29
BRANCH  24  31
ATOM     31  O   UNL     1       4.699  -5.210  24.623  0.00  0.00    -0.386 OA
ATOM     32  H   UNL     1       4.308  -6.050  24.920  0.00  0.00    +0.210 HD
ENDBRANCH  24  31
BRANCH  23  33
ATOM     33  C   UNL     1       7.448  -4.804  25.949  0.00  0.00    +0.190 C 
BRANCH  33  34
ATOM     34  O   UNL     1       6.548  -4.230  26.887  0.00  0.00    -0.392 OA
ATOM     35  H   UNL     1       5.813  -3.865  26.359  0.00  0.00    +0.210 HD
ENDBRANCH  33  34
ENDBRANCH  23  33
ENDBRANCH  20  21
ENDBRANCH  16  20
ENDBRANCH  11  12
BRANCH  10  36
ATOM     36  O   UNL     1       5.399   6.361  25.552  0.00  0.00    -0.506 OA
ATOM     37  H   UNL     1       6.014   6.382  26.301  0.00  0.00    +0.292 HD
ENDBRANCH  10  36
BRANCH   7  38
ATOM     38  O   UNL     1       6.818   7.095  21.110  0.00  0.00    -0.507 OA
ATOM     39  H   UNL     1       6.898   8.014  21.414  0.00  0.00    +0.292 HD
ENDBRANCH   7  38
BRANCH   1  40
ATOM     40  O   UNL     1       7.069   1.450  26.496  0.00  0.00    -0.453 OA
BRANCH  40  44
ATOM     41  C   UNL     1       3.106   1.191  28.226  0.00  0.00    +0.041 C 
ATOM     42  C   UNL     1       4.252   0.223  28.518  0.00  0.00    +0.150 C 
ATOM     43  O   UNL     1       5.539   0.754  28.166  0.00  0.00    -0.334 OA
ATOM     44  C   UNL     1       5.782   0.871  26.757  0.00  0.00    +0.339 C 
ATOM     45  C   UNL     1       5.715  -0.508  26.076  0.00  0.00    +0.214 C 
ATOM     46  C   UNL     1       4.335  -1.118  26.360  0.00  0.00    +0.180 C 
ATOM     47  C   UNL     1       4.045  -1.152  27.870  0.00  0.00    +0.174 C 
BRANCH  47  48
ATOM     48  O   UNL     1       4.943  -2.105  28.473  0.00  0.00    -0.387 OA
ATOM     49  H   UNL     1       4.619  -2.992  28.191  0.00  0.00    +0.210 HD
ENDBRANCH  47  48
BRANCH  46  50
ATOM     50  O   UNL     1       4.301  -2.456  25.839  0.00  0.00    -0.386 OA
ATOM     51  H   UNL     1       4.261  -3.036  26.628  0.00  0.00    +0.210 HD
ENDBRANCH  46  50
BRANCH  45  52
ATOM     52  O   UNL     1       6.735  -1.397  26.574  0.00  0.00    -0.383 OA
ATOM     53  H   UNL     1       7.474  -0.812  26.830  0.00  0.00    +0.210 HD
ENDBRANCH  45  52
ENDBRANCH  40  44
ENDBRANCH   1  40
TORSDOF 16
ENDMDL
MODEL 4
REMARK VINA RESULT:      -6.6      2.315      4.916
REMARK  Name = 
REMARK  17 active torsions:
REMARK  status: ('A' for Active; 'I' for Inactive)
REMARK    1  A    between atoms: C_1  and  C_2
REMARK    2  A    between atoms: C_3  and  O_49
REMARK    3  A    between atoms: C_5  and  O_48
REMARK    4  A    between atoms: C_6  and  O_47
REMARK    5  A    between atoms: C_8  and  O_11
REMARK    6  A    between atoms: O_11  and  C_12
REMARK    7  A    between atoms: C_13  and  C_25
REMARK    8  A    between atoms: C_17  and  O_24
REMARK    9  A    between atoms: C_19  and  O_23
REMARK   10  A    between atoms: C_27  and  O_32
REMARK   11  A    between atoms: C_28  and  O_31
REMARK   12  A    between atoms: O_32  and  C_33
REMARK   13  A    between atoms: C_35  and  O_46
REMARK   14  A    between atoms: C_36  and  O_45
REMARK   15  A    between atoms: C_38  and  O_44
REMARK   16  A    between atoms: C_40  and  C_42
REMARK   17  A    between atoms: C_42  and  O_43
REMARK                            x       y       z     vdW  Elec       q    Type
REMARK                         _______ _______ _______ _____ _____    ______ ____
ROOT
ATOM      1  C   UNL     1       8.124  -0.919  26.047  0.00  0.00    +0.214 A 
ATOM      2  C   UNL     1       8.555  -2.282  25.606  0.00  0.00    +0.238 A 
ATOM      3  O   UNL     1       9.261  -2.467  24.621  0.00  0.00    -0.283 OA
ATOM      4  C   UNL     1       7.935  -3.434  26.261  0.00  0.00    +0.109 A 
ATOM      5  C   UNL     1       6.730  -3.217  26.914  0.00  0.00    +0.147 A 
ATOM      6  C   UNL     1       5.961  -4.314  27.323  0.00  0.00    +0.092 A 
ATOM      7  C   UNL     1       6.443  -5.607  27.100  0.00  0.00    +0.124 A 
ATOM      8  C   UNL     1       7.685  -5.827  26.515  0.00  0.00    +0.091 A 
ATOM      9  O   UNL     1       6.221  -1.955  27.149  0.00  0.00    -0.451 OA
ATOM     10  C   UNL     1       8.438  -4.735  26.101  0.00  0.00    +0.135 A 
ATOM     11  C   UNL     1       6.985  -0.858  26.766  0.00  0.00    +0.181 A 
ENDROOT
BRANCH  11  12
ATOM     12  C   UNL     1       6.324   0.440  27.029  0.00  0.00    +0.025 A 
ATOM     13  C   UNL     1       6.527   1.207  28.174  0.00  0.00    +0.015 A 
ATOM     14  C   UNL     1       5.912   2.465  28.287  0.00  0.00    +0.050 A 
ATOM     15  C   UNL     1       5.097   2.952  27.259  0.00  0.00    +0.159 A 
ATOM     16  C   UNL     1       4.868   2.202  26.106  0.00  0.00    +0.166 A 
ATOM     17  C   UNL     1       5.502   0.950  26.013  0.00  0.00    +0.061 A 
BRANCH  15  18
ATOM     18  O   UNL     1       4.561   4.202  27.416  0.00  0.00    -0.503 OA
ATOM     19  H   UNL     1       5.307   4.823  27.347  0.00  0.00    +0.292 HD
ENDBRANCH  15  18
BRANCH  16  20
ATOM     20  O   UNL     1       4.035   2.747  25.135  0.00  0.00    -0.457 OA
BRANCH  20  21
ATOM     21  C   UNL     1       4.707   3.025  23.889  0.00  0.00    +0.339 C 
ATOM     22  O   UNL     1       5.804   3.916  24.124  0.00  0.00    -0.331 OA
ATOM     23  C   UNL     1       5.369   5.277  24.300  0.00  0.00    +0.179 C 
ATOM     24  C   UNL     1       4.847   5.778  22.944  0.00  0.00    +0.177 C 
ATOM     25  C   UNL     1       3.575   4.993  22.600  0.00  0.00    +0.180 C 
ATOM     26  C   UNL     1       3.799   3.479  22.713  0.00  0.00    +0.214 C 
BRANCH  26  27
ATOM     27  O   UNL     1       2.563   2.758  22.674  0.00  0.00    -0.383 OA
ATOM     28  H   UNL     1       1.950   3.189  23.300  0.00  0.00    +0.210 HD
ENDBRANCH  26  27
BRANCH  25  29
ATOM     29  O   UNL     1       2.457   5.405  23.394  0.00  0.00    -0.386 OA
ATOM     30  H   UNL     1       2.690   5.334  24.334  0.00  0.00    +0.210 HD
ENDBRANCH  25  29
BRANCH  24  31
ATOM     31  O   UNL     1       5.826   5.530  21.925  0.00  0.00    -0.386 OA
ATOM     32  H   UNL     1       6.190   4.638  22.058  0.00  0.00    +0.210 HD
ENDBRANCH  24  31
BRANCH  23  33
ATOM     33  C   UNL     1       6.540   6.092  24.867  0.00  0.00    +0.190 C 
BRANCH  33  34
ATOM     34  O   UNL     1       7.802   5.666  24.372  0.00  0.00    -0.392 OA
ATOM     35  H   UNL     1       8.329   6.480  24.256  0.00  0.00    +0.210 HD
ENDBRANCH  33  34
ENDBRANCH  23  33
ENDBRANCH  20  21
ENDBRANCH  16  20
ENDBRANCH  11  12
BRANCH  10  36
ATOM     36  O   UNL     1       9.672  -4.949  25.554  0.00  0.00    -0.506 OA
ATOM     37  H   UNL     1      10.305  -5.207  26.242  0.00  0.00    +0.292 HD
ENDBRANCH  10  36
BRANCH   7  38
ATOM     38  O   UNL     1       5.723  -6.711  27.445  0.00  0.00    -0.507 OA
ATOM     39  H   UNL     1       4.820  -6.442  27.682  0.00  0.00    +0.292 HD
ENDBRANCH   7  38
BRANCH   1  40
ATOM     40  O   UNL     1       8.764   0.244  25.624  0.00  0.00    -0.453 OA
BRANCH  40  44
ATOM     41  C   UNL     1       9.427  -0.597  21.427  0.00  0.00    +0.041 C 
ATOM     42  C   UNL     1      10.150   0.486  22.226  0.00  0.00    +0.150 C 
ATOM     43  O   UNL     1      10.067   0.287  23.645  0.00  0.00    -0.334 OA
ATOM     44  C   UNL     1       8.768   0.508  24.214  0.00  0.00    +0.339 C 
ATOM     45  C   UNL     1       8.312   1.960  23.983  0.00  0.00    +0.214 C 
ATOM     46  C   UNL     1       8.320   2.232  22.472  0.00  0.00    +0.180 C 
ATOM     47  C   UNL     1       9.690   1.902  21.856  0.00  0.00    +0.174 C 
BRANCH  47  48
ATOM     48  O   UNL     1      10.643   2.861  22.355  0.00  0.00    -0.387 OA
ATOM     49  H   UNL     1      10.483   3.688  21.844  0.00  0.00    +0.210 HD
ENDBRANCH  47  48
BRANCH  46  50
ATOM     50  O   UNL     1       8.020   3.619  22.247  0.00  0.00    -0.386 OA
ATOM     51  H   UNL     1       8.496   3.852  21.422  0.00  0.00    +0.210 HD
ENDBRANCH  46  50
BRANCH  45  52
ATOM     52  O   UNL     1       9.188   2.901  24.636  0.00  0.00    -0.383 OA
ATOM     53  H   UNL     1      10.089   2.622  24.385  0.00  0.00    +0.210 HD
ENDBRANCH  45  52
ENDBRANCH  40  44
ENDBRANCH   1  40
TORSDOF 16
ENDMDL
MODEL 5
REMARK VINA RESULT:      -6.5      1.746      4.743
REMARK  Name = 
REMARK  17 active torsions:
REMARK  status: ('A' for Active; 'I' for Inactive)
REMARK    1  A    between atoms: C_1  and  C_2
REMARK    2  A    between atoms: C_3  and  O_49
REMARK    3  A    between atoms: C_5  and  O_48
REMARK    4  A    between atoms: C_6  and  O_47
REMARK    5  A    between atoms: C_8  and  O_11
REMARK    6  A    between atoms: O_11  and  C_12
REMARK    7  A    between atoms: C_13  and  C_25
REMARK    8  A    between atoms: C_17  and  O_24
REMARK    9  A    between atoms: C_19  and  O_23
REMARK   10  A    between atoms: C_27  and  O_32
REMARK   11  A    between atoms: C_28  and  O_31
REMARK   12  A    between atoms: O_32  and  C_33
REMARK   13  A    between atoms: C_35  and  O_46
REMARK   14  A    between atoms: C_36  and  O_45
REMARK   15  A    between atoms: C_38  and  O_44
REMARK   16  A    between atoms: C_40  and  C_42
REMARK   17  A    between atoms: C_42  and  O_43
REMARK                            x       y       z     vdW  Elec       q    Type
REMARK                         _______ _______ _______ _____ _____    ______ ____
ROOT
ATOM      1  C   UNL     1       6.035  -1.953  23.674  0.00  0.00    +0.214 A 
ATOM      2  C   UNL     1       5.635  -3.145  22.865  0.00  0.00    +0.238 A 
ATOM      3  O   UNL     1       5.334  -3.069  21.678  0.00  0.00    -0.283 OA
ATOM      4  C   UNL     1       5.402  -4.401  23.577  0.00  0.00    +0.109 A 
ATOM      5  C   UNL     1       5.152  -4.318  24.939  0.00  0.00    +0.147 A 
ATOM      6  C   UNL     1       4.661  -5.440  25.619  0.00  0.00    +0.092 A 
ATOM      7  C   UNL     1       4.469  -6.634  24.917  0.00  0.00    +0.124 A 
ATOM      8  C   UNL     1       4.791  -6.742  23.570  0.00  0.00    +0.091 A 
ATOM      9  O   UNL     1       5.327  -3.156  25.664  0.00  0.00    -0.451 OA
ATOM     10  C   UNL     1       5.267  -5.623  22.898  0.00  0.00    +0.135 A 
ATOM     11  C   UNL     1       5.833  -2.042  25.005  0.00  0.00    +0.181 A 
ENDROOT
BRANCH  11  12
ATOM     12  C   UNL     1       5.940  -0.844  25.869  0.00  0.00    +0.025 A 
ATOM     13  C   UNL     1       6.694  -0.784  27.039  0.00  0.00    +0.015 A 
ATOM     14  C   UNL     1       6.792   0.429  27.742  0.00  0.00    +0.050 A 
ATOM     15  C   UNL     1       6.138   1.575  27.275  0.00  0.00    +0.159 A 
ATOM     16  C   UNL     1       5.368   1.541  26.113  0.00  0.00    +0.166 A 
ATOM     17  C   UNL     1       5.293   0.319  25.423  0.00  0.00    +0.061 A 
BRANCH  15  18
ATOM     18  O   UNL     1       6.309   2.732  27.986  0.00  0.00    -0.503 OA
ATOM     19  H   UNL     1       5.839   2.599  28.829  0.00  0.00    +0.292 HD
ENDBRANCH  15  18
BRANCH  16  20
ATOM     20  O   UNL     1       4.737   2.717  25.721  0.00  0.00    -0.457 OA
BRANCH  20  21
ATOM     21  C   UNL     1       4.302   2.706  24.345  0.00  0.00    +0.339 C 
ATOM     22  O   UNL     1       5.294   3.332  23.523  0.00  0.00    -0.331 OA
ATOM     23  C   UNL     1       5.253   4.768  23.622  0.00  0.00    +0.179 C 
ATOM     24  C   UNL     1       3.952   5.243  22.955  0.00  0.00    +0.177 C 
ATOM     25  C   UNL     1       2.772   4.751  23.802  0.00  0.00    +0.180 C 
ATOM     26  C   UNL     1       2.869   3.245  24.082  0.00  0.00    +0.214 C 
BRANCH  26  27
ATOM     27  O   UNL     1       1.942   2.834  25.093  0.00  0.00    -0.383 OA
ATOM     28  H   UNL     1       1.746   3.614  25.648  0.00  0.00    +0.210 HD
ENDBRANCH  26  27
BRANCH  25  29
ATOM     29  O   UNL     1       2.638   5.490  25.021  0.00  0.00    -0.386 OA
ATOM     30  H   UNL     1       2.548   4.869  25.762  0.00  0.00    +0.210 HD
ENDBRANCH  25  29
BRANCH  24  31
ATOM     31  O   UNL     1       3.842   4.674  21.643  0.00  0.00    -0.386 OA
ATOM     32  H   UNL     1       4.736   4.465  21.322  0.00  0.00    +0.210 HD
ENDBRANCH  24  31
BRANCH  23  33
ATOM     33  C   UNL     1       6.532   5.336  22.989  0.00  0.00    +0.190 C 
BRANCH  33  34
ATOM     34  O   UNL     1       6.971   4.588  21.863  0.00  0.00    -0.392 OA
ATOM     35  H   UNL     1       7.812   5.000  21.584  0.00  0.00    +0.210 HD
ENDBRANCH  33  34
ENDBRANCH  23  33
ENDBRANCH  20  21
ENDBRANCH  16  20
ENDBRANCH  11  12
BRANCH  10  36
ATOM     36  O   UNL     1       5.612  -5.736  21.580  0.00  0.00    -0.506 OA
ATOM     37  H   UNL     1       5.095  -6.439  21.156  0.00  0.00    +0.292 HD
ENDBRANCH  10  36
BRANCH   7  38
ATOM     38  O   UNL     1       3.961  -7.747  25.519  0.00  0.00    -0.507 OA
ATOM     39  H   UNL     1       3.125  -7.989  25.088  0.00  0.00    +0.292 HD
ENDBRANCH   7  38
BRANCH   1  40
ATOM     40  O   UNL     1       6.450  -0.756  23.095  0.00  0.00    -0.453 OA
BRANCH  40  44
ATOM     41  C   UNL     1      10.616  -1.939  22.999  0.00  0.00    +0.041 C 
ATOM     42  C   UNL     1      10.062  -0.752  23.787  0.00  0.00    +0.150 C 
ATOM     43  O   UNL     1       8.643  -0.826  23.990  0.00  0.00    -0.334 OA
ATOM     44  C   UNL     1       7.850  -0.621  22.811  0.00  0.00    +0.339 C 
ATOM     45  C   UNL     1       8.101   0.779  22.222  0.00  0.00    +0.214 C 
ATOM     46  C   UNL     1       9.600   0.913  21.923  0.00  0.00    +0.180 C 
ATOM     47  C   UNL     1      10.445   0.599  23.169  0.00  0.00    +0.174 C 
BRANCH  47  48
ATOM     48  O   UNL     1      10.220   1.647  24.133  0.00  0.00    -0.387 OA
ATOM     49  H   UNL     1       9.898   1.196  24.948  0.00  0.00    +0.210 HD
ENDBRANCH  47  48
BRANCH  46  50
ATOM     50  O   UNL     1       9.871   2.256  21.492  0.00  0.00    -0.386 OA
ATOM     51  H   UNL     1      10.837   2.374  21.614  0.00  0.00    +0.210 HD
ENDBRANCH  46  50
BRANCH  45  52
ATOM     52  O   UNL     1       7.709   1.819  23.141  0.00  0.00    -0.383 OA
ATOM     53  H   UNL     1       7.179   1.365  23.824  0.00  0.00    +0.210 HD
ENDBRANCH  45  52
ENDBRANCH  40  44
ENDBRANCH   1  40
TORSDOF 16
ENDMDL
MODEL 6
REMARK VINA RESULT:      -6.4      1.761      2.577
REMARK  Name = 
REMARK  17 active torsions:
REMARK  status: ('A' for Active; 'I' for Inactive)
REMARK    1  A    between atoms: C_1  and  C_2
REMARK    2  A    between atoms: C_3  and  O_49
REMARK    3  A    between atoms: C_5  and  O_48
REMARK    4  A    between atoms: C_6  and  O_47
REMARK    5  A    between atoms: C_8  and  O_11
REMARK    6  A    between atoms: O_11  and  C_12
REMARK    7  A    between atoms: C_13  and  C_25
REMARK    8  A    between atoms: C_17  and  O_24
REMARK    9  A    between atoms: C_19  and  O_23
REMARK   10  A    between atoms: C_27  and  O_32
REMARK   11  A    between atoms: C_28  and  O_31
REMARK   12  A    between atoms: O_32  and  C_33
REMARK   13  A    between atoms: C_35  and  O_46
REMARK   14  A    between atoms: C_36  and  O_45
REMARK   15  A    between atoms: C_38  and  O_44
REMARK   16  A    between atoms: C_40  and  C_42
REMARK   17  A    between atoms: C_42  and  O_43
REMARK                            x       y       z     vdW  Elec       q    Type
REMARK                         _______ _______ _______ _____ _____    ______ ____
ROOT
ATOM      1  C   UNL     1       6.628  -2.501  25.422  0.00  0.00    +0.214 A 
ATOM      2  C   UNL     1       6.000  -3.742  25.970  0.00  0.00    +0.238 A 
ATOM      3  O   UNL     1       6.370  -4.267  27.014  0.00  0.00    -0.283 OA
ATOM      4  C   UNL     1       5.051  -4.456  25.116  0.00  0.00    +0.109 A 
ATOM      5  C   UNL     1       5.111  -4.201  23.753  0.00  0.00    +0.147 A 
ATOM      6  C   UNL     1       4.426  -5.038  22.864  0.00  0.00    +0.092 A 
ATOM      7  C   UNL     1       3.661  -6.092  23.371  0.00  0.00    +0.124 A 
ATOM      8  C   UNL     1       3.536  -6.305  24.739  0.00  0.00    +0.091 A 
ATOM      9  O   UNL     1       5.858  -3.171  23.216  0.00  0.00    -0.451 OA
ATOM     10  C   UNL     1       4.228  -5.478  25.615  0.00  0.00    +0.135 A 
ATOM     11  C   UNL     1       6.526  -2.320  24.089  0.00  0.00    +0.181 A 
ENDROOT
BRANCH  11  12
ATOM     12  C   UNL     1       7.325  -1.280  23.403  0.00  0.00    +0.025 A 
ATOM     13  C   UNL     1       8.321  -1.546  22.466  0.00  0.00    +0.015 A 
ATOM     14  C   UNL     1       8.964  -0.481  21.813  0.00  0.00    +0.050 A 
ATOM     15  C   UNL     1       8.613   0.844  22.098  0.00  0.00    +0.159 A 
ATOM     16  C   UNL     1       7.627   1.139  23.039  0.00  0.00    +0.166 A 
ATOM     17  C   UNL     1       6.992   0.056  23.672  0.00  0.00    +0.061 A 
BRANCH  15  18
ATOM     18  O   UNL     1       9.250   1.831  21.398  0.00  0.00    -0.503 OA
ATOM     19  H   UNL     1      10.039   2.063  21.920  0.00  0.00    +0.292 HD
ENDBRANCH  15  18
BRANCH  16  20
ATOM     20  O   UNL     1       7.343   2.479  23.279  0.00  0.00    -0.457 OA
BRANCH  20  21
ATOM     21  C   UNL     1       6.245   2.986  22.492  0.00  0.00    +0.339 C 
ATOM     22  O   UNL     1       6.654   4.174  21.806  0.00  0.00    -0.331 OA
ATOM     23  C   UNL     1       6.681   5.322  22.676  0.00  0.00    +0.179 C 
ATOM     24  C   UNL     1       5.227   5.660  23.044  0.00  0.00    +0.177 C 
ATOM     25  C   UNL     1       4.672   4.518  23.904  0.00  0.00    +0.180 C 
ATOM     26  C   UNL     1       4.894   3.152  23.240  0.00  0.00    +0.214 C 
BRANCH  26  27
ATOM     27  O   UNL     1       4.641   2.075  24.148  0.00  0.00    -0.383 OA
ATOM     28  H   UNL     1       4.169   2.445  24.920  0.00  0.00    +0.210 HD
ENDBRANCH  26  27
BRANCH  25  29
ATOM     29  O   UNL     1       5.209   4.534  25.232  0.00  0.00    -0.386 OA
ATOM     30  H   UNL     1       5.099   3.656  25.631  0.00  0.00    +0.210 HD
ENDBRANCH  25  29
BRANCH  24  31
ATOM     31  O   UNL     1       4.435   5.760  21.852  0.00  0.00    -0.386 OA
ATOM     32  H   UNL     1       4.770   5.118  21.204  0.00  0.00    +0.210 HD
ENDBRANCH  24  31
BRANCH  23  33
ATOM     33  C   UNL     1       7.433   6.455  21.964  0.00  0.00    +0.190 C 
BRANCH  33  34
ATOM     34  O   UNL     1       6.652   7.094  20.963  0.00  0.00    -0.392 OA
ATOM     35  H   UNL     1       7.147   7.900  20.717  0.00  0.00    +0.210 HD
ENDBRANCH  33  34
ENDBRANCH  23  33
ENDBRANCH  20  21
ENDBRANCH  16  20
ENDBRANCH  11  12
BRANCH  10  36
ATOM     36  O   UNL     1       4.082  -5.667  26.961  0.00  0.00    -0.506 OA
ATOM     37  H   UNL     1       3.189  -5.989  27.161  0.00  0.00    +0.292 HD
ENDBRANCH  10  36
BRANCH   7  38
ATOM     38  O   UNL     1       3.001  -6.960  22.552  0.00  0.00    -0.507 OA
ATOM     39  H   UNL     1       3.313  -7.863  22.727  0.00  0.00    +0.292 HD
ENDBRANCH   7  38
BRANCH   1  40
ATOM     40  O   UNL     1       7.407  -1.647  26.200  0.00  0.00    -0.453 OA
BRANCH  40  44
ATOM     41  C   UNL     1       4.099  -0.428  28.716  0.00  0.00    +0.041 C 
ATOM     42  C   UNL     1       4.718   0.427  27.611  0.00  0.00    +0.150 C 
ATOM     43  O   UNL     1       5.489  -0.339  26.673  0.00  0.00    -0.334 OA
ATOM     44  C   UNL     1       6.725  -0.860  27.185  0.00  0.00    +0.339 C 
ATOM     45  C   UNL     1       7.653   0.284  27.633  0.00  0.00    +0.214 C 
ATOM     46  C   UNL     1       6.914   1.120  28.686  0.00  0.00    +0.180 C 
ATOM     47  C   UNL     1       5.549   1.594  28.160  0.00  0.00    +0.174 C 
BRANCH  47  48
ATOM     48  O   UNL     1       5.786   2.549  27.107  0.00  0.00    -0.387 OA
ATOM     49  H   UNL     1       6.600   3.040  27.371  0.00  0.00    +0.210 HD
ENDBRANCH  47  48
BRANCH  46  50
ATOM     50  O   UNL     1       7.717   2.263  29.021  0.00  0.00    -0.386 OA
ATOM     51  H   UNL     1       7.094   3.020  29.024  0.00  0.00    +0.210 HD
ENDBRANCH  46  50
BRANCH  45  52
ATOM     52  O   UNL     1       8.018   1.134  26.527  0.00  0.00    -0.383 OA
ATOM     53  H   UNL     1       7.653   0.691  25.738  0.00  0.00    +0.210 HD
ENDBRANCH  45  52
ENDBRANCH  40  44
ENDBRANCH   1  40
TORSDOF 16
ENDMDL
MODEL 7
REMARK VINA RESULT:      -6.4      1.821      4.457
REMARK  Name = 
REMARK  17 active torsions:
REMARK  status: ('A' for Active; 'I' for Inactive)
REMARK    1  A    between atoms: C_1  and  C_2
REMARK    2  A    between atoms: C_3  and  O_49
REMARK    3  A    between atoms: C_5  and  O_48
REMARK    4  A    between atoms: C_6  and  O_47
REMARK    5  A    between atoms: C_8  and  O_11
REMARK    6  A    between atoms: O_11  and  C_12
REMARK    7  A    between atoms: C_13  and  C_25
REMARK    8  A    between atoms: C_17  and  O_24
REMARK    9  A    between atoms: C_19  and  O_23
REMARK   10  A    between atoms: C_27  and  O_32
REMARK   11  A    between atoms: C_28  and  O_31
REMARK   12  A    between atoms: O_32  and  C_33
REMARK   13  A    between atoms: C_35  and  O_46
REMARK   14  A    between atoms: C_36  and  O_45
REMARK   15  A    between atoms: C_38  and  O_44
REMARK   16  A    between atoms: C_40  and  C_42
REMARK   17  A    between atoms: C_42  and  O_43
REMARK                            x       y       z     vdW  Elec       q    Type
REMARK                         _______ _______ _______ _____ _____    ______ ____
ROOT
ATOM      1  C   UNL     1       6.464  -2.722  25.105  0.00  0.00    +0.214 A 
ATOM      2  C   UNL     1       6.321  -3.830  24.110  0.00  0.00    +0.238 A 
ATOM      3  O   UNL     1       7.196  -4.106  23.297  0.00  0.00    -0.283 OA
ATOM      4  C   UNL     1       5.008  -4.460  23.980  0.00  0.00    +0.109 A 
ATOM      5  C   UNL     1       3.915  -3.745  24.448  0.00  0.00    +0.147 A 
ATOM      6  C   UNL     1       2.622  -4.166  24.114  0.00  0.00    +0.092 A 
ATOM      7  C   UNL     1       2.457  -5.324  23.348  0.00  0.00    +0.124 A 
ATOM      8  C   UNL     1       3.546  -6.085  22.942  0.00  0.00    +0.091 A 
ATOM      9  O   UNL     1       4.039  -2.596  25.204  0.00  0.00    -0.451 OA
ATOM     10  C   UNL     1       4.827  -5.656  23.267  0.00  0.00    +0.135 A 
ATOM     11  C   UNL     1       5.316  -2.179  25.560  0.00  0.00    +0.181 A 
ENDROOT
BRANCH  11  12
ATOM     12  C   UNL     1       5.330  -0.917  26.334  0.00  0.00    +0.025 A 
ATOM     13  C   UNL     1       5.603  -0.836  27.697  0.00  0.00    +0.015 A 
ATOM     14  C   UNL     1       5.672   0.423  28.319  0.00  0.00    +0.050 A 
ATOM     15  C   UNL     1       5.467   1.593  27.578  0.00  0.00    +0.159 A 
ATOM     16  C   UNL     1       5.182   1.540  26.215  0.00  0.00    +0.166 A 
ATOM     17  C   UNL     1       5.128   0.270  25.614  0.00  0.00    +0.061 A 
BRANCH  15  18
ATOM     18  O   UNL     1       5.587   2.786  28.238  0.00  0.00    -0.503 OA
ATOM     19  H   UNL     1       4.871   3.352  27.899  0.00  0.00    +0.292 HD
ENDBRANCH  15  18
BRANCH  16  20
ATOM     20  O   UNL     1       4.976   2.744  25.550  0.00  0.00    -0.457 OA
BRANCH  20  21
ATOM     21  C   UNL     1       5.512   2.762  24.210  0.00  0.00    +0.339 C 
ATOM     22  O   UNL     1       6.749   3.483  24.198  0.00  0.00    -0.331 OA
ATOM     23  C   UNL     1       6.547   4.909  24.235  0.00  0.00    +0.179 C 
ATOM     24  C   UNL     1       5.930   5.326  22.890  0.00  0.00    +0.177 C 
ATOM     25  C   UNL     1       4.522   4.725  22.802  0.00  0.00    +0.180 C 
ATOM     26  C   UNL     1       4.533   3.218  23.094  0.00  0.00    +0.214 C 
BRANCH  26  27
ATOM     27  O   UNL     1       3.210   2.709  23.292  0.00  0.00    -0.383 OA
ATOM     28  H   UNL     1       2.595   3.286  22.799  0.00  0.00    +0.210 HD
ENDBRANCH  26  27
BRANCH  25  29
ATOM     29  O   UNL     1       3.592   5.404  23.653  0.00  0.00    -0.386 OA
ATOM     30  H   UNL     1       2.694   5.281  23.306  0.00  0.00    +0.210 HD
ENDBRANCH  25  29
BRANCH  24  31
ATOM     31  O   UNL     1       6.718   4.805  21.811  0.00  0.00    -0.386 OA
ATOM     32  H   UNL     1       7.079   5.553  21.304  0.00  0.00    +0.210 HD
ENDBRANCH  24  31
BRANCH  23  33
ATOM     33  C   UNL     1       7.890   5.582  24.551  0.00  0.00    +0.190 C 
BRANCH  33  34
ATOM     34  O   UNL     1       8.970   5.043  23.799  0.00  0.00    -0.392 OA
ATOM     35  H   UNL     1       8.566   4.412  23.173  0.00  0.00    +0.210 HD
ENDBRANCH  33  34
ENDBRANCH  23  33
ENDBRANCH  20  21
ENDBRANCH  16  20
ENDBRANCH  11  12
BRANCH  10  36
ATOM     36  O   UNL     1       5.898  -6.420  22.895  0.00  0.00    -0.506 OA
ATOM     37  H   UNL     1       5.608  -7.151  22.327  0.00  0.00    +0.292 HD
ENDBRANCH  10  36
BRANCH   7  38
ATOM     38  O   UNL     1       1.224  -5.761  22.964  0.00  0.00    -0.507 OA
ATOM     39  H   UNL     1       1.283  -6.135  22.069  0.00  0.00    +0.292 HD
ENDBRANCH   7  38
BRANCH   1  40
ATOM     40  O   UNL     1       7.697  -2.167  25.439  0.00  0.00    -0.453 OA
BRANCH  40  44
ATOM     41  C   UNL     1       9.435  -0.933  21.668  0.00  0.00    +0.041 C 
ATOM     42  C   UNL     1      10.165  -0.927  23.010  0.00  0.00    +0.150 C 
ATOM     43  O   UNL     1       9.532  -1.756  23.998  0.00  0.00    -0.334 OA
ATOM     44  C   UNL     1       8.280  -1.260  24.494  0.00  0.00    +0.339 C 
ATOM     45  C   UNL     1       8.468   0.108  25.174  0.00  0.00    +0.214 C 
ATOM     46  C   UNL     1       9.091   1.072  24.156  0.00  0.00    +0.180 C 
ATOM     47  C   UNL     1      10.384   0.488  23.560  0.00  0.00    +0.174 C 
BRANCH  47  48
ATOM     48  O   UNL     1      11.375   0.448  24.606  0.00  0.00    -0.387 OA
ATOM     49  H   UNL     1      11.591   1.389  24.806  0.00  0.00    +0.210 HD
ENDBRANCH  47  48
BRANCH  46  50
ATOM     50  O   UNL     1       9.389   2.314  24.811  0.00  0.00    -0.386 OA
ATOM     51  H   UNL     1       9.789   2.061  25.669  0.00  0.00    +0.210 HD
ENDBRANCH  46  50
BRANCH  45  52
ATOM     52  O   UNL     1       9.332   0.014  26.325  0.00  0.00    -0.383 OA
ATOM     53  H   UNL     1       9.519  -0.939  26.422  0.00  0.00    +0.210 HD
ENDBRANCH  45  52
ENDBRANCH  40  44
ENDBRANCH   1  40
TORSDOF 16
ENDMDL
MODEL 8
REMARK VINA RESULT:      -6.4      2.434      8.763
REMARK  Name = 
REMARK  17 active torsions:
REMARK  status: ('A' for Active; 'I' for Inactive)
REMARK    1  A    between atoms: C_1  and  C_2
REMARK    2  A    between atoms: C_3  and  O_49
REMARK    3  A    between atoms: C_5  and  O_48
REMARK    4  A    between atoms: C_6  and  O_47
REMARK    5  A    between atoms: C_8  and  O_11
REMARK    6  A    between atoms: O_11  and  C_12
REMARK    7  A    between atoms: C_13  and  C_25
REMARK    8  A    between atoms: C_17  and  O_24
REMARK    9  A    between atoms: C_19  and  O_23
REMARK   10  A    between atoms: C_27  and  O_32
REMARK   11  A    between atoms: C_28  and  O_31
REMARK   12  A    between atoms: O_32  and  C_33
REMARK   13  A    between atoms: C_35  and  O_46
REMARK   14  A    between atoms: C_36  and  O_45
REMARK   15  A    between atoms: C_38  and  O_44
REMARK   16  A    between atoms: C_40  and  C_42
REMARK   17  A    between atoms: C_42  and  O_43
REMARK                            x       y       z     vdW  Elec       q    Type
REMARK                         _______ _______ _______ _____ _____    ______ ____
ROOT
ATOM      1  C   UNL     1       7.356  -0.104  25.211  0.00  0.00    +0.214 A 
ATOM      2  C   UNL     1       8.118   0.865  24.365  0.00  0.00    +0.238 A 
ATOM      3  O   UNL     1       9.341   0.947  24.389  0.00  0.00    -0.283 OA
ATOM      4  C   UNL     1       7.353   1.881  23.643  0.00  0.00    +0.109 A 
ATOM      5  C   UNL     1       6.071   2.152  24.100  0.00  0.00    +0.147 A 
ATOM      6  C   UNL     1       5.397   3.286  23.631  0.00  0.00    +0.092 A 
ATOM      7  C   UNL     1       6.014   4.102  22.679  0.00  0.00    +0.124 A 
ATOM      8  C   UNL     1       7.267   3.793  22.161  0.00  0.00    +0.091 A 
ATOM      9  O   UNL     1       5.431   1.370  25.041  0.00  0.00    -0.451 OA
ATOM     10  C   UNL     1       7.935   2.673  22.639  0.00  0.00    +0.135 A 
ATOM     11  C   UNL     1       6.081   0.230  25.499  0.00  0.00    +0.181 A 
ENDROOT
BRANCH  11  12
ATOM     12  C   UNL     1       5.320  -0.508  26.533  0.00  0.00    +0.025 A 
ATOM     13  C   UNL     1       5.245  -0.129  27.872  0.00  0.00    +0.015 A 
ATOM     14  C   UNL     1       4.427  -0.855  28.755  0.00  0.00    +0.050 A 
ATOM     15  C   UNL     1       3.690  -1.955  28.299  0.00  0.00    +0.159 A 
ATOM     16  C   UNL     1       3.756  -2.362  26.967  0.00  0.00    +0.166 A 
ATOM     17  C   UNL     1       4.573  -1.614  26.102  0.00  0.00    +0.061 A 
BRANCH  15  18
ATOM     18  O   UNL     1       2.884  -2.592  29.203  0.00  0.00    -0.503 OA
ATOM     19  H   UNL     1       3.373  -3.386  29.484  0.00  0.00    +0.292 HD
ENDBRANCH  15  18
BRANCH  16  20
ATOM     20  O   UNL     1       3.006  -3.473  26.593  0.00  0.00    -0.457 OA
BRANCH  20  21
ATOM     21  C   UNL     1       3.714  -4.721  26.741  0.00  0.00    +0.339 C 
ATOM     22  O   UNL     1       4.215  -5.142  25.466  0.00  0.00    -0.331 OA
ATOM     23  C   UNL     1       3.185  -5.717  24.640  0.00  0.00    +0.179 C 
ATOM     24  C   UNL     1       2.776  -7.057  25.272  0.00  0.00    +0.177 C 
ATOM     25  C   UNL     1       2.096  -6.767  26.616  0.00  0.00    +0.180 C 
ATOM     26  C   UNL     1       2.955  -5.847  27.495  0.00  0.00    +0.214 C 
BRANCH  26  27
ATOM     27  O   UNL     1       2.217  -5.346  28.614  0.00  0.00    -0.383 OA
ATOM     28  H   UNL     1       2.692  -4.563  28.955  0.00  0.00    +0.210 HD
ENDBRANCH  26  27
BRANCH  25  29
ATOM     29  O   UNL     1       0.779  -6.230  26.448  0.00  0.00    -0.386 OA
ATOM     30  H   UNL     1       0.783  -5.599  25.711  0.00  0.00    +0.210 HD
ENDBRANCH  25  29
BRANCH  24  31
ATOM     31  O   UNL     1       3.942  -7.856  25.514  0.00  0.00    -0.386 OA
ATOM     32  H   UNL     1       3.804  -8.732  25.113  0.00  0.00    +0.210 HD
ENDBRANCH  24  31
BRANCH  23  33
ATOM     33  C   UNL     1       3.718  -5.830  23.206  0.00  0.00    +0.190 C 
BRANCH  33  34
ATOM     34  O   UNL     1       4.856  -6.676  23.104  0.00  0.00    -0.392 OA
ATOM     35  H   UNL     1       5.161  -6.820  24.021  0.00  0.00    +0.210 HD
ENDBRANCH  33  34
ENDBRANCH  23  33
ENDBRANCH  20  21
ENDBRANCH  16  20
ENDBRANCH  11  12
BRANCH  10  36
ATOM     36  O   UNL     1       9.154   2.350  22.109  0.00  0.00    -0.506 OA
ATOM     37  H   UNL     1       9.151   2.492  21.150  0.00  0.00    +0.292 HD
ENDBRANCH  10  36
BRANCH   7  38
ATOM     38  O   UNL     1       5.420   5.237  22.212  0.00  0.00    -0.507 OA
ATOM     39  H   UNL     1       6.093   5.802  21.798  0.00  0.00    +0.292 HD
ENDBRANCH   7  38
BRANCH   1  40
ATOM     40  O   UNL     1       7.953  -1.216  25.802  0.00  0.00    -0.453 OA
BRANCH  40  44
ATOM     41  C   UNL     1       7.717  -3.601  22.195  0.00  0.00    +0.041 C 
ATOM     42  C   UNL     1       7.060  -3.962  23.525  0.00  0.00    +0.150 C 
ATOM     43  O   UNL     1       6.932  -2.840  24.412  0.00  0.00    -0.334 OA
ATOM     44  C   UNL     1       8.166  -2.362  24.967  0.00  0.00    +0.339 C 
ATOM     45  C   UNL     1       8.850  -3.460  25.801  0.00  0.00    +0.214 C 
ATOM     46  C   UNL     1       9.074  -4.681  24.899  0.00  0.00    +0.180 C 
ATOM     47  C   UNL     1       7.761  -5.128  24.235  0.00  0.00    +0.174 C 
BRANCH  47  48
ATOM     48  O   UNL     1       6.898  -5.650  25.265  0.00  0.00    -0.387 OA
ATOM     49  H   UNL     1       6.366  -4.883  25.582  0.00  0.00    +0.210 HD
ENDBRANCH  47  48
BRANCH  46  50
ATOM     50  O   UNL     1       9.595  -5.759  25.694  0.00  0.00    -0.386 OA
ATOM     51  H   UNL     1      10.215  -6.235  25.102  0.00  0.00    +0.210 HD
ENDBRANCH  46  50
BRANCH  45  52
ATOM     52  O   UNL     1       8.041  -3.850  26.930  0.00  0.00    -0.383 OA
ATOM     53  H   UNL     1       7.294  -4.345  26.545  0.00  0.00    +0.210 HD
ENDBRANCH  45  52
ENDBRANCH  40  44
ENDBRANCH   1  40
TORSDOF 16
ENDMDL
MODEL 9
REMARK VINA RESULT:      -6.2      1.689      4.371
REMARK  Name = 
REMARK  17 active torsions:
REMARK  status: ('A' for Active; 'I' for Inactive)
REMARK    1  A    between atoms: C_1  and  C_2
REMARK    2  A    between atoms: C_3  and  O_49
REMARK    3  A    between atoms: C_5  and  O_48
REMARK    4  A    between atoms: C_6  and  O_47
REMARK    5  A    between atoms: C_8  and  O_11
REMARK    6  A    between atoms: O_11  and  C_12
REMARK    7  A    between atoms: C_13  and  C_25
REMARK    8  A    between atoms: C_17  and  O_24
REMARK    9  A    between atoms: C_19  and  O_23
REMARK   10  A    between atoms: C_27  and  O_32
REMARK   11  A    between atoms: C_28  and  O_31
REMARK   12  A    between atoms: O_32  and  C_33
REMARK   13  A    between atoms: C_35  and  O_46
REMARK   14  A    between atoms: C_36  and  O_45
REMARK   15  A    between atoms: C_38  and  O_44
REMARK   16  A    between atoms: C_40  and  C_42
REMARK   17  A    between atoms: C_42  and  O_43
REMARK                            x       y       z     vdW  Elec       q    Type
REMARK                         _______ _______ _______ _____ _____    ______ ____
ROOT
ATOM      1  C   UNL     1       7.316  -2.148  24.450  0.00  0.00    +0.214 A 
ATOM      2  C   UNL     1       7.384  -3.240  23.431  0.00  0.00    +0.238 A 
ATOM      3  O   UNL     1       8.232  -3.268  22.545  0.00  0.00    -0.283 OA
ATOM      4  C   UNL     1       6.271  -4.187  23.377  0.00  0.00    +0.109 A 
ATOM      5  C   UNL     1       5.071  -3.787  23.949  0.00  0.00    +0.147 A 
ATOM      6  C   UNL     1       3.908  -4.525  23.697  0.00  0.00    +0.092 A 
ATOM      7  C   UNL     1       3.986  -5.675  22.906  0.00  0.00    +0.124 A 
ATOM      8  C   UNL     1       5.198  -6.121  22.394  0.00  0.00    +0.091 A 
ATOM      9  O   UNL     1       4.956  -2.657  24.733  0.00  0.00    -0.451 OA
ATOM     10  C   UNL     1       6.347  -5.379  22.638  0.00  0.00    +0.135 A 
ATOM     11  C   UNL     1       6.107  -1.928  25.007  0.00  0.00    +0.181 A 
ENDROOT
BRANCH  11  12
ATOM     12  C   UNL     1       5.859  -0.717  25.822  0.00  0.00    +0.025 A 
ATOM     13  C   UNL     1       6.247  -0.571  27.151  0.00  0.00    +0.015 A 
ATOM     14  C   UNL     1       6.034   0.653  27.808  0.00  0.00    +0.050 A 
ATOM     15  C   UNL     1       5.434   1.725  27.137  0.00  0.00    +0.159 A 
ATOM     16  C   UNL     1       5.026   1.603  25.809  0.00  0.00    +0.166 A 
ATOM     17  C   UNL     1       5.258   0.372  25.171  0.00  0.00    +0.061 A 
BRANCH  15  18
ATOM     18  O   UNL     1       5.293   2.900  27.823  0.00  0.00    -0.503 OA
ATOM     19  H   UNL     1       5.342   3.607  27.156  0.00  0.00    +0.292 HD
ENDBRANCH  15  18
BRANCH  16  20
ATOM     20  O   UNL     1       4.424   2.707  25.214  0.00  0.00    -0.457 OA
BRANCH  20  21
ATOM     21  C   UNL     1       5.047   3.105  23.975  0.00  0.00    +0.339 C 
ATOM     22  O   UNL     1       6.060   4.083  24.239  0.00  0.00    -0.331 OA
ATOM     23  C   UNL     1       5.503   5.388  24.485  0.00  0.00    +0.179 C 
ATOM     24  C   UNL     1       4.914   5.900  23.161  0.00  0.00    +0.177 C 
ATOM     25  C   UNL     1       3.715   5.016  22.796  0.00  0.00    +0.180 C 
ATOM     26  C   UNL     1       4.081   3.526  22.834  0.00  0.00    +0.214 C 
BRANCH  26  27
ATOM     27  O   UNL     1       2.918   2.694  22.775  0.00  0.00    -0.383 OA
ATOM     28  H   UNL     1       2.426   2.816  23.610  0.00  0.00    +0.210 HD
ENDBRANCH  26  27
BRANCH  25  29
ATOM     29  O   UNL     1       2.577   5.284  23.622  0.00  0.00    -0.386 OA
ATOM     30  H   UNL     1       2.409   4.516  24.192  0.00  0.00    +0.210 HD
ENDBRANCH  25  29
BRANCH  24  31
ATOM     31  O   UNL     1       5.895   5.793  22.120  0.00  0.00    -0.386 OA
ATOM     32  H   UNL     1       5.530   5.240  21.408  0.00  0.00    +0.210 HD
ENDBRANCH  24  31
BRANCH  23  33
ATOM     33  C   UNL     1       6.602   6.282  25.077  0.00  0.00    +0.190 C 
BRANCH  33  34
ATOM     34  O   UNL     1       7.879   6.042  24.502  0.00  0.00    -0.392 OA
ATOM     35  H   UNL     1       8.479   6.699  24.906  0.00  0.00    +0.210 HD
ENDBRANCH  33  34
ENDBRANCH  23  33
ENDBRANCH  20  21
ENDBRANCH  16  20
ENDBRANCH  11  12
BRANCH  10  36
ATOM     36  O   UNL     1       7.545  -5.834  22.161  0.00  0.00    -0.506 OA
ATOM     37  H   UNL     1       8.216  -5.813  22.860  0.00  0.00    +0.292 HD
ENDBRANCH  10  36
BRANCH   7  38
ATOM     38  O   UNL     1       2.881  -6.411  22.599  0.00  0.00    -0.507 OA
ATOM     39  H   UNL     1       2.415  -6.644  23.419  0.00  0.00    +0.292 HD
ENDBRANCH   7  38
BRANCH   1  40
ATOM     40  O   UNL     1       8.387  -1.297  24.711  0.00  0.00    -0.453 OA
BRANCH  40  44
ATOM     41  C   UNL     1       8.839   0.816  20.957  0.00  0.00    +0.041 C 
ATOM     42  C   UNL     1       9.883   0.783  22.072  0.00  0.00    +0.150 C 
ATOM     43  O   UNL     1       9.682  -0.296  22.997  0.00  0.00    -0.334 OA
ATOM     44  C   UNL     1       8.538  -0.158  23.852  0.00  0.00    +0.339 C 
ATOM     45  C   UNL     1       8.659   1.105  24.725  0.00  0.00    +0.214 C 
ATOM     46  C   UNL     1       8.820   2.317  23.797  0.00  0.00    +0.180 C 
ATOM     47  C   UNL     1       9.991   2.118  22.821  0.00  0.00    +0.174 C 
BRANCH  47  48
ATOM     48  O   UNL     1      11.214   2.139  23.585  0.00  0.00    -0.387 OA
ATOM     49  H   UNL     1      10.937   2.160  24.531  0.00  0.00    +0.210 HD
ENDBRANCH  47  48
BRANCH  46  50
ATOM     50  O   UNL     1       9.061   3.486  24.596  0.00  0.00    -0.386 OA
ATOM     51  H   UNL     1       9.465   4.135  23.983  0.00  0.00    +0.210 HD
ENDBRANCH  46  50
BRANCH  45  52
ATOM     52  O   UNL     1       9.798   1.032  25.607  0.00  0.00    -0.383 OA
ATOM     53  H   UNL     1      10.413   1.715  25.280  0.00  0.00    +0.210 HD
ENDBRANCH  45  52
ENDBRANCH  40  44
ENDBRANCH   1  40
TORSDOF 16
ENDMDL
