MODEL 1
REMARK VINA RESULT:      -7.5      0.000      0.000
REMARK  Name = 
REMARK  16 active torsions:
REMARK  status: ('A' for Active; 'I' for Inactive)
REMARK    1  A    between atoms: C_2  and  O_42
REMARK    2  A    between atoms: C_3  and  O_41
REMARK    3  A    between atoms: C_4  and  O_40
REMARK    4  A    between atoms: C_5  and  O_7
REMARK    5  A    between atoms: O_7  and  C_8
REMARK    6  A    between atoms: C_10  and  O_39
REMARK    7  A    between atoms: C_15  and  C_31
REMARK    8  A    between atoms: C_16  and  O_19
REMARK    9  A    between atoms: O_19  and  C_20
REMARK   10  A    between atoms: C_21  and  O_30
REMARK   11  A    between atoms: C_22  and  O_29
REMARK   12  A    between atoms: C_23  and  O_28
REMARK   13  A    between atoms: C_24  and  C_26
REMARK   14  A    between atoms: C_26  and  O_27
REMARK   15  A    between atoms: C_33  and  O_38
REMARK   16  A    between atoms: C_34  and  O_37
REMARK                            x       y       z     vdW  Elec       q    Type
REMARK                         _______ _______ _______ _____ _____    ______ ____
ROOT
ATOM      1  C   UNL     1       8.511   2.538  23.558  0.00  0.00    +0.131 A 
ATOM      2  C   UNL     1       8.164   1.286  23.046  0.00  0.00    +0.093 A 
ATOM      3  C   UNL     1       7.317   0.443  23.775  0.00  0.00    +0.147 A 
ATOM      4  O   UNL     1       6.953  -0.748  23.197  0.00  0.00    -0.451 OA
ATOM      5  C   UNL     1       6.337  -1.713  23.990  0.00  0.00    +0.181 A 
ATOM      6  C   UNL     1       5.900  -1.481  25.252  0.00  0.00    +0.214 A 
ATOM      7  C   UNL     1       5.893  -0.054  25.692  0.00  0.00    +0.238 A 
ATOM      8  O   UNL     1       5.092   0.375  26.510  0.00  0.00    -0.283 OA
ATOM      9  C   UNL     1       6.846   0.840  25.020  0.00  0.00    +0.109 A 
ATOM     10  C   UNL     1       7.246   2.062  25.557  0.00  0.00    +0.135 A 
ATOM     11  C   UNL     1       8.074   2.910  24.830  0.00  0.00    +0.092 A 
ENDROOT
BRANCH   5  12
ATOM     12  C   UNL     1       6.191  -3.023  23.279  0.00  0.00    +0.025 A 
ATOM     13  C   UNL     1       7.223  -3.472  22.429  0.00  0.00    +0.015 A 
ATOM     14  C   UNL     1       7.078  -4.637  21.656  0.00  0.00    +0.050 A 
ATOM     15  C   UNL     1       5.902  -5.361  21.731  0.00  0.00    +0.158 A 
ATOM     16  C   UNL     1       4.868  -4.938  22.562  0.00  0.00    +0.159 A 
ATOM     17  C   UNL     1       4.998  -3.773  23.321  0.00  0.00    +0.060 A 
BRANCH  16  18
ATOM     18  O   UNL     1       3.731  -5.703  22.584  0.00  0.00    -0.503 OA
ATOM     19  H   UNL     1       3.892  -6.507  22.053  0.00  0.00    +0.292 HD
ENDBRANCH  16  18
BRANCH  15  20
ATOM     20  O   UNL     1       5.761  -6.488  20.972  0.00  0.00    -0.503 OA
ATOM     21  H   UNL     1       5.071  -7.011  21.427  0.00  0.00    +0.292 HD
ENDBRANCH  15  20
ENDBRANCH   5  12
BRANCH  10  22
ATOM     22  O   UNL     1       6.849   2.436  26.810  0.00  0.00    -0.506 OA
ATOM     23  H   UNL     1       5.955   2.818  26.785  0.00  0.00    +0.292 HD
ENDBRANCH  10  22
BRANCH   6  24
ATOM     24  O   UNL     1       5.465  -2.498  26.058  0.00  0.00    -0.453 OA
BRANCH  24  25
ATOM     25  C   UNL     1       6.218  -2.908  27.218  0.00  0.00    +0.340 C 
ATOM     26  O   UNL     1       7.596  -3.228  26.945  0.00  0.00    -0.331 OA
ATOM     27  C   UNL     1       7.824  -4.309  26.025  0.00  0.00    +0.179 C 
ATOM     28  C   UNL     1       7.101  -5.581  26.504  0.00  0.00    +0.177 C 
ATOM     29  C   UNL     1       5.620  -5.271  26.739  0.00  0.00    +0.180 C 
ATOM     30  C   UNL     1       5.485  -4.145  27.774  0.00  0.00    +0.214 C 
BRANCH  30  31
ATOM     31  O   UNL     1       4.100  -3.858  28.035  0.00  0.00    -0.383 OA
ATOM     32  H   UNL     1       4.035  -3.710  28.998  0.00  0.00    +0.210 HD
ENDBRANCH  30  31
BRANCH  29  33
ATOM     33  O   UNL     1       4.910  -6.424  27.203  0.00  0.00    -0.386 OA
ATOM     34  H   UNL     1       5.565  -7.148  27.252  0.00  0.00    +0.210 HD
ENDBRANCH  29  33
BRANCH  28  35
ATOM     35  O   UNL     1       7.654  -6.072  27.740  0.00  0.00    -0.386 OA
ATOM     36  H   UNL     1       7.370  -7.000  27.857  0.00  0.00    +0.210 HD
ENDBRANCH  28  35
BRANCH  27  37
ATOM     37  C   UNL     1       9.346  -4.567  25.934  0.00  0.00    +0.190 C 
BRANCH  37  38
ATOM     38  O   UNL     1       9.682  -5.869  25.460  0.00  0.00    -0.392 OA
ATOM     39  H   UNL     1       9.720  -5.855  24.489  0.00  0.00    +0.210 HD
ENDBRANCH  37  38
ENDBRANCH  27  37
ENDBRANCH  24  25
ENDBRANCH   6  24
BRANCH   1  40
ATOM     40  O   UNL     1       9.294   3.467  22.928  0.00  0.00    -0.461 OA
BRANCH  40  43
ATOM     41  C   UNL     1      10.649   6.379  24.607  0.00  0.00    +0.198 C 
ATOM     42  O   UNL     1       9.803   5.590  23.772  0.00  0.00    -0.337 OA
ATOM     43  C   UNL     1      10.188   4.211  23.766  0.00  0.00    +0.339 C 
ATOM     44  C   UNL     1      11.605   4.085  23.160  0.00  0.00    +0.214 C 
ATOM     45  C   UNL     1      12.583   4.896  24.010  0.00  0.00    +0.180 C 
ATOM     46  C   UNL     1      12.108   6.352  24.151  0.00  0.00    +0.171 C 
BRANCH  46  47
ATOM     47  O   UNL     1      12.893   7.060  25.113  0.00  0.00    -0.387 OA
ATOM     48  H   UNL     1      13.652   7.455  24.643  0.00  0.00    +0.210 HD
ENDBRANCH  46  47
BRANCH  45  49
ATOM     49  O   UNL     1      13.891   4.880  23.422  0.00  0.00    -0.386 OA
ATOM     50  H   UNL     1      14.516   5.041  24.160  0.00  0.00    +0.210 HD
ENDBRANCH  45  49
BRANCH  44  51
ATOM     51  O   UNL     1      11.665   4.605  21.813  0.00  0.00    -0.383 OA
ATOM     52  H   UNL     1      11.172   5.451  21.816  0.00  0.00    +0.210 HD
ENDBRANCH  44  51
ENDBRANCH  40  43
ENDBRANCH   1  40
TORSDOF 16
ENDMDL
MODEL 2
REMARK VINA RESULT:      -7.4      2.294      5.096
REMARK  Name = 
REMARK  16 active torsions:
REMARK  status: ('A' for Active; 'I' for Inactive)
REMARK    1  A    between atoms: C_2  and  O_42
REMARK    2  A    between atoms: C_3  and  O_41
REMARK    3  A    between atoms: C_4  and  O_40
REMARK    4  A    between atoms: C_5  and  O_7
REMARK    5  A    between atoms: O_7  and  C_8
REMARK    6  A    between atoms: C_10  and  O_39
REMARK    7  A    between atoms: C_15  and  C_31
REMARK    8  A    between atoms: C_16  and  O_19
REMARK    9  A    between atoms: O_19  and  C_20
REMARK   10  A    between atoms: C_21  and  O_30
REMARK   11  A    between atoms: C_22  and  O_29
REMARK   12  A    between atoms: C_23  and  O_28
REMARK   13  A    between atoms: C_24  and  C_26
REMARK   14  A    between atoms: C_26  and  O_27
REMARK   15  A    between atoms: C_33  and  O_38
REMARK   16  A    between atoms: C_34  and  O_37
REMARK                            x       y       z     vdW  Elec       q    Type
REMARK                         _______ _______ _______ _____ _____    ______ ____
ROOT
ATOM      1  C   UNL     1      10.071  -0.111  24.124  0.00  0.00    +0.131 A 
ATOM      2  C   UNL     1       9.441  -0.796  25.166  0.00  0.00    +0.093 A 
ATOM      3  C   UNL     1       8.700  -1.952  24.895  0.00  0.00    +0.147 A 
ATOM      4  O   UNL     1       8.158  -2.625  25.962  0.00  0.00    -0.451 OA
ATOM      5  C   UNL     1       7.209  -3.612  25.714  0.00  0.00    +0.181 A 
ATOM      6  C   UNL     1       6.923  -4.087  24.477  0.00  0.00    +0.214 A 
ATOM      7  C   UNL     1       7.849  -3.666  23.383  0.00  0.00    +0.238 A 
ATOM      8  O   UNL     1       8.065  -4.365  22.403  0.00  0.00    -0.283 OA
ATOM      9  C   UNL     1       8.567  -2.401  23.587  0.00  0.00    +0.109 A 
ATOM     10  C   UNL     1       9.142  -1.679  22.542  0.00  0.00    +0.135 A 
ATOM     11  C   UNL     1       9.892  -0.539  22.808  0.00  0.00    +0.092 A 
ENDROOT
BRANCH   5  12
ATOM     12  C   UNL     1       6.561  -4.106  26.972  0.00  0.00    +0.025 A 
ATOM     13  C   UNL     1       6.919  -5.368  27.489  0.00  0.00    +0.015 A 
ATOM     14  C   UNL     1       6.255  -5.917  28.599  0.00  0.00    +0.050 A 
ATOM     15  C   UNL     1       5.232  -5.207  29.200  0.00  0.00    +0.158 A 
ATOM     16  C   UNL     1       4.860  -3.959  28.708  0.00  0.00    +0.159 A 
ATOM     17  C   UNL     1       5.503  -3.414  27.596  0.00  0.00    +0.060 A 
BRANCH  16  18
ATOM     18  O   UNL     1       3.835  -3.314  29.352  0.00  0.00    -0.503 OA
ATOM     19  H   UNL     1       3.492  -2.618  28.760  0.00  0.00    +0.292 HD
ENDBRANCH  16  18
BRANCH  15  20
ATOM     20  O   UNL     1       4.584  -5.748  30.274  0.00  0.00    -0.503 OA
ATOM     21  H   UNL     1       5.298  -6.048  30.871  0.00  0.00    +0.292 HD
ENDBRANCH  15  20
ENDBRANCH   5  12
BRANCH  10  22
ATOM     22  O   UNL     1       8.960  -2.068  21.245  0.00  0.00    -0.506 OA
ATOM     23  H   UNL     1       8.861  -1.291  20.667  0.00  0.00    +0.292 HD
ENDBRANCH  10  22
BRANCH   6  24
ATOM     24  O   UNL     1       5.862  -4.924  24.257  0.00  0.00    -0.453 OA
BRANCH  24  25
ATOM     25  C   UNL     1       4.699  -4.482  23.527  0.00  0.00    +0.340 C 
ATOM     26  O   UNL     1       3.715  -3.808  24.334  0.00  0.00    -0.331 OA
ATOM     27  C   UNL     1       3.140  -4.577  25.405  0.00  0.00    +0.179 C 
ATOM     28  C   UNL     1       2.531  -5.881  24.859  0.00  0.00    +0.177 C 
ATOM     29  C   UNL     1       3.585  -6.641  24.049  0.00  0.00    +0.180 C 
ATOM     30  C   UNL     1       4.093  -5.754  22.902  0.00  0.00    +0.214 C 
BRANCH  30  31
ATOM     31  O   UNL     1       5.062  -6.460  22.107  0.00  0.00    -0.383 OA
ATOM     32  H   UNL     1       5.912  -6.001  22.254  0.00  0.00    +0.210 HD
ENDBRANCH  30  31
BRANCH  29  33
ATOM     33  O   UNL     1       3.055  -7.854  23.507  0.00  0.00    -0.386 OA
ATOM     34  H   UNL     1       3.820  -8.362  23.172  0.00  0.00    +0.210 HD
ENDBRANCH  29  33
BRANCH  28  35
ATOM     35  O   UNL     1       1.408  -5.621  23.995  0.00  0.00    -0.386 OA
ATOM     36  H   UNL     1       0.661  -6.182  24.284  0.00  0.00    +0.210 HD
ENDBRANCH  28  35
BRANCH  27  37
ATOM     37  C   UNL     1       2.046  -3.727  26.092  0.00  0.00    +0.190 C 
BRANCH  37  38
ATOM     38  O   UNL     1       1.317  -2.893  25.194  0.00  0.00    -0.392 OA
ATOM     39  H   UNL     1       0.447  -2.694  25.578  0.00  0.00    +0.210 HD
ENDBRANCH  37  38
ENDBRANCH  27  37
ENDBRANCH  24  25
ENDBRANCH   6  24
BRANCH   1  40
ATOM     40  O   UNL     1      10.855   1.002  24.262  0.00  0.00    -0.461 OA
BRANCH  40  43
ATOM     41  C   UNL     1       8.052   3.299  24.259  0.00  0.00    +0.198 C 
ATOM     42  O   UNL     1       8.799   2.101  24.056  0.00  0.00    -0.337 OA
ATOM     43  C   UNL     1      10.162   2.239  24.472  0.00  0.00    +0.339 C 
ATOM     44  C   UNL     1      10.849   3.312  23.598  0.00  0.00    +0.214 C 
ATOM     45  C   UNL     1      10.114   4.642  23.769  0.00  0.00    +0.180 C 
ATOM     46  C   UNL     1       8.615   4.479  23.467  0.00  0.00    +0.171 C 
BRANCH  46  47
ATOM     47  O   UNL     1       7.886   5.654  23.830  0.00  0.00    -0.387 OA
ATOM     48  H   UNL     1       8.468   6.422  23.677  0.00  0.00    +0.210 HD
ENDBRANCH  46  47
BRANCH  45  49
ATOM     49  O   UNL     1      10.668   5.636  22.898  0.00  0.00    -0.386 OA
ATOM     50  H   UNL     1      11.454   5.990  23.366  0.00  0.00    +0.210 HD
ENDBRANCH  45  49
BRANCH  44  51
ATOM     51  O   UNL     1      10.810   2.972  22.193  0.00  0.00    -0.383 OA
ATOM     52  H   UNL     1      10.824   3.817  21.699  0.00  0.00    +0.210 HD
ENDBRANCH  44  51
ENDBRANCH  40  43
ENDBRANCH   1  40
TORSDOF 16
ENDMDL
MODEL 3
REMARK VINA RESULT:      -7.3      2.527      9.852
REMARK  Name = 
REMARK  16 active torsions:
REMARK  status: ('A' for Active; 'I' for Inactive)
REMARK    1  A    between atoms: C_2  and  O_42
REMARK    2  A    between atoms: C_3  and  O_41
REMARK    3  A    between atoms: C_4  and  O_40
REMARK    4  A    between atoms: C_5  and  O_7
REMARK    5  A    between atoms: O_7  and  C_8
REMARK    6  A    between atoms: C_10  and  O_39
REMARK    7  A    between atoms: C_15  and  C_31
REMARK    8  A    between atoms: C_16  and  O_19
REMARK    9  A    between atoms: O_19  and  C_20
REMARK   10  A    between atoms: C_21  and  O_30
REMARK   11  A    between atoms: C_22  and  O_29
REMARK   12  A    between atoms: C_23  and  O_28
REMARK   13  A    between atoms: C_24  and  C_26
REMARK   14  A    between atoms: C_26  and  O_27
REMARK   15  A    between atoms: C_33  and  O_38
REMARK   16  A    between atoms: C_34  and  O_37
REMARK                            x       y       z     vdW  Elec       q    Type
REMARK                         _______ _______ _______ _____ _____    ______ ____
ROOT
ATOM      1  C   UNL     1       7.366  -3.975  24.054  0.00  0.00    +0.131 A 
ATOM      2  C   UNL     1       6.546  -2.845  24.063  0.00  0.00    +0.093 A 
ATOM      3  C   UNL     1       7.064  -1.602  23.677  0.00  0.00    +0.147 A 
ATOM      4  O   UNL     1       6.199  -0.537  23.638  0.00  0.00    -0.451 OA
ATOM      5  C   UNL     1       6.726   0.745  23.518  0.00  0.00    +0.181 A 
ATOM      6  C   UNL     1       8.029   1.000  23.243  0.00  0.00    +0.214 A 
ATOM      7  C   UNL     1       8.855  -0.177  22.836  0.00  0.00    +0.238 A 
ATOM      8  O   UNL     1       9.815  -0.075  22.085  0.00  0.00    -0.283 OA
ATOM      9  C   UNL     1       8.400  -1.489  23.313  0.00  0.00    +0.109 A 
ATOM     10  C   UNL     1       9.232  -2.606  23.368  0.00  0.00    +0.135 A 
ATOM     11  C   UNL     1       8.719  -3.845  23.735  0.00  0.00    +0.092 A 
ENDROOT
BRANCH   5  12
ATOM     12  C   UNL     1       5.685   1.807  23.700  0.00  0.00    +0.025 A 
ATOM     13  C   UNL     1       4.946   1.858  24.899  0.00  0.00    +0.015 A 
ATOM     14  C   UNL     1       3.884   2.763  25.064  0.00  0.00    +0.050 A 
ATOM     15  C   UNL     1       3.557   3.626  24.033  0.00  0.00    +0.158 A 
ATOM     16  C   UNL     1       4.272   3.595  22.839  0.00  0.00    +0.159 A 
ATOM     17  C   UNL     1       5.318   2.687  22.661  0.00  0.00    +0.060 A 
BRANCH  16  18
ATOM     18  O   UNL     1       3.891   4.476  21.860  0.00  0.00    -0.503 OA
ATOM     19  H   UNL     1       4.317   4.207  21.024  0.00  0.00    +0.292 HD
ENDBRANCH  16  18
BRANCH  15  20
ATOM     20  O   UNL     1       2.519   4.499  24.195  0.00  0.00    -0.503 OA
ATOM     21  H   UNL     1       1.801   3.962  24.586  0.00  0.00    +0.292 HD
ENDBRANCH  15  20
ENDBRANCH   5  12
BRANCH  10  22
ATOM     22  O   UNL     1      10.564  -2.496  23.082  0.00  0.00    -0.506 OA
ATOM     23  H   UNL     1      11.070  -2.294  23.888  0.00  0.00    +0.292 HD
ENDBRANCH  10  22
BRANCH   6  24
ATOM     24  O   UNL     1       8.543   2.267  23.311  0.00  0.00    -0.453 OA
BRANCH  24  25
ATOM     25  C   UNL     1       9.248   2.727  24.481  0.00  0.00    +0.340 C 
ATOM     26  O   UNL     1       8.394   3.239  25.522  0.00  0.00    -0.331 OA
ATOM     27  C   UNL     1       7.585   4.377  25.176  0.00  0.00    +0.179 C 
ATOM     28  C   UNL     1       8.469   5.520  24.647  0.00  0.00    +0.177 C 
ATOM     29  C   UNL     1       9.340   5.006  23.497  0.00  0.00    +0.180 C 
ATOM     30  C   UNL     1      10.201   3.832  23.985  0.00  0.00    +0.214 C 
BRANCH  30  31
ATOM     31  O   UNL     1      11.051   3.353  22.928  0.00  0.00    -0.383 OA
ATOM     32  H   UNL     1      11.865   3.035  23.364  0.00  0.00    +0.210 HD
ENDBRANCH  30  31
BRANCH  29  33
ATOM     33  O   UNL     1      10.193   6.035  22.985  0.00  0.00    -0.386 OA
ATOM     34  H   UNL     1      10.727   6.349  23.740  0.00  0.00    +0.210 HD
ENDBRANCH  29  33
BRANCH  28  35
ATOM     35  O   UNL     1       9.343   6.032  25.672  0.00  0.00    -0.386 OA
ATOM     36  H   UNL     1       8.793   6.339  26.419  0.00  0.00    +0.210 HD
ENDBRANCH  28  35
BRANCH  27  37
ATOM     37  C   UNL     1       6.816   4.839  26.436  0.00  0.00    +0.190 C 
BRANCH  37  38
ATOM     38  O   UNL     1       7.568   4.725  27.642  0.00  0.00    -0.392 OA
ATOM     39  H   UNL     1       7.406   3.853  28.039  0.00  0.00    +0.210 HD
ENDBRANCH  37  38
ENDBRANCH  27  37
ENDBRANCH  24  25
ENDBRANCH   6  24
BRANCH   1  40
ATOM     40  O   UNL     1       6.973  -5.247  24.368  0.00  0.00    -0.461 OA
BRANCH  40  43
ATOM     41  C   UNL     1       4.955  -6.456  27.125  0.00  0.00    +0.198 C 
ATOM     42  O   UNL     1       6.068  -6.314  26.245  0.00  0.00    -0.337 OA
ATOM     43  C   UNL     1       5.816  -5.360  25.206  0.00  0.00    +0.339 C 
ATOM     44  C   UNL     1       4.651  -5.870  24.327  0.00  0.00    +0.214 C 
ATOM     45  C   UNL     1       3.405  -6.036  25.197  0.00  0.00    +0.180 C 
ATOM     46  C   UNL     1       3.699  -6.943  26.403  0.00  0.00    +0.171 C 
BRANCH  46  47
ATOM     47  O   UNL     1       2.613  -6.933  27.332  0.00  0.00    -0.387 OA
ATOM     48  H   UNL     1       2.968  -7.183  28.206  0.00  0.00    +0.210 HD
ENDBRANCH  46  47
BRANCH  45  49
ATOM     49  O   UNL     1       2.331  -6.599  24.431  0.00  0.00    -0.386 OA
ATOM     50  H   UNL     1       2.350  -6.135  23.567  0.00  0.00    +0.210 HD
ENDBRANCH  45  49
BRANCH  44  51
ATOM     51  O   UNL     1       4.943  -7.156  23.735  0.00  0.00    -0.383 OA
ATOM     52  H   UNL     1       5.757  -7.043  23.203  0.00  0.00    +0.210 HD
ENDBRANCH  44  51
ENDBRANCH  40  43
ENDBRANCH   1  40
TORSDOF 16
ENDMDL
MODEL 4
REMARK VINA RESULT:      -7.1      2.414     10.022
REMARK  Name = 
REMARK  16 active torsions:
REMARK  status: ('A' for Active; 'I' for Inactive)
REMARK    1  A    between atoms: C_2  and  O_42
REMARK    2  A    between atoms: C_3  and  O_41
REMARK    3  A    between atoms: C_4  and  O_40
REMARK    4  A    between atoms: C_5  and  O_7
REMARK    5  A    between atoms: O_7  and  C_8
REMARK    6  A    between atoms: C_10  and  O_39
REMARK    7  A    between atoms: C_15  and  C_31
REMARK    8  A    between atoms: C_16  and  O_19
REMARK    9  A    between atoms: O_19  and  C_20
REMARK   10  A    between atoms: C_21  and  O_30
REMARK   11  A    between atoms: C_22  and  O_29
REMARK   12  A    between atoms: C_23  and  O_28
REMARK   13  A    between atoms: C_24  and  C_26
REMARK   14  A    between atoms: C_26  and  O_27
REMARK   15  A    between atoms: C_33  and  O_38
REMARK   16  A    between atoms: C_34  and  O_37
REMARK                            x       y       z     vdW  Elec       q    Type
REMARK                         _______ _______ _______ _____ _____    ______ ____
ROOT
ATOM      1  C   UNL     1       7.285  -3.225  23.257  0.00  0.00    +0.131 A 
ATOM      2  C   UNL     1       6.463  -2.264  23.850  0.00  0.00    +0.093 A 
ATOM      3  C   UNL     1       6.713  -0.903  23.639  0.00  0.00    +0.147 A 
ATOM      4  O   UNL     1       5.836  -0.002  24.189  0.00  0.00    -0.451 OA
ATOM      5  C   UNL     1       6.196   1.342  24.224  0.00  0.00    +0.181 A 
ATOM      6  C   UNL     1       7.274   1.849  23.576  0.00  0.00    +0.214 A 
ATOM      7  C   UNL     1       7.951   0.930  22.611  0.00  0.00    +0.238 A 
ATOM      8  O   UNL     1       8.539   1.340  21.621  0.00  0.00    -0.283 OA
ATOM      9  C   UNL     1       7.797  -0.508  22.864  0.00  0.00    +0.109 A 
ATOM     10  C   UNL     1       8.653  -1.468  22.326  0.00  0.00    +0.135 A 
ATOM     11  C   UNL     1       8.400  -2.821  22.520  0.00  0.00    +0.092 A 
ENDROOT
BRANCH   5  12
ATOM     12  C   UNL     1       5.241   2.165  25.034  0.00  0.00    +0.025 A 
ATOM     13  C   UNL     1       4.283   2.965  24.378  0.00  0.00    +0.015 A 
ATOM     14  C   UNL     1       3.447   3.838  25.095  0.00  0.00    +0.050 A 
ATOM     15  C   UNL     1       3.561   3.914  26.471  0.00  0.00    +0.158 A 
ATOM     16  C   UNL     1       4.500   3.135  27.141  0.00  0.00    +0.159 A 
ATOM     17  C   UNL     1       5.346   2.277  26.435  0.00  0.00    +0.060 A 
BRANCH  16  18
ATOM     18  O   UNL     1       4.560   3.264  28.505  0.00  0.00    -0.503 OA
ATOM     19  H   UNL     1       5.126   2.550  28.855  0.00  0.00    +0.292 HD
ENDBRANCH  16  18
BRANCH  15  20
ATOM     20  O   UNL     1       2.752   4.770  27.163  0.00  0.00    -0.503 OA
ATOM     21  H   UNL     1       1.843   4.466  26.968  0.00  0.00    +0.292 HD
ENDBRANCH  15  20
ENDBRANCH   5  12
BRANCH  10  22
ATOM     22  O   UNL     1       9.763  -1.094  21.622  0.00  0.00    -0.506 OA
ATOM     23  H   UNL     1      10.085  -1.832  21.076  0.00  0.00    +0.292 HD
ENDBRANCH  10  22
BRANCH   6  24
ATOM     24  O   UNL     1       7.694   3.136  23.780  0.00  0.00    -0.453 OA
BRANCH  24  25
ATOM     25  C   UNL     1       8.711   3.446  24.755  0.00  0.00    +0.340 C 
ATOM     26  O   UNL     1       8.240   4.223  25.873  0.00  0.00    -0.331 OA
ATOM     27  C   UNL     1       7.699   5.518  25.561  0.00  0.00    +0.179 C 
ATOM     28  C   UNL     1       8.726   6.350  24.771  0.00  0.00    +0.177 C 
ATOM     29  C   UNL     1       9.190   5.561  23.543  0.00  0.00    +0.180 C 
ATOM     30  C   UNL     1       9.799   4.223  23.989  0.00  0.00    +0.214 C 
BRANCH  30  31
ATOM     31  O   UNL     1      10.271   3.478  22.852  0.00  0.00    -0.383 OA
ATOM     32  H   UNL     1      11.185   3.211  23.070  0.00  0.00    +0.210 HD
ENDBRANCH  30  31
BRANCH  29  33
ATOM     33  O   UNL     1      10.161   6.292  22.787  0.00  0.00    -0.386 OA
ATOM     34  H   UNL     1      10.892   5.670  22.605  0.00  0.00    +0.210 HD
ENDBRANCH  29  33
BRANCH  28  35
ATOM     35  O   UNL     1       9.886   6.656  25.568  0.00  0.00    -0.386 OA
ATOM     36  H   UNL     1       9.618   6.671  26.508  0.00  0.00    +0.210 HD
ENDBRANCH  28  35
BRANCH  27  37
ATOM     37  C   UNL     1       7.339   6.235  26.883  0.00  0.00    +0.190 C 
BRANCH  37  38
ATOM     38  O   UNL     1       8.333   6.104  27.897  0.00  0.00    -0.392 OA
ATOM     39  H   UNL     1       8.557   5.165  28.007  0.00  0.00    +0.210 HD
ENDBRANCH  37  38
ENDBRANCH  27  37
ENDBRANCH  24  25
ENDBRANCH   6  24
BRANCH   1  40
ATOM     40  O   UNL     1       7.122  -4.580  23.351  0.00  0.00    -0.461 OA
BRANCH  40  43
ATOM     41  C   UNL     1       5.282  -6.337  25.932  0.00  0.00    +0.198 C 
ATOM     42  O   UNL     1       6.387  -5.874  25.157  0.00  0.00    -0.337 OA
ATOM     43  C   UNL     1       5.972  -5.028  24.079  0.00  0.00    +0.339 C 
ATOM     44  C   UNL     1       5.094  -5.847  23.105  0.00  0.00    +0.214 C 
ATOM     45  C   UNL     1       3.871  -6.372  23.858  0.00  0.00    +0.180 C 
ATOM     46  C   UNL     1       4.296  -7.162  25.106  0.00  0.00    +0.171 C 
BRANCH  46  47
ATOM     47  O   UNL     1       3.169  -7.472  25.928  0.00  0.00    -0.387 OA
ATOM     48  H   UNL     1       3.504  -7.869  26.754  0.00  0.00    +0.210 HD
ENDBRANCH  46  47
BRANCH  45  49
ATOM     49  O   UNL     1       3.084  -7.216  23.007  0.00  0.00    -0.386 OA
ATOM     50  H   UNL     1       3.681  -7.486  22.277  0.00  0.00    +0.210 HD
ENDBRANCH  45  49
BRANCH  44  51
ATOM     51  O   UNL     1       5.800  -6.990  22.572  0.00  0.00    -0.383 OA
ATOM     52  H   UNL     1       5.393  -7.192  21.705  0.00  0.00    +0.210 HD
ENDBRANCH  44  51
ENDBRANCH  40  43
ENDBRANCH   1  40
TORSDOF 16
ENDMDL
MODEL 5
REMARK VINA RESULT:      -7.0      2.186      5.099
REMARK  Name = 
REMARK  16 active torsions:
REMARK  status: ('A' for Active; 'I' for Inactive)
REMARK    1  A    between atoms: C_2  and  O_42
REMARK    2  A    between atoms: C_3  and  O_41
REMARK    3  A    between atoms: C_4  and  O_40
REMARK    4  A    between atoms: C_5  and  O_7
REMARK    5  A    between atoms: O_7  and  C_8
REMARK    6  A    between atoms: C_10  and  O_39
REMARK    7  A    between atoms: C_15  and  C_31
REMARK    8  A    between atoms: C_16  and  O_19
REMARK    9  A    between atoms: O_19  and  C_20
REMARK   10  A    between atoms: C_21  and  O_30
REMARK   11  A    between atoms: C_22  and  O_29
REMARK   12  A    between atoms: C_23  and  O_28
REMARK   13  A    between atoms: C_24  and  C_26
REMARK   14  A    between atoms: C_26  and  O_27
REMARK   15  A    between atoms: C_33  and  O_38
REMARK   16  A    between atoms: C_34  and  O_37
REMARK                            x       y       z     vdW  Elec       q    Type
REMARK                         _______ _______ _______ _____ _____    ______ ____
ROOT
ATOM      1  C   UNL     1       9.112  -0.001  24.941  0.00  0.00    +0.131 A 
ATOM      2  C   UNL     1       7.968  -0.268  25.695  0.00  0.00    +0.093 A 
ATOM      3  C   UNL     1       7.607  -1.592  25.974  0.00  0.00    +0.147 A 
ATOM      4  O   UNL     1       6.513  -1.798  26.777  0.00  0.00    -0.451 OA
ATOM      5  C   UNL     1       5.975  -3.079  26.856  0.00  0.00    +0.181 A 
ATOM      6  C   UNL     1       6.578  -4.180  26.342  0.00  0.00    +0.214 A 
ATOM      7  C   UNL     1       7.986  -3.999  25.876  0.00  0.00    +0.238 A 
ATOM      8  O   UNL     1       8.803  -4.908  25.896  0.00  0.00    -0.283 OA
ATOM      9  C   UNL     1       8.370  -2.640  25.475  0.00  0.00    +0.109 A 
ATOM     10  C   UNL     1       9.474  -2.372  24.667  0.00  0.00    +0.135 A 
ATOM     11  C   UNL     1       9.846  -1.059  24.401  0.00  0.00    +0.092 A 
ENDROOT
BRANCH   5  12
ATOM     12  C   UNL     1       4.673  -3.105  27.596  0.00  0.00    +0.025 A 
ATOM     13  C   UNL     1       4.572  -3.828  28.802  0.00  0.00    +0.015 A 
ATOM     14  C   UNL     1       3.343  -3.973  29.466  0.00  0.00    +0.050 A 
ATOM     15  C   UNL     1       2.207  -3.393  28.930  0.00  0.00    +0.158 A 
ATOM     16  C   UNL     1       2.280  -2.675  27.740  0.00  0.00    +0.159 A 
ATOM     17  C   UNL     1       3.495  -2.540  27.065  0.00  0.00    +0.060 A 
BRANCH  16  18
ATOM     18  O   UNL     1       1.114  -2.131  27.266  0.00  0.00    -0.503 OA
ATOM     19  H   UNL     1       0.678  -1.656  27.999  0.00  0.00    +0.292 HD
ENDBRANCH  16  18
BRANCH  15  20
ATOM     20  O   UNL     1       1.012  -3.543  29.575  0.00  0.00    -0.503 OA
ATOM     21  H   UNL     1       0.339  -3.500  28.866  0.00  0.00    +0.292 HD
ENDBRANCH  15  20
ENDBRANCH   5  12
BRANCH  10  22
ATOM     22  O   UNL     1      10.193  -3.392  24.110  0.00  0.00    -0.506 OA
ATOM     23  H   UNL     1      10.823  -3.757  24.755  0.00  0.00    +0.292 HD
ENDBRANCH  10  22
BRANCH   6  24
ATOM     24  O   UNL     1       5.936  -5.388  26.282  0.00  0.00    -0.453 OA
BRANCH  24  25
ATOM     25  C   UNL     1       5.801  -6.103  25.038  0.00  0.00    +0.340 C 
ATOM     26  O   UNL     1       5.972  -5.285  23.864  0.00  0.00    -0.331 OA
ATOM     27  C   UNL     1       5.040  -4.203  23.706  0.00  0.00    +0.179 C 
ATOM     28  C   UNL     1       3.595  -4.733  23.739  0.00  0.00    +0.177 C 
ATOM     29  C   UNL     1       3.379  -5.554  25.014  0.00  0.00    +0.180 C 
ATOM     30  C   UNL     1       4.386  -6.712  25.059  0.00  0.00    +0.214 C 
BRANCH  30  31
ATOM     31  O   UNL     1       4.180  -7.517  26.233  0.00  0.00    -0.383 OA
ATOM     32  H   UNL     1       3.213  -7.556  26.364  0.00  0.00    +0.210 HD
ENDBRANCH  30  31
BRANCH  29  33
ATOM     33  O   UNL     1       2.050  -6.082  25.078  0.00  0.00    -0.386 OA
ATOM     34  H   UNL     1       2.049  -6.733  25.806  0.00  0.00    +0.210 HD
ENDBRANCH  29  33
BRANCH  28  35
ATOM     35  O   UNL     1       3.315  -5.582  22.610  0.00  0.00    -0.386 OA
ATOM     36  H   UNL     1       2.815  -5.062  21.950  0.00  0.00    +0.210 HD
ENDBRANCH  28  35
BRANCH  27  37
ATOM     37  C   UNL     1       5.318  -3.505  22.354  0.00  0.00    +0.190 C 
BRANCH  37  38
ATOM     38  O   UNL     1       5.693  -4.401  21.310  0.00  0.00    -0.392 OA
ATOM     39  H   UNL     1       6.619  -4.668  21.435  0.00  0.00    +0.210 HD
ENDBRANCH  37  38
ENDBRANCH  27  37
ENDBRANCH  24  25
ENDBRANCH   6  24
BRANCH   1  40
ATOM     40  O   UNL     1       9.593   1.243  24.636  0.00  0.00    -0.461 OA
BRANCH  40  43
ATOM     41  C   UNL     1       6.984   2.646  22.549  0.00  0.00    +0.198 C 
ATOM     42  O   UNL     1       7.976   1.735  23.017  0.00  0.00    -0.337 OA
ATOM     43  C   UNL     1       8.623   2.205  24.205  0.00  0.00    +0.339 C 
ATOM     44  C   UNL     1       9.379   3.515  23.882  0.00  0.00    +0.214 C 
ATOM     45  C   UNL     1       8.378   4.558  23.384  0.00  0.00    +0.180 C 
ATOM     46  C   UNL     1       7.568   4.014  22.195  0.00  0.00    +0.171 C 
BRANCH  46  47
ATOM     47  O   UNL     1       6.491   4.891  21.862  0.00  0.00    -0.387 OA
ATOM     48  H   UNL     1       6.154   4.627  20.985  0.00  0.00    +0.210 HD
ENDBRANCH  46  47
BRANCH  45  49
ATOM     49  O   UNL     1       9.059   5.755  22.985  0.00  0.00    -0.386 OA
ATOM     50  H   UNL     1       9.296   5.623  22.042  0.00  0.00    +0.210 HD
ENDBRANCH  45  49
BRANCH  44  51
ATOM     51  O   UNL     1      10.365   3.328  22.842  0.00  0.00    -0.383 OA
ATOM     52  H   UNL     1       9.910   3.490  21.991  0.00  0.00    +0.210 HD
ENDBRANCH  44  51
ENDBRANCH  40  43
ENDBRANCH   1  40
TORSDOF 16
ENDMDL
MODEL 6
REMARK VINA RESULT:      -7.0      1.307      1.778
REMARK  Name = 
REMARK  16 active torsions:
REMARK  status: ('A' for Active; 'I' for Inactive)
REMARK    1  A    between atoms: C_2  and  O_42
REMARK    2  A    between atoms: C_3  and  O_41
REMARK    3  A    between atoms: C_4  and  O_40
REMARK    4  A    between atoms: C_5  and  O_7
REMARK    5  A    between atoms: O_7  and  C_8
REMARK    6  A    between atoms: C_10  and  O_39
REMARK    7  A    between atoms: C_15  and  C_31
REMARK    8  A    between atoms: C_16  and  O_19
REMARK    9  A    between atoms: O_19  and  C_20
REMARK   10  A    between atoms: C_21  and  O_30
REMARK   11  A    between atoms: C_22  and  O_29
REMARK   12  A    between atoms: C_23  and  O_28
REMARK   13  A    between atoms: C_24  and  C_26
REMARK   14  A    between atoms: C_26  and  O_27
REMARK   15  A    between atoms: C_33  and  O_38
REMARK   16  A    between atoms: C_34  and  O_37
REMARK                            x       y       z     vdW  Elec       q    Type
REMARK                         _______ _______ _______ _____ _____    ______ ____
ROOT
ATOM      1  C   UNL     1       6.138   2.931  25.008  0.00  0.00    +0.131 A 
ATOM      2  C   UNL     1       6.264   1.732  24.303  0.00  0.00    +0.093 A 
ATOM      3  C   UNL     1       5.723   0.552  24.827  0.00  0.00    +0.147 A 
ATOM      4  O   UNL     1       5.815  -0.584  24.063  0.00  0.00    -0.451 OA
ATOM      5  C   UNL     1       5.531  -1.811  24.656  0.00  0.00    +0.181 A 
ATOM      6  C   UNL     1       4.982  -1.941  25.889  0.00  0.00    +0.214 A 
ATOM      7  C   UNL     1       4.467  -0.685  26.513  0.00  0.00    +0.238 A 
ATOM      8  O   UNL     1       3.530  -0.680  27.299  0.00  0.00    -0.283 OA
ATOM      9  C   UNL     1       5.087   0.568  26.062  0.00  0.00    +0.109 A 
ATOM     10  C   UNL     1       5.019   1.753  26.793  0.00  0.00    +0.135 A 
ATOM     11  C   UNL     1       5.540   2.931  26.270  0.00  0.00    +0.092 A 
ENDROOT
BRANCH   5  12
ATOM     12  C   UNL     1       5.875  -2.966  23.766  0.00  0.00    +0.025 A 
ATOM     13  C   UNL     1       7.126  -2.995  23.116  0.00  0.00    +0.015 A 
ATOM     14  C   UNL     1       7.443  -3.998  22.186  0.00  0.00    +0.050 A 
ATOM     15  C   UNL     1       6.513  -4.982  21.902  0.00  0.00    +0.158 A 
ATOM     16  C   UNL     1       5.271  -4.976  22.530  0.00  0.00    +0.159 A 
ATOM     17  C   UNL     1       4.942  -3.972  23.443  0.00  0.00    +0.060 A 
BRANCH  16  18
ATOM     18  O   UNL     1       4.398  -5.979  22.198  0.00  0.00    -0.503 OA
ATOM     19  H   UNL     1       4.818  -6.538  21.516  0.00  0.00    +0.292 HD
ENDBRANCH  16  18
BRANCH  15  20
ATOM     20  O   UNL     1       6.822  -5.951  20.991  0.00  0.00    -0.503 OA
ATOM     21  H   UNL     1       6.812  -5.493  20.126  0.00  0.00    +0.292 HD
ENDBRANCH  15  20
ENDBRANCH   5  12
BRANCH  10  22
ATOM     22  O   UNL     1       4.460   1.770  28.040  0.00  0.00    -0.506 OA
ATOM     23  H   UNL     1       4.301   0.864  28.355  0.00  0.00    +0.292 HD
ENDBRANCH  10  22
BRANCH   6  24
ATOM     24  O   UNL     1       4.885  -3.159  26.507  0.00  0.00    -0.453 OA
BRANCH  24  25
ATOM     25  C   UNL     1       5.680  -3.475  27.667  0.00  0.00    +0.340 C 
ATOM     26  O   UNL     1       7.097  -3.532  27.414  0.00  0.00    -0.331 OA
ATOM     27  C   UNL     1       7.531  -4.514  26.459  0.00  0.00    +0.179 C 
ATOM     28  C   UNL     1       7.041  -5.914  26.870  0.00  0.00    +0.177 C 
ATOM     29  C   UNL     1       5.525  -5.885  27.083  0.00  0.00    +0.180 C 
ATOM     30  C   UNL     1       5.173  -4.846  28.157  0.00  0.00    +0.214 C 
BRANCH  30  31
ATOM     31  O   UNL     1       3.755  -4.824  28.396  0.00  0.00    -0.383 OA
ATOM     32  H   UNL     1       3.648  -4.677  29.356  0.00  0.00    +0.210 HD
ENDBRANCH  30  31
BRANCH  29  33
ATOM     33  O   UNL     1       5.027  -7.165  27.484  0.00  0.00    -0.386 OA
ATOM     34  H   UNL     1       5.780  -7.784  27.420  0.00  0.00    +0.210 HD
ENDBRANCH  29  33
BRANCH  28  35
ATOM     35  O   UNL     1       7.654  -6.350  28.099  0.00  0.00    -0.386 OA
ATOM     36  H   UNL     1       7.023  -6.932  28.568  0.00  0.00    +0.210 HD
ENDBRANCH  28  35
BRANCH  27  37
ATOM     37  C   UNL     1       9.076  -4.490  26.393  0.00  0.00    +0.190 C 
BRANCH  37  38
ATOM     38  O   UNL     1       9.644  -5.648  25.783  0.00  0.00    -0.392 OA
ATOM     39  H   UNL     1       9.199  -6.441  26.126  0.00  0.00    +0.210 HD
ENDBRANCH  37  38
ENDBRANCH  27  37
ENDBRANCH  24  25
ENDBRANCH   6  24
BRANCH   1  40
ATOM     40  O   UNL     1       6.583   4.154  24.587  0.00  0.00    -0.461 OA
BRANCH  40  43
ATOM     41  C   UNL     1       9.585   6.150  24.958  0.00  0.00    +0.198 C 
ATOM     42  O   UNL     1       8.210   5.828  24.757  0.00  0.00    -0.337 OA
ATOM     43  C   UNL     1       7.980   4.415  24.776  0.00  0.00    +0.339 C 
ATOM     44  C   UNL     1       8.738   3.765  23.596  0.00  0.00    +0.214 C 
ATOM     45  C   UNL     1      10.233   4.053  23.744  0.00  0.00    +0.180 C 
ATOM     46  C   UNL     1      10.487   5.564  23.874  0.00  0.00    +0.171 C 
BRANCH  46  47
ATOM     47  O   UNL     1      11.847   5.828  24.226  0.00  0.00    -0.387 OA
ATOM     48  H   UNL     1      12.086   6.697  23.852  0.00  0.00    +0.210 HD
ENDBRANCH  46  47
BRANCH  45  49
ATOM     49  O   UNL     1      10.955   3.545  22.614  0.00  0.00    -0.386 OA
ATOM     50  H   UNL     1      11.643   2.952  22.984  0.00  0.00    +0.210 HD
ENDBRANCH  45  49
BRANCH  44  51
ATOM     51  O   UNL     1       8.317   4.302  22.321  0.00  0.00    -0.383 OA
ATOM     52  H   UNL     1       8.094   3.536  21.754  0.00  0.00    +0.210 HD
ENDBRANCH  44  51
ENDBRANCH  40  43
ENDBRANCH   1  40
TORSDOF 16
ENDMDL
MODEL 7
REMARK VINA RESULT:      -7.0      1.994      3.033
REMARK  Name = 
REMARK  16 active torsions:
REMARK  status: ('A' for Active; 'I' for Inactive)
REMARK    1  A    between atoms: C_2  and  O_42
REMARK    2  A    between atoms: C_3  and  O_41
REMARK    3  A    between atoms: C_4  and  O_40
REMARK    4  A    between atoms: C_5  and  O_7
REMARK    5  A    between atoms: O_7  and  C_8
REMARK    6  A    between atoms: C_10  and  O_39
REMARK    7  A    between atoms: C_15  and  C_31
REMARK    8  A    between atoms: C_16  and  O_19
REMARK    9  A    between atoms: O_19  and  C_20
REMARK   10  A    between atoms: C_21  and  O_30
REMARK   11  A    between atoms: C_22  and  O_29
REMARK   12  A    between atoms: C_23  and  O_28
REMARK   13  A    between atoms: C_24  and  C_26
REMARK   14  A    between atoms: C_26  and  O_27
REMARK   15  A    between atoms: C_33  and  O_38
REMARK   16  A    between atoms: C_34  and  O_37
REMARK                            x       y       z     vdW  Elec       q    Type
REMARK                         _______ _______ _______ _____ _____    ______ ____
ROOT
ATOM      1  C   UNL     1       7.829   0.269  24.544  0.00  0.00    +0.131 A 
ATOM      2  C   UNL     1       6.810  -0.599  24.142  0.00  0.00    +0.093 A 
ATOM      3  C   UNL     1       5.920  -1.120  25.088  0.00  0.00    +0.147 A 
ATOM      4  O   UNL     1       4.897  -1.912  24.631  0.00  0.00    -0.451 OA
ATOM      5  C   UNL     1       4.164  -2.652  25.554  0.00  0.00    +0.181 A 
ATOM      6  C   UNL     1       4.268  -2.494  26.897  0.00  0.00    +0.214 A 
ATOM      7  C   UNL     1       5.051  -1.308  27.359  0.00  0.00    +0.238 A 
ATOM      8  O   UNL     1       4.814  -0.739  28.415  0.00  0.00    -0.283 OA
ATOM      9  C   UNL     1       6.069  -0.798  26.432  0.00  0.00    +0.109 A 
ATOM     10  C   UNL     1       7.125   0.015  26.839  0.00  0.00    +0.135 A 
ATOM     11  C   UNL     1       8.001   0.549  25.901  0.00  0.00    +0.092 A 
ENDROOT
BRANCH   5  12
ATOM     12  C   UNL     1       3.230  -3.619  24.894  0.00  0.00    +0.025 A 
ATOM     13  C   UNL     1       1.856  -3.586  25.211  0.00  0.00    +0.015 A 
ATOM     14  C   UNL     1       0.966  -4.548  24.703  0.00  0.00    +0.050 A 
ATOM     15  C   UNL     1       1.443  -5.546  23.872  0.00  0.00    +0.158 A 
ATOM     16  C   UNL     1       2.795  -5.600  23.545  0.00  0.00    +0.159 A 
ATOM     17  C   UNL     1       3.689  -4.659  24.059  0.00  0.00    +0.060 A 
BRANCH  16  18
ATOM     18  O   UNL     1       3.198  -6.619  22.720  0.00  0.00    -0.503 OA
ATOM     19  H   UNL     1       3.861  -6.264  22.098  0.00  0.00    +0.292 HD
ENDBRANCH  16  18
BRANCH  15  20
ATOM     20  O   UNL     1       0.576  -6.483  23.387  0.00  0.00    -0.503 OA
ATOM     21  H   UNL     1      -0.025  -6.677  24.135  0.00  0.00    +0.292 HD
ENDBRANCH  15  20
ENDBRANCH   5  12
BRANCH  10  22
ATOM     22  O   UNL     1       7.326   0.283  28.164  0.00  0.00    -0.506 OA
ATOM     23  H   UNL     1       6.722  -0.244  28.714  0.00  0.00    +0.292 HD
ENDBRANCH  10  22
BRANCH   6  24
ATOM     24  O   UNL     1       3.666  -3.360  27.770  0.00  0.00    -0.453 OA
BRANCH  24  25
ATOM     25  C   UNL     1       4.442  -4.169  28.677  0.00  0.00    +0.340 C 
ATOM     26  O   UNL     1       5.732  -4.557  28.166  0.00  0.00    -0.331 OA
ATOM     27  C   UNL     1       5.726  -5.349  26.966  0.00  0.00    +0.179 C 
ATOM     28  C   UNL     1       4.866  -6.610  27.163  0.00  0.00    +0.177 C 
ATOM     29  C   UNL     1       3.470  -6.210  27.647  0.00  0.00    +0.180 C 
ATOM     30  C   UNL     1       3.585  -5.419  28.958  0.00  0.00    +0.214 C 
BRANCH  30  31
ATOM     31  O   UNL     1       2.281  -5.058  29.448  0.00  0.00    -0.383 OA
ATOM     32  H   UNL     1       1.652  -5.316  28.748  0.00  0.00    +0.210 HD
ENDBRANCH  30  31
BRANCH  29  33
ATOM     33  O   UNL     1       2.640  -7.356  27.860  0.00  0.00    -0.386 OA
ATOM     34  H   UNL     1       2.133  -7.180  28.676  0.00  0.00    +0.210 HD
ENDBRANCH  29  33
BRANCH  28  35
ATOM     35  O   UNL     1       5.440  -7.496  28.144  0.00  0.00    -0.386 OA
ATOM     36  H   UNL     1       5.659  -6.972  28.940  0.00  0.00    +0.210 HD
ENDBRANCH  28  35
BRANCH  27  37
ATOM     37  C   UNL     1       7.182  -5.746  26.629  0.00  0.00    +0.190 C 
BRANCH  37  38
ATOM     38  O   UNL     1       7.964  -6.088  27.771  0.00  0.00    -0.392 OA
ATOM     39  H   UNL     1       8.560  -6.821  27.542  0.00  0.00    +0.210 HD
ENDBRANCH  37  38
ENDBRANCH  27  37
ENDBRANCH  24  25
ENDBRANCH   6  24
BRANCH   1  40
ATOM     40  O   UNL     1       8.732   0.875  23.715  0.00  0.00    -0.461 OA
BRANCH  40  43
ATOM     41  C   UNL     1       8.513   4.447  24.289  0.00  0.00    +0.198 C 
ATOM     42  O   UNL     1       8.133   3.131  23.892  0.00  0.00    -0.337 OA
ATOM     43  C   UNL     1       9.178   2.178  24.115  0.00  0.00    +0.339 C 
ATOM     44  C   UNL     1      10.392   2.546  23.231  0.00  0.00    +0.214 C 
ATOM     45  C   UNL     1      10.875   3.947  23.605  0.00  0.00    +0.180 C 
ATOM     46  C   UNL     1       9.724   4.964  23.514  0.00  0.00    +0.171 C 
BRANCH  46  47
ATOM     47  O   UNL     1      10.107   6.226  24.064  0.00  0.00    -0.387 OA
ATOM     48  H   UNL     1       9.382   6.856  23.893  0.00  0.00    +0.210 HD
ENDBRANCH  46  47
BRANCH  45  49
ATOM     49  O   UNL     1      11.940   4.358  22.738  0.00  0.00    -0.386 OA
ATOM     50  H   UNL     1      12.294   5.186  23.127  0.00  0.00    +0.210 HD
ENDBRANCH  45  49
BRANCH  44  51
ATOM     51  O   UNL     1      10.052   2.564  21.826  0.00  0.00    -0.383 OA
ATOM     52  H   UNL     1      10.327   3.438  21.482  0.00  0.00    +0.210 HD
ENDBRANCH  44  51
ENDBRANCH  40  43
ENDBRANCH   1  40
TORSDOF 16
ENDMDL
MODEL 8
REMARK VINA RESULT:      -6.9      2.259      4.935
REMARK  Name = 
REMARK  16 active torsions:
REMARK  status: ('A' for Active; 'I' for Inactive)
REMARK    1  A    between atoms: C_2  and  O_42
REMARK    2  A    between atoms: C_3  and  O_41
REMARK    3  A    between atoms: C_4  and  O_40
REMARK    4  A    between atoms: C_5  and  O_7
REMARK    5  A    between atoms: O_7  and  C_8
REMARK    6  A    between atoms: C_10  and  O_39
REMARK    7  A    between atoms: C_15  and  C_31
REMARK    8  A    between atoms: C_16  and  O_19
REMARK    9  A    between atoms: O_19  and  C_20
REMARK   10  A    between atoms: C_21  and  O_30
REMARK   11  A    between atoms: C_22  and  O_29
REMARK   12  A    between atoms: C_23  and  O_28
REMARK   13  A    between atoms: C_24  and  C_26
REMARK   14  A    between atoms: C_26  and  O_27
REMARK   15  A    between atoms: C_33  and  O_38
REMARK   16  A    between atoms: C_34  and  O_37
REMARK                            x       y       z     vdW  Elec       q    Type
REMARK                         _______ _______ _______ _____ _____    ______ ____
ROOT
ATOM      1  C   UNL     1       9.590   1.660  24.180  0.00  0.00    +0.131 A 
ATOM      2  C   UNL     1       8.903   0.880  25.113  0.00  0.00    +0.093 A 
ATOM      3  C   UNL     1       8.567  -0.444  24.807  0.00  0.00    +0.147 A 
ATOM      4  O   UNL     1       7.954  -1.187  25.784  0.00  0.00    -0.451 OA
ATOM      5  C   UNL     1       7.375  -2.403  25.432  0.00  0.00    +0.181 A 
ATOM      6  C   UNL     1       7.544  -2.994  24.223  0.00  0.00    +0.214 A 
ATOM      7  C   UNL     1       8.586  -2.391  23.338  0.00  0.00    +0.238 A 
ATOM      8  O   UNL     1       9.212  -3.051  22.521  0.00  0.00    -0.283 OA
ATOM      9  C   UNL     1       8.890  -0.972  23.563  0.00  0.00    +0.109 A 
ATOM     10  C   UNL     1       9.516  -0.171  22.609  0.00  0.00    +0.135 A 
ATOM     11  C   UNL     1       9.867   1.139  22.915  0.00  0.00    +0.092 A 
ENDROOT
BRANCH   5  12
ATOM     12  C   UNL     1       6.570  -2.994  26.548  0.00  0.00    +0.025 A 
ATOM     13  C   UNL     1       6.934  -4.247  27.081  0.00  0.00    +0.015 A 
ATOM     14  C   UNL     1       6.141  -4.889  28.048  0.00  0.00    +0.050 A 
ATOM     15  C   UNL     1       4.981  -4.279  28.490  0.00  0.00    +0.158 A 
ATOM     16  C   UNL     1       4.599  -3.042  27.979  0.00  0.00    +0.159 A 
ATOM     17  C   UNL     1       5.373  -2.406  27.007  0.00  0.00    +0.060 A 
BRANCH  16  18
ATOM     18  O   UNL     1       3.436  -2.499  28.461  0.00  0.00    -0.503 OA
ATOM     19  H   UNL     1       3.194  -2.972  29.280  0.00  0.00    +0.292 HD
ENDBRANCH  16  18
BRANCH  15  20
ATOM     20  O   UNL     1       4.209  -4.910  29.424  0.00  0.00    -0.503 OA
ATOM     21  H   UNL     1       4.372  -5.863  29.280  0.00  0.00    +0.292 HD
ENDBRANCH  15  20
ENDBRANCH   5  12
BRANCH  10  22
ATOM     22  O   UNL     1       9.776  -0.653  21.357  0.00  0.00    -0.506 OA
ATOM     23  H   UNL     1       9.919  -1.615  21.386  0.00  0.00    +0.292 HD
ENDBRANCH  10  22
BRANCH   6  24
ATOM     24  O   UNL     1       6.817  -4.094  23.854  0.00  0.00    -0.453 OA
BRANCH  24  25
ATOM     25  C   UNL     1       5.393  -4.013  23.641  0.00  0.00    +0.340 C 
ATOM     26  O   UNL     1       4.611  -4.786  24.572  0.00  0.00    -0.331 OA
ATOM     27  C   UNL     1       4.848  -6.204  24.572  0.00  0.00    +0.179 C 
ATOM     28  C   UNL     1       4.654  -6.779  23.158  0.00  0.00    +0.177 C 
ATOM     29  C   UNL     1       5.527  -6.007  22.165  0.00  0.00    +0.180 C 
ATOM     30  C   UNL     1       5.158  -4.517  22.203  0.00  0.00    +0.214 C 
BRANCH  30  31
ATOM     31  O   UNL     1       5.945  -3.775  21.255  0.00  0.00    -0.383 OA
ATOM     32  H   UNL     1       5.312  -3.432  20.594  0.00  0.00    +0.210 HD
ENDBRANCH  30  31
BRANCH  29  33
ATOM     33  O   UNL     1       5.365  -6.498  20.831  0.00  0.00    -0.386 OA
ATOM     34  H   UNL     1       4.873  -7.339  20.906  0.00  0.00    +0.210 HD
ENDBRANCH  29  33
BRANCH  28  35
ATOM     35  O   UNL     1       3.285  -6.670  22.724  0.00  0.00    -0.386 OA
ATOM     36  H   UNL     1       3.061  -5.722  22.650  0.00  0.00    +0.210 HD
ENDBRANCH  28  35
BRANCH  27  37
ATOM     37  C   UNL     1       3.859  -6.871  25.557  0.00  0.00    +0.190 C 
BRANCH  37  38
ATOM     38  O   UNL     1       2.535  -6.347  25.484  0.00  0.00    -0.392 OA
ATOM     39  H   UNL     1       2.188  -6.478  24.586  0.00  0.00    +0.210 HD
ENDBRANCH  37  38
ENDBRANCH  27  37
ENDBRANCH  24  25
ENDBRANCH   6  24
BRANCH   1  40
ATOM     40  O   UNL     1      10.010   2.947  24.373  0.00  0.00    -0.461 OA
BRANCH  40  43
ATOM     41  C   UNL     1       9.233   6.250  23.099  0.00  0.00    +0.198 C 
ATOM     42  O   UNL     1       9.704   5.235  23.984  0.00  0.00    -0.337 OA
ATOM     43  C   UNL     1       9.503   3.921  23.452  0.00  0.00    +0.339 C 
ATOM     44  C   UNL     1       7.986   3.668  23.296  0.00  0.00    +0.214 C 
ATOM     45  C   UNL     1       7.401   4.712  22.345  0.00  0.00    +0.180 C 
ATOM     46  C   UNL     1       7.734   6.134  22.823  0.00  0.00    +0.171 C 
BRANCH  46  47
ATOM     47  O   UNL     1       7.382   7.106  21.837  0.00  0.00    -0.387 OA
ATOM     48  H   UNL     1       8.204   7.542  21.543  0.00  0.00    +0.210 HD
ENDBRANCH  46  47
BRANCH  45  49
ATOM     49  O   UNL     1       5.977   4.564  22.253  0.00  0.00    -0.386 OA
ATOM     50  H   UNL     1       5.622   5.473  22.159  0.00  0.00    +0.210 HD
ENDBRANCH  45  49
BRANCH  44  51
ATOM     51  O   UNL     1       7.285   3.787  24.555  0.00  0.00    -0.383 OA
ATOM     52  H   UNL     1       7.593   3.048  25.119  0.00  0.00    +0.210 HD
ENDBRANCH  44  51
ENDBRANCH  40  43
ENDBRANCH   1  40
TORSDOF 16
ENDMDL
MODEL 9
REMARK VINA RESULT:      -6.9      2.514      9.558
REMARK  Name = 
REMARK  16 active torsions:
REMARK  status: ('A' for Active; 'I' for Inactive)
REMARK    1  A    between atoms: C_2  and  O_42
REMARK    2  A    between atoms: C_3  and  O_41
REMARK    3  A    between atoms: C_4  and  O_40
REMARK    4  A    between atoms: C_5  and  O_7
REMARK    5  A    between atoms: O_7  and  C_8
REMARK    6  A    between atoms: C_10  and  O_39
REMARK    7  A    between atoms: C_15  and  C_31
REMARK    8  A    between atoms: C_16  and  O_19
REMARK    9  A    between atoms: O_19  and  C_20
REMARK   10  A    between atoms: C_21  and  O_30
REMARK   11  A    between atoms: C_22  and  O_29
REMARK   12  A    between atoms: C_23  and  O_28
REMARK   13  A    between atoms: C_24  and  C_26
REMARK   14  A    between atoms: C_26  and  O_27
REMARK   15  A    between atoms: C_33  and  O_38
REMARK   16  A    between atoms: C_34  and  O_37
REMARK                            x       y       z     vdW  Elec       q    Type
REMARK                         _______ _______ _______ _____ _____    ______ ____
ROOT
ATOM      1  C   UNL     1       6.938  -3.644  24.358  0.00  0.00    +0.131 A 
ATOM      2  C   UNL     1       6.159  -2.486  24.295  0.00  0.00    +0.093 A 
ATOM      3  C   UNL     1       6.732  -1.279  23.879  0.00  0.00    +0.147 A 
ATOM      4  O   UNL     1       5.907  -0.187  23.769  0.00  0.00    -0.451 OA
ATOM      5  C   UNL     1       6.483   1.071  23.617  0.00  0.00    +0.181 A 
ATOM      6  C   UNL     1       7.802   1.269  23.378  0.00  0.00    +0.214 A 
ATOM      7  C   UNL     1       8.600   0.050  23.046  0.00  0.00    +0.238 A 
ATOM      8  O   UNL     1       9.587   0.090  22.326  0.00  0.00    -0.283 OA
ATOM      9  C   UNL     1       8.083  -1.226  23.557  0.00  0.00    +0.109 A 
ATOM     10  C   UNL     1       8.872  -2.367  23.684  0.00  0.00    +0.135 A 
ATOM     11  C   UNL     1       8.304  -3.572  24.081  0.00  0.00    +0.092 A 
ENDROOT
BRANCH   5  12
ATOM     12  C   UNL     1       5.474   2.174  23.722  0.00  0.00    +0.025 A 
ATOM     13  C   UNL     1       4.749   2.342  24.918  0.00  0.00    +0.015 A 
ATOM     14  C   UNL     1       3.715   3.288  25.020  0.00  0.00    +0.050 A 
ATOM     15  C   UNL     1       3.403   4.075  23.925  0.00  0.00    +0.158 A 
ATOM     16  C   UNL     1       4.105   3.928  22.732  0.00  0.00    +0.159 A 
ATOM     17  C   UNL     1       5.122   2.979  22.619  0.00  0.00    +0.060 A 
BRANCH  16  18
ATOM     18  O   UNL     1       3.740   4.739  21.689  0.00  0.00    -0.503 OA
ATOM     19  H   UNL     1       4.458   5.381  21.535  0.00  0.00    +0.292 HD
ENDBRANCH  16  18
BRANCH  15  20
ATOM     20  O   UNL     1       2.392   4.988  24.025  0.00  0.00    -0.503 OA
ATOM     21  H   UNL     1       2.806   5.775  24.433  0.00  0.00    +0.292 HD
ENDBRANCH  15  20
ENDBRANCH   5  12
BRANCH  10  22
ATOM     22  O   UNL     1      10.216  -2.314  23.441  0.00  0.00    -0.506 OA
ATOM     23  H   UNL     1      10.386  -2.183  22.492  0.00  0.00    +0.292 HD
ENDBRANCH  10  22
BRANCH   6  24
ATOM     24  O   UNL     1       8.358   2.520  23.415  0.00  0.00    -0.453 OA
BRANCH  24  25
ATOM     25  C   UNL     1       9.130   2.964  24.549  0.00  0.00    +0.340 C 
ATOM     26  O   UNL     1       8.340   3.509  25.624  0.00  0.00    -0.331 OA
ATOM     27  C   UNL     1       7.553   4.670  25.306  0.00  0.00    +0.179 C 
ATOM     28  C   UNL     1       8.449   5.781  24.730  0.00  0.00    +0.177 C 
ATOM     29  C   UNL     1       9.250   5.234  23.546  0.00  0.00    +0.180 C 
ATOM     30  C   UNL     1      10.094   4.035  24.003  0.00  0.00    +0.214 C 
BRANCH  30  31
ATOM     31  O   UNL     1      10.880   3.524  22.912  0.00  0.00    -0.383 OA
ATOM     32  H   UNL     1      10.283   3.503  22.140  0.00  0.00    +0.210 HD
ENDBRANCH  30  31
BRANCH  29  33
ATOM     33  O   UNL     1      10.111   6.232  22.989  0.00  0.00    -0.386 OA
ATOM     34  H   UNL     1      10.828   6.368  23.638  0.00  0.00    +0.210 HD
ENDBRANCH  29  33
BRANCH  28  35
ATOM     35  O   UNL     1       9.383   6.271  25.711  0.00  0.00    -0.386 OA
ATOM     36  H   UNL     1       9.012   6.103  26.600  0.00  0.00    +0.210 HD
ENDBRANCH  28  35
BRANCH  27  37
ATOM     37  C   UNL     1       6.857   5.163  26.596  0.00  0.00    +0.190 C 
BRANCH  37  38
ATOM     38  O   UNL     1       7.714   5.199  27.734  0.00  0.00    -0.392 OA
ATOM     39  H   UNL     1       8.213   6.033  27.733  0.00  0.00    +0.210 HD
ENDBRANCH  37  38
ENDBRANCH  27  37
ENDBRANCH  24  25
ENDBRANCH   6  24
BRANCH   1  40
ATOM     40  O   UNL     1       6.489  -4.888  24.707  0.00  0.00    -0.461 OA
BRANCH  40  43
ATOM     41  C   UNL     1       5.177  -3.797  27.904  0.00  0.00    +0.198 C 
ATOM     42  O   UNL     1       5.934  -3.785  26.695  0.00  0.00    -0.337 OA
ATOM     43  C   UNL     1       5.719  -4.965  25.913  0.00  0.00    +0.339 C 
ATOM     44  C   UNL     1       6.219  -6.194  26.707  0.00  0.00    +0.214 C 
ATOM     45  C   UNL     1       5.442  -6.289  28.021  0.00  0.00    +0.180 C 
ATOM     46  C   UNL     1       5.541  -4.972  28.810  0.00  0.00    +0.171 C 
BRANCH  46  47
ATOM     47  O   UNL     1       4.649  -4.974  29.927  0.00  0.00    -0.387 OA
ATOM     48  H   UNL     1       5.183  -5.116  30.731  0.00  0.00    +0.210 HD
ENDBRANCH  46  47
BRANCH  45  49
ATOM     49  O   UNL     1       5.947  -7.363  28.825  0.00  0.00    -0.386 OA
ATOM     50  H   UNL     1       5.968  -7.019  29.743  0.00  0.00    +0.210 HD
ENDBRANCH  45  49
BRANCH  44  51
ATOM     51  O   UNL     1       7.622  -6.089  27.039  0.00  0.00    -0.383 OA
ATOM     52  H   UNL     1       8.006  -6.981  26.921  0.00  0.00    +0.210 HD
ENDBRANCH  44  51
ENDBRANCH  40  43
ENDBRANCH   1  40
TORSDOF 16
ENDMDL
