MODEL 1
REMARK VINA RESULT:      -7.2      0.000      0.000
REMARK  Name = 
REMARK  15 active torsions:
REMARK  status: ('A' for Active; 'I' for Inactive)
REMARK    1  A    between atoms: C_1  and  C_2
REMARK    2  A    between atoms: C_4  and  O_50
REMARK    3  A    between atoms: C_6  and  O_49
REMARK    4  A    between atoms: C_8  and  O_48
REMARK    5  A    between atoms: C_10  and  O_13
REMARK    6  A    between atoms: O_13  and  C_14
REMARK    7  A    between atoms: C_16  and  O_47
REMARK    8  A    between atoms: C_18  and  O_46
REMARK    9  A    between atoms: C_22  and  O_24
REMARK   10  A    between atoms: O_24  and  C_25
REMARK   11  A    between atoms: C_26  and  C_38
REMARK   12  A    between atoms: C_30  and  O_37
REMARK   13  A    between atoms: C_32  and  O_36
REMARK   14  A    between atoms: C_40  and  O_45
REMARK   15  A    between atoms: C_41  and  O_44
REMARK                            x       y       z     vdW  Elec       q    Type
REMARK                         _______ _______ _______ _____ _____    ______ ____
ROOT
ATOM      1  O   UNL     1       6.227  -0.503  23.465  0.00  0.00    -0.453 OA
ENDROOT
BRANCH   1   2
ATOM      2  C   UNL     1       5.833  -1.591  24.261  0.00  0.00    +0.214 A 
ATOM      3  C   UNL     1       5.570  -2.962  23.673  0.00  0.00    +0.238 A 
ATOM      4  O   UNL     1       5.292  -3.130  22.491  0.00  0.00    -0.283 OA
ATOM      5  C   UNL     1       5.505  -4.108  24.591  0.00  0.00    +0.109 A 
ATOM      6  C   UNL     1       5.330  -3.824  25.934  0.00  0.00    +0.147 A 
ATOM      7  C   UNL     1       5.191  -4.853  26.872  0.00  0.00    +0.092 A 
ATOM      8  C   UNL     1       5.222  -6.175  26.440  0.00  0.00    +0.124 A 
ATOM      9  C   UNL     1       5.384  -6.478  25.094  0.00  0.00    +0.091 A 
ATOM     10  O   UNL     1       5.230  -2.546  26.403  0.00  0.00    -0.451 OA
ATOM     11  C   UNL     1       5.527  -5.445  24.168  0.00  0.00    +0.135 A 
ATOM     12  C   UNL     1       5.573  -1.463  25.589  0.00  0.00    +0.181 A 
BRANCH  12  13
ATOM     13  C   UNL     1       5.529  -0.192  26.395  0.00  0.00    +0.025 A 
ATOM     14  C   UNL     1       4.265   0.369  26.723  0.00  0.00    +0.015 A 
ATOM     15  C   UNL     1       4.136   1.640  27.294  0.00  0.00    +0.050 A 
ATOM     16  C   UNL     1       5.275   2.367  27.573  0.00  0.00    +0.158 A 
ATOM     17  C   UNL     1       6.529   1.827  27.311  0.00  0.00    +0.159 A 
ATOM     18  C   UNL     1       6.665   0.567  26.717  0.00  0.00    +0.060 A 
BRANCH  16  19
ATOM     19  O   UNL     1       5.154   3.625  28.086  0.00  0.00    -0.503 OA
ATOM     20  H   UNL     1       5.497   4.212  27.382  0.00  0.00    +0.292 HD
ENDBRANCH  16  19
BRANCH  17  21
ATOM     21  O   UNL     1       7.618   2.593  27.631  0.00  0.00    -0.503 OA
ATOM     22  H   UNL     1       7.318   3.369  28.147  0.00  0.00    +0.292 HD
ENDBRANCH  17  21
ENDBRANCH  12  13
BRANCH   8  23
ATOM     23  O   UNL     1       5.092  -7.217  27.307  0.00  0.00    -0.507 OA
ATOM     24  H   UNL     1       5.873  -7.791  27.246  0.00  0.00    +0.292 HD
ENDBRANCH   8  23
BRANCH  11  25
ATOM     25  O   UNL     1       5.689  -5.763  22.851  0.00  0.00    -0.506 OA
ATOM     26  H   UNL     1       4.825  -5.885  22.427  0.00  0.00    +0.292 HD
ENDBRANCH  11  25
ENDBRANCH   1   2
BRANCH   1  28
ATOM     27  C   UNL     1       8.085   0.890  22.593  0.00  0.00    +0.221 C 
ATOM     28  C   UNL     1       7.549  -0.535  22.895  0.00  0.00    +0.340 C 
ATOM     29  O   UNL     1       8.496  -1.177  23.765  0.00  0.00    -0.337 OA
ATOM     30  C   UNL     1       9.719  -1.477  23.064  0.00  0.00    +0.198 C 
ATOM     31  C   UNL     1      10.443  -0.177  22.699  0.00  0.00    +0.171 C 
ATOM     32  C   UNL     1       9.478   0.725  21.923  0.00  0.00    +0.180 C 
BRANCH  31  33
ATOM     33  O   UNL     1      10.943   0.460  23.873  0.00  0.00    -0.387 OA
ATOM     34  H   UNL     1      10.206   0.506  24.516  0.00  0.00    +0.210 HD
ENDBRANCH  31  33
BRANCH  32  35
ATOM     35  O   UNL     1      10.038   2.002  21.616  0.00  0.00    -0.386 OA
ATOM     36  H   UNL     1      10.617   2.219  22.372  0.00  0.00    +0.210 HD
ENDBRANCH  32  35
BRANCH  27  37
ATOM     37  O   UNL     1       7.209   1.746  21.810  0.00  0.00    -0.337 OA
BRANCH  37  41
ATOM     38  C   UNL     1       7.331   5.951  22.009  0.00  0.00    +0.041 C 
ATOM     39  C   UNL     1       7.847   5.061  23.133  0.00  0.00    +0.149 C 
ATOM     40  O   UNL     1       8.031   3.717  22.700  0.00  0.00    -0.343 OA
ATOM     41  C   UNL     1       6.848   2.983  22.425  0.00  0.00    +0.282 C 
ATOM     42  C   UNL     1       6.099   2.758  23.750  0.00  0.00    +0.201 C 
ATOM     43  C   UNL     1       5.802   4.136  24.387  0.00  0.00    +0.179 C 
ATOM     44  C   UNL     1       7.049   5.040  24.443  0.00  0.00    +0.174 C 
BRANCH  42  45
ATOM     45  O   UNL     1       4.879   2.026  23.548  0.00  0.00    -0.384 OA
ATOM     46  H   UNL     1       5.040   1.120  23.884  0.00  0.00    +0.210 HD
ENDBRANCH  42  45
BRANCH  43  47
ATOM     47  O   UNL     1       4.699   4.752  23.703  0.00  0.00    -0.386 OA
ATOM     48  H   UNL     1       3.882   4.243  23.830  0.00  0.00    +0.210 HD
ENDBRANCH  43  47
BRANCH  44  49
ATOM     49  O   UNL     1       7.918   4.518  25.465  0.00  0.00    -0.387 OA
ATOM     50  H   UNL     1       7.397   4.394  26.283  0.00  0.00    +0.210 HD
ENDBRANCH  44  49
ENDBRANCH  37  41
ENDBRANCH  27  37
ENDBRANCH   1  28
TORSDOF 14
ENDMDL
MODEL 2
REMARK VINA RESULT:      -7.2      2.566      8.044
REMARK  Name = 
REMARK  15 active torsions:
REMARK  status: ('A' for Active; 'I' for Inactive)
REMARK    1  A    between atoms: C_1  and  C_2
REMARK    2  A    between atoms: C_4  and  O_50
REMARK    3  A    between atoms: C_6  and  O_49
REMARK    4  A    between atoms: C_8  and  O_48
REMARK    5  A    between atoms: C_10  and  O_13
REMARK    6  A    between atoms: O_13  and  C_14
REMARK    7  A    between atoms: C_16  and  O_47
REMARK    8  A    between atoms: C_18  and  O_46
REMARK    9  A    between atoms: C_22  and  O_24
REMARK   10  A    between atoms: O_24  and  C_25
REMARK   11  A    between atoms: C_26  and  C_38
REMARK   12  A    between atoms: C_30  and  O_37
REMARK   13  A    between atoms: C_32  and  O_36
REMARK   14  A    between atoms: C_40  and  O_45
REMARK   15  A    between atoms: C_41  and  O_44
REMARK                            x       y       z     vdW  Elec       q    Type
REMARK                         _______ _______ _______ _____ _____    ______ ____
ROOT
ATOM      1  O   UNL     1       7.189  -3.969  25.392  0.00  0.00    -0.453 OA
ENDROOT
BRANCH   1   2
ATOM      2  C   UNL     1       7.514  -2.684  24.928  0.00  0.00    +0.214 A 
ATOM      3  C   UNL     1       8.737  -2.425  24.072  0.00  0.00    +0.238 A 
ATOM      4  O   UNL     1       9.704  -3.179  24.058  0.00  0.00    -0.283 OA
ATOM      5  C   UNL     1       8.818  -1.148  23.349  0.00  0.00    +0.109 A 
ATOM      6  C   UNL     1       7.970  -0.137  23.769  0.00  0.00    +0.147 A 
ATOM      7  C   UNL     1       8.024   1.133  23.183  0.00  0.00    +0.092 A 
ATOM      8  C   UNL     1       8.948   1.376  22.172  0.00  0.00    +0.124 A 
ATOM      9  C   UNL     1       9.815   0.377  21.747  0.00  0.00    +0.091 A 
ATOM     10  O   UNL     1       7.089  -0.303  24.798  0.00  0.00    -0.451 OA
ATOM     11  C   UNL     1       9.750  -0.887  22.334  0.00  0.00    +0.135 A 
ATOM     12  C   UNL     1       6.810  -1.580  25.292  0.00  0.00    +0.181 A 
BRANCH  12  13
ATOM     13  C   UNL     1       5.695  -1.498  26.301  0.00  0.00    +0.025 A 
ATOM     14  C   UNL     1       4.419  -2.024  25.958  0.00  0.00    +0.015 A 
ATOM     15  C   UNL     1       3.286  -1.816  26.751  0.00  0.00    +0.050 A 
ATOM     16  C   UNL     1       3.411  -1.097  27.922  0.00  0.00    +0.158 A 
ATOM     17  C   UNL     1       4.655  -0.611  28.313  0.00  0.00    +0.159 A 
ATOM     18  C   UNL     1       5.787  -0.795  27.512  0.00  0.00    +0.060 A 
BRANCH  16  19
ATOM     19  O   UNL     1       2.302  -0.851  28.676  0.00  0.00    -0.503 OA
ATOM     20  H   UNL     1       2.428  -1.388  29.484  0.00  0.00    +0.292 HD
ENDBRANCH  16  19
BRANCH  17  21
ATOM     21  O   UNL     1       4.713   0.076  29.496  0.00  0.00    -0.503 OA
ATOM     22  H   UNL     1       5.281   0.863  29.376  0.00  0.00    +0.292 HD
ENDBRANCH  17  21
ENDBRANCH  12  13
BRANCH   8  23
ATOM     23  O   UNL     1       9.046   2.591  21.566  0.00  0.00    -0.507 OA
ATOM     24  H   UNL     1       9.702   2.546  20.850  0.00  0.00    +0.292 HD
ENDBRANCH   8  23
BRANCH  11  25
ATOM     25  O   UNL     1      10.606  -1.856  21.900  0.00  0.00    -0.506 OA
ATOM     26  H   UNL     1      10.927  -2.380  22.651  0.00  0.00    +0.292 HD
ENDBRANCH  11  25
ENDBRANCH   1   2
BRANCH   1  28
ATOM     27  C   UNL     1       5.470  -5.742  25.162  0.00  0.00    +0.221 C 
ATOM     28  C   UNL     1       6.553  -4.873  24.469  0.00  0.00    +0.340 C 
ATOM     29  O   UNL     1       5.919  -4.177  23.383  0.00  0.00    -0.337 OA
ATOM     30  C   UNL     1       5.566  -5.087  22.323  0.00  0.00    +0.198 C 
ATOM     31  C   UNL     1       4.456  -6.032  22.796  0.00  0.00    +0.171 C 
ATOM     32  C   UNL     1       4.908  -6.717  24.090  0.00  0.00    +0.180 C 
BRANCH  31  33
ATOM     33  O   UNL     1       3.235  -5.316  22.967  0.00  0.00    -0.387 OA
ATOM     34  H   UNL     1       3.353  -4.435  22.558  0.00  0.00    +0.210 HD
ENDBRANCH  31  33
BRANCH  32  35
ATOM     35  O   UNL     1       3.898  -7.552  24.656  0.00  0.00    -0.386 OA
ATOM     36  H   UNL     1       4.181  -7.713  25.577  0.00  0.00    +0.210 HD
ENDBRANCH  32  35
BRANCH  27  37
ATOM     37  O   UNL     1       5.891  -6.445  26.362  0.00  0.00    -0.337 OA
BRANCH  37  41
ATOM     38  C   UNL     1       2.001  -6.100  27.941  0.00  0.00    +0.041 C 
ATOM     39  C   UNL     1       3.100  -5.086  28.236  0.00  0.00    +0.149 C 
ATOM     40  O   UNL     1       4.190  -5.210  27.328  0.00  0.00    -0.343 OA
ATOM     41  C   UNL     1       4.987  -6.375  27.465  0.00  0.00    +0.282 C 
ATOM     42  C   UNL     1       5.738  -6.293  28.806  0.00  0.00    +0.201 C 
ATOM     43  C   UNL     1       4.699  -6.153  29.944  0.00  0.00    +0.179 C 
ATOM     44  C   UNL     1       3.663  -5.046  29.663  0.00  0.00    +0.174 C 
BRANCH  42  45
ATOM     45  O   UNL     1       6.562  -7.451  29.020  0.00  0.00    -0.384 OA
ATOM     46  H   UNL     1       6.645  -7.896  28.151  0.00  0.00    +0.210 HD
ENDBRANCH  42  45
BRANCH  43  47
ATOM     47  O   UNL     1       4.093  -7.430  30.198  0.00  0.00    -0.386 OA
ATOM     48  H   UNL     1       4.011  -7.947  29.380  0.00  0.00    +0.210 HD
ENDBRANCH  43  47
BRANCH  44  49
ATOM     49  O   UNL     1       4.327  -3.779  29.825  0.00  0.00    -0.387 OA
ATOM     50  H   UNL     1       3.917  -3.308  30.578  0.00  0.00    +0.210 HD
ENDBRANCH  44  49
ENDBRANCH  37  41
ENDBRANCH  27  37
ENDBRANCH   1  28
TORSDOF 14
ENDMDL
MODEL 3
REMARK VINA RESULT:      -6.9      1.743      4.525
REMARK  Name = 
REMARK  15 active torsions:
REMARK  status: ('A' for Active; 'I' for Inactive)
REMARK    1  A    between atoms: C_1  and  C_2
REMARK    2  A    between atoms: C_4  and  O_50
REMARK    3  A    between atoms: C_6  and  O_49
REMARK    4  A    between atoms: C_8  and  O_48
REMARK    5  A    between atoms: C_10  and  O_13
REMARK    6  A    between atoms: O_13  and  C_14
REMARK    7  A    between atoms: C_16  and  O_47
REMARK    8  A    between atoms: C_18  and  O_46
REMARK    9  A    between atoms: C_22  and  O_24
REMARK   10  A    between atoms: O_24  and  C_25
REMARK   11  A    between atoms: C_26  and  C_38
REMARK   12  A    between atoms: C_30  and  O_37
REMARK   13  A    between atoms: C_32  and  O_36
REMARK   14  A    between atoms: C_40  and  O_45
REMARK   15  A    between atoms: C_41  and  O_44
REMARK                            x       y       z     vdW  Elec       q    Type
REMARK                         _______ _______ _______ _____ _____    ______ ____
ROOT
ATOM      1  O   UNL     1       5.867   0.429  24.600  0.00  0.00    -0.453 OA
ENDROOT
BRANCH   1   2
ATOM      2  C   UNL     1       6.194  -0.889  24.246  0.00  0.00    +0.214 A 
ATOM      3  C   UNL     1       5.248  -2.046  24.492  0.00  0.00    +0.238 A 
ATOM      4  O   UNL     1       4.358  -2.002  25.335  0.00  0.00    -0.283 OA
ATOM      5  C   UNL     1       5.505  -3.312  23.793  0.00  0.00    +0.109 A 
ATOM      6  C   UNL     1       6.767  -3.481  23.250  0.00  0.00    +0.147 A 
ATOM      7  C   UNL     1       7.123  -4.681  22.624  0.00  0.00    +0.092 A 
ATOM      8  C   UNL     1       6.194  -5.714  22.557  0.00  0.00    +0.124 A 
ATOM      9  C   UNL     1       4.927  -5.567  23.107  0.00  0.00    +0.091 A 
ATOM     10  O   UNL     1       7.735  -2.525  23.342  0.00  0.00    -0.451 OA
ATOM     11  C   UNL     1       4.581  -4.365  23.725  0.00  0.00    +0.135 A 
ATOM     12  C   UNL     1       7.413  -1.227  23.747  0.00  0.00    +0.181 A 
BRANCH  12  13
ATOM     13  C   UNL     1       8.621  -0.339  23.606  0.00  0.00    +0.025 A 
ATOM     14  C   UNL     1       9.536  -0.248  24.690  0.00  0.00    +0.015 A 
ATOM     15  C   UNL     1      10.570   0.693  24.721  0.00  0.00    +0.050 A 
ATOM     16  C   UNL     1      10.727   1.550  23.650  0.00  0.00    +0.158 A 
ATOM     17  C   UNL     1       9.880   1.455  22.551  0.00  0.00    +0.159 A 
ATOM     18  C   UNL     1       8.829   0.532  22.525  0.00  0.00    +0.060 A 
BRANCH  16  19
ATOM     19  O   UNL     1      11.703   2.501  23.694  0.00  0.00    -0.503 OA
ATOM     20  H   UNL     1      12.540   1.996  23.698  0.00  0.00    +0.292 HD
ENDBRANCH  16  19
BRANCH  17  21
ATOM     21  O   UNL     1      10.103   2.321  21.514  0.00  0.00    -0.503 OA
ATOM     22  H   UNL     1       9.930   3.233  21.822  0.00  0.00    +0.292 HD
ENDBRANCH  17  21
ENDBRANCH  12  13
BRANCH   8  23
ATOM     23  O   UNL     1       6.484  -6.904  21.961  0.00  0.00    -0.507 OA
ATOM     24  H   UNL     1       5.666  -7.415  21.838  0.00  0.00    +0.292 HD
ENDBRANCH   8  23
BRANCH  11  25
ATOM     25  O   UNL     1       3.330  -4.237  24.256  0.00  0.00    -0.506 OA
ATOM     26  H   UNL     1       3.216  -4.855  24.996  0.00  0.00    +0.292 HD
ENDBRANCH  11  25
ENDBRANCH   1   2
BRANCH   1  28
ATOM     27  C   UNL     1       6.613   2.267  26.089  0.00  0.00    +0.221 C 
ATOM     28  C   UNL     1       6.061   0.822  25.972  0.00  0.00    +0.340 C 
ATOM     29  O   UNL     1       4.840   0.763  26.727  0.00  0.00    -0.337 OA
ATOM     30  C   UNL     1       5.103   0.852  28.141  0.00  0.00    +0.198 C 
ATOM     31  C   UNL     1       5.631   2.248  28.486  0.00  0.00    +0.171 C 
ATOM     32  C   UNL     1       6.844   2.551  27.599  0.00  0.00    +0.180 C 
BRANCH  31  33
ATOM     33  O   UNL     1       4.600   3.221  28.332  0.00  0.00    -0.387 OA
ATOM     34  H   UNL     1       3.919   2.834  27.744  0.00  0.00    +0.210 HD
ENDBRANCH  31  33
BRANCH  32  35
ATOM     35  O   UNL     1       7.352   3.872  27.787  0.00  0.00    -0.386 OA
ATOM     36  H   UNL     1       6.626   4.371  28.211  0.00  0.00    +0.210 HD
ENDBRANCH  32  35
BRANCH  27  37
ATOM     37  O   UNL     1       7.796   2.563  25.298  0.00  0.00    -0.337 OA
BRANCH  37  41
ATOM     38  C   UNL     1       9.263   6.286  23.984  0.00  0.00    +0.041 C 
ATOM     39  C   UNL     1       7.889   6.124  24.623  0.00  0.00    +0.149 C 
ATOM     40  O   UNL     1       7.763   4.876  25.297  0.00  0.00    -0.343 OA
ATOM     41  C   UNL     1       7.709   3.724  24.471  0.00  0.00    +0.282 C 
ATOM     42  C   UNL     1       6.389   3.757  23.681  0.00  0.00    +0.201 C 
ATOM     43  C   UNL     1       6.338   5.069  22.863  0.00  0.00    +0.179 C 
ATOM     44  C   UNL     1       6.662   6.309  23.719  0.00  0.00    +0.174 C 
BRANCH  42  45
ATOM     45  O   UNL     1       6.269   2.620  22.810  0.00  0.00    -0.384 OA
ATOM     46  H   UNL     1       6.259   2.971  21.895  0.00  0.00    +0.210 HD
ENDBRANCH  42  45
BRANCH  43  47
ATOM     47  O   UNL     1       7.191   4.950  21.713  0.00  0.00    -0.386 OA
ATOM     48  H   UNL     1       6.677   5.001  20.891  0.00  0.00    +0.210 HD
ENDBRANCH  43  47
BRANCH  44  49
ATOM     49  O   UNL     1       5.532   6.551  24.578  0.00  0.00    -0.387 OA
ATOM     50  H   UNL     1       5.607   7.454  24.944  0.00  0.00    +0.210 HD
ENDBRANCH  44  49
ENDBRANCH  37  41
ENDBRANCH  27  37
ENDBRANCH   1  28
TORSDOF 14
ENDMDL
MODEL 4
REMARK VINA RESULT:      -6.7      2.073      6.265
REMARK  Name = 
REMARK  15 active torsions:
REMARK  status: ('A' for Active; 'I' for Inactive)
REMARK    1  A    between atoms: C_1  and  C_2
REMARK    2  A    between atoms: C_4  and  O_50
REMARK    3  A    between atoms: C_6  and  O_49
REMARK    4  A    between atoms: C_8  and  O_48
REMARK    5  A    between atoms: C_10  and  O_13
REMARK    6  A    between atoms: O_13  and  C_14
REMARK    7  A    between atoms: C_16  and  O_47
REMARK    8  A    between atoms: C_18  and  O_46
REMARK    9  A    between atoms: C_22  and  O_24
REMARK   10  A    between atoms: O_24  and  C_25
REMARK   11  A    between atoms: C_26  and  C_38
REMARK   12  A    between atoms: C_30  and  O_37
REMARK   13  A    between atoms: C_32  and  O_36
REMARK   14  A    between atoms: C_40  and  O_45
REMARK   15  A    between atoms: C_41  and  O_44
REMARK                            x       y       z     vdW  Elec       q    Type
REMARK                         _______ _______ _______ _____ _____    ______ ____
ROOT
ATOM      1  O   UNL     1       7.124  -3.305  25.741  0.00  0.00    -0.453 OA
ENDROOT
BRANCH   1   2
ATOM      2  C   UNL     1       6.474  -2.418  26.613  0.00  0.00    +0.214 A 
ATOM      3  C   UNL     1       7.018  -1.036  26.905  0.00  0.00    +0.238 A 
ATOM      4  O   UNL     1       8.199  -0.744  26.746  0.00  0.00    -0.283 OA
ATOM      5  C   UNL     1       6.122  -0.058  27.538  0.00  0.00    +0.109 A 
ATOM      6  C   UNL     1       4.982  -0.556  28.143  0.00  0.00    +0.147 A 
ATOM      7  C   UNL     1       4.104   0.293  28.828  0.00  0.00    +0.092 A 
ATOM      8  C   UNL     1       4.393   1.652  28.901  0.00  0.00    +0.124 A 
ATOM      9  C   UNL     1       5.539   2.167  28.310  0.00  0.00    +0.091 A 
ATOM     10  O   UNL     1       4.683  -1.887  28.155  0.00  0.00    -0.451 OA
ATOM     11  C   UNL     1       6.404   1.313  27.626  0.00  0.00    +0.135 A 
ATOM     12  C   UNL     1       5.370  -2.775  27.323  0.00  0.00    +0.181 A 
BRANCH  12  13
ATOM     13  C   UNL     1       4.741  -4.140  27.411  0.00  0.00    +0.025 A 
ATOM     14  C   UNL     1       3.348  -4.270  27.161  0.00  0.00    +0.015 A 
ATOM     15  C   UNL     1       2.650  -5.457  27.411  0.00  0.00    +0.050 A 
ATOM     16  C   UNL     1       3.341  -6.551  27.892  0.00  0.00    +0.158 A 
ATOM     17  C   UNL     1       4.714  -6.473  28.099  0.00  0.00    +0.159 A 
ATOM     18  C   UNL     1       5.413  -5.282  27.875  0.00  0.00    +0.060 A 
BRANCH  16  19
ATOM     19  O   UNL     1       2.659  -7.696  28.182  0.00  0.00    -0.503 OA
ATOM     20  H   UNL     1       3.333  -8.296  28.557  0.00  0.00    +0.292 HD
ENDBRANCH  16  19
BRANCH  17  21
ATOM     21  O   UNL     1       5.341  -7.600  28.558  0.00  0.00    -0.503 OA
ATOM     22  H   UNL     1       4.700  -8.131  29.072  0.00  0.00    +0.292 HD
ENDBRANCH  17  21
ENDBRANCH  12  13
BRANCH   8  23
ATOM     23  O   UNL     1       3.576   2.525  29.554  0.00  0.00    -0.507 OA
ATOM     24  H   UNL     1       4.045   2.901  30.317  0.00  0.00    +0.292 HD
ENDBRANCH   8  23
BRANCH  11  25
ATOM     25  O   UNL     1       7.523   1.839  27.048  0.00  0.00    -0.506 OA
ATOM     26  H   UNL     1       7.695   1.405  26.197  0.00  0.00    +0.292 HD
ENDBRANCH  11  25
ENDBRANCH   1   2
BRANCH   1  28
ATOM     27  C   UNL     1       6.494  -3.146  23.347  0.00  0.00    +0.221 C 
ATOM     28  C   UNL     1       6.342  -3.906  24.691  0.00  0.00    +0.340 C 
ATOM     29  O   UNL     1       6.713  -5.274  24.458  0.00  0.00    -0.337 OA
ATOM     30  C   UNL     1       5.732  -5.944  23.642  0.00  0.00    +0.198 C 
ATOM     31  C   UNL     1       5.745  -5.359  22.226  0.00  0.00    +0.171 C 
ATOM     32  C   UNL     1       5.559  -3.840  22.318  0.00  0.00    +0.180 C 
BRANCH  31  33
ATOM     33  O   UNL     1       6.953  -5.710  21.555  0.00  0.00    -0.387 OA
ATOM     34  H   UNL     1       7.583  -6.025  22.234  0.00  0.00    +0.210 HD
ENDBRANCH  31  33
BRANCH  32  35
ATOM     35  O   UNL     1       5.647  -3.194  21.047  0.00  0.00    -0.386 OA
ATOM     36  H   UNL     1       6.334  -2.506  21.154  0.00  0.00    +0.210 HD
ENDBRANCH  32  35
BRANCH  27  37
ATOM     37  O   UNL     1       6.268  -1.711  23.398  0.00  0.00    -0.337 OA
BRANCH  37  41
ATOM     38  C   UNL     1      10.239  -1.257  22.067  0.00  0.00    +0.041 C 
ATOM     39  C   UNL     1       9.776  -0.791  23.443  0.00  0.00    +0.149 C 
ATOM     40  O   UNL     1       8.520  -1.362  23.798  0.00  0.00    -0.343 OA
ATOM     41  C   UNL     1       7.395  -0.899  23.068  0.00  0.00    +0.282 C 
ATOM     42  C   UNL     1       7.155   0.576  23.435  0.00  0.00    +0.201 C 
ATOM     43  C   UNL     1       8.437   1.379  23.112  0.00  0.00    +0.179 C 
ATOM     44  C   UNL     1       9.705   0.721  23.691  0.00  0.00    +0.174 C 
BRANCH  42  45
ATOM     45  O   UNL     1       6.031   1.119  22.722  0.00  0.00    -0.384 OA
ATOM     46  H   UNL     1       6.296   1.164  21.780  0.00  0.00    +0.210 HD
ENDBRANCH  42  45
BRANCH  43  47
ATOM     47  O   UNL     1       8.521   1.597  21.694  0.00  0.00    -0.386 OA
ATOM     48  H   UNL     1       8.198   2.481  21.458  0.00  0.00    +0.210 HD
ENDBRANCH  43  47
BRANCH  44  49
ATOM     49  O   UNL     1       9.685   0.920  25.117  0.00  0.00    -0.387 OA
ATOM     50  H   UNL     1       9.226   0.161  25.529  0.00  0.00    +0.210 HD
ENDBRANCH  44  49
ENDBRANCH  37  41
ENDBRANCH  27  37
ENDBRANCH   1  28
TORSDOF 14
ENDMDL
MODEL 5
REMARK VINA RESULT:      -6.6      2.240      7.689
REMARK  Name = 
REMARK  15 active torsions:
REMARK  status: ('A' for Active; 'I' for Inactive)
REMARK    1  A    between atoms: C_1  and  C_2
REMARK    2  A    between atoms: C_4  and  O_50
REMARK    3  A    between atoms: C_6  and  O_49
REMARK    4  A    between atoms: C_8  and  O_48
REMARK    5  A    between atoms: C_10  and  O_13
REMARK    6  A    between atoms: O_13  and  C_14
REMARK    7  A    between atoms: C_16  and  O_47
REMARK    8  A    between atoms: C_18  and  O_46
REMARK    9  A    between atoms: C_22  and  O_24
REMARK   10  A    between atoms: O_24  and  C_25
REMARK   11  A    between atoms: C_26  and  C_38
REMARK   12  A    between atoms: C_30  and  O_37
REMARK   13  A    between atoms: C_32  and  O_36
REMARK   14  A    between atoms: C_40  and  O_45
REMARK   15  A    between atoms: C_41  and  O_44
REMARK                            x       y       z     vdW  Elec       q    Type
REMARK                         _______ _______ _______ _____ _____    ______ ____
ROOT
ATOM      1  O   UNL     1       6.321  -1.665  24.701  0.00  0.00    -0.453 OA
ENDROOT
BRANCH   1   2
ATOM      2  C   UNL     1       5.997  -0.520  25.445  0.00  0.00    +0.214 A 
ATOM      3  C   UNL     1       4.806  -0.479  26.379  0.00  0.00    +0.238 A 
ATOM      4  O   UNL     1       3.851  -1.240  26.263  0.00  0.00    -0.283 OA
ATOM      5  C   UNL     1       4.736   0.608  27.365  0.00  0.00    +0.109 A 
ATOM      6  C   UNL     1       5.552   1.704  27.146  0.00  0.00    +0.147 A 
ATOM      7  C   UNL     1       5.504   2.815  27.996  0.00  0.00    +0.092 A 
ATOM      8  C   UNL     1       4.617   2.812  29.068  0.00  0.00    +0.124 A 
ATOM      9  C   UNL     1       3.782   1.726  29.296  0.00  0.00    +0.091 A 
ATOM     10  O   UNL     1       6.394   1.785  26.075  0.00  0.00    -0.451 OA
ATOM     11  C   UNL     1       3.841   0.622  28.445  0.00  0.00    +0.135 A 
ATOM     12  C   UNL     1       6.672   0.653  25.305  0.00  0.00    +0.181 A 
BRANCH  12  13
ATOM     13  C   UNL     1       7.745   0.976  24.299  0.00  0.00    +0.025 A 
ATOM     14  C   UNL     1       8.984   1.497  24.762  0.00  0.00    +0.015 A 
ATOM     15  C   UNL     1       9.955   2.004  23.892  0.00  0.00    +0.050 A 
ATOM     16  C   UNL     1       9.715   1.977  22.533  0.00  0.00    +0.158 A 
ATOM     17  C   UNL     1       8.535   1.429  22.044  0.00  0.00    +0.159 A 
ATOM     18  C   UNL     1       7.549   0.942  22.910  0.00  0.00    +0.060 A 
BRANCH  16  19
ATOM     19  O   UNL     1      10.637   2.513  21.683  0.00  0.00    -0.503 OA
ATOM     20  H   UNL     1      11.492   2.406  22.146  0.00  0.00    +0.292 HD
ENDBRANCH  16  19
BRANCH  17  21
ATOM     21  O   UNL     1       8.370   1.414  20.685  0.00  0.00    -0.503 OA
ATOM     22  H   UNL     1       7.714   0.725  20.453  0.00  0.00    +0.292 HD
ENDBRANCH  17  21
ENDBRANCH  12  13
BRANCH   8  23
ATOM     23  O   UNL     1       4.526   3.865  29.927  0.00  0.00    -0.507 OA
ATOM     24  H   UNL     1       3.591   4.082  30.078  0.00  0.00    +0.292 HD
ENDBRANCH   8  23
BRANCH  11  25
ATOM     25  O   UNL     1       3.016  -0.437  28.688  0.00  0.00    -0.506 OA
ATOM     26  H   UNL     1       3.534  -1.206  28.977  0.00  0.00    +0.292 HD
ENDBRANCH  11  25
ENDBRANCH   1   2
BRANCH   1  28
ATOM     27  C   UNL     1       6.940  -3.873  25.646  0.00  0.00    +0.221 C 
ATOM     28  C   UNL     1       7.417  -2.477  25.165  0.00  0.00    +0.340 C 
ATOM     29  O   UNL     1       8.403  -2.687  24.141  0.00  0.00    -0.337 OA
ATOM     30  C   UNL     1       9.618  -3.224  24.698  0.00  0.00    +0.198 C 
ATOM     31  C   UNL     1       9.373  -4.648  25.209  0.00  0.00    +0.171 C 
ATOM     32  C   UNL     1       8.190  -4.626  26.182  0.00  0.00    +0.180 C 
BRANCH  31  33
ATOM     33  O   UNL     1       9.151  -5.536  24.116  0.00  0.00    -0.387 OA
ATOM     34  H   UNL     1       8.345  -6.053  24.320  0.00  0.00    +0.210 HD
ENDBRANCH  31  33
BRANCH  32  35
ATOM     35  O   UNL     1       7.828  -5.928  26.644  0.00  0.00    -0.386 OA
ATOM     36  H   UNL     1       7.054  -6.187  26.106  0.00  0.00    +0.210 HD
ENDBRANCH  32  35
BRANCH  27  37
ATOM     37  O   UNL     1       5.854  -3.876  26.612  0.00  0.00    -0.337 OA
BRANCH  37  41
ATOM     38  C   UNL     1       2.955  -6.770  27.594  0.00  0.00    +0.041 C 
ATOM     39  C   UNL     1       3.971  -6.973  26.476  0.00  0.00    +0.149 C 
ATOM     40  O   UNL     1       5.048  -6.044  26.567  0.00  0.00    -0.343 OA
ATOM     41  C   UNL     1       4.732  -4.693  26.274  0.00  0.00    +0.282 C 
ATOM     42  C   UNL     1       4.390  -4.591  24.777  0.00  0.00    +0.201 C 
ATOM     43  C   UNL     1       3.213  -5.548  24.474  0.00  0.00    +0.179 C 
ATOM     44  C   UNL     1       3.449  -6.965  25.034  0.00  0.00    +0.174 C 
BRANCH  42  45
ATOM     45  O   UNL     1       4.048  -3.244  24.406  0.00  0.00    -0.384 OA
ATOM     46  H   UNL     1       3.772  -3.277  23.466  0.00  0.00    +0.210 HD
ENDBRANCH  42  45
BRANCH  43  47
ATOM     47  O   UNL     1       1.987  -4.962  24.942  0.00  0.00    -0.386 OA
ATOM     48  H   UNL     1       1.761  -4.170  24.428  0.00  0.00    +0.210 HD
ENDBRANCH  43  47
BRANCH  44  49
ATOM     49  O   UNL     1       4.451  -7.594  24.213  0.00  0.00    -0.387 OA
ATOM     50  H   UNL     1       4.143  -7.584  23.285  0.00  0.00    +0.210 HD
ENDBRANCH  44  49
ENDBRANCH  37  41
ENDBRANCH  27  37
ENDBRANCH   1  28
TORSDOF 14
ENDMDL
MODEL 6
REMARK VINA RESULT:      -6.6      2.269      8.330
REMARK  Name = 
REMARK  15 active torsions:
REMARK  status: ('A' for Active; 'I' for Inactive)
REMARK    1  A    between atoms: C_1  and  C_2
REMARK    2  A    between atoms: C_4  and  O_50
REMARK    3  A    between atoms: C_6  and  O_49
REMARK    4  A    between atoms: C_8  and  O_48
REMARK    5  A    between atoms: C_10  and  O_13
REMARK    6  A    between atoms: O_13  and  C_14
REMARK    7  A    between atoms: C_16  and  O_47
REMARK    8  A    between atoms: C_18  and  O_46
REMARK    9  A    between atoms: C_22  and  O_24
REMARK   10  A    between atoms: O_24  and  C_25
REMARK   11  A    between atoms: C_26  and  C_38
REMARK   12  A    between atoms: C_30  and  O_37
REMARK   13  A    between atoms: C_32  and  O_36
REMARK   14  A    between atoms: C_40  and  O_45
REMARK   15  A    between atoms: C_41  and  O_44
REMARK                            x       y       z     vdW  Elec       q    Type
REMARK                         _______ _______ _______ _____ _____    ______ ____
ROOT
ATOM      1  O   UNL     1       5.990  -1.075  24.380  0.00  0.00    -0.453 OA
ENDROOT
BRANCH   1   2
ATOM      2  C   UNL     1       7.161  -0.342  24.129  0.00  0.00    +0.214 A 
ATOM      3  C   UNL     1       7.139   0.983  23.395  0.00  0.00    +0.238 A 
ATOM      4  O   UNL     1       6.222   1.306  22.647  0.00  0.00    -0.283 OA
ATOM      5  C   UNL     1       8.329   1.840  23.477  0.00  0.00    +0.109 A 
ATOM      6  C   UNL     1       9.502   1.242  23.904  0.00  0.00    +0.147 A 
ATOM      7  C   UNL     1      10.700   1.964  23.949  0.00  0.00    +0.092 A 
ATOM      8  C   UNL     1      10.705   3.297  23.551  0.00  0.00    +0.124 A 
ATOM      9  C   UNL     1       9.540   3.910  23.108  0.00  0.00    +0.091 A 
ATOM     10  O   UNL     1       9.567  -0.078  24.245  0.00  0.00    -0.451 OA
ATOM     11  C   UNL     1       8.350   3.182  23.071  0.00  0.00    +0.135 A 
ATOM     12  C   UNL     1       8.397  -0.817  24.442  0.00  0.00    +0.181 A 
BRANCH  12  13
ATOM     13  C   UNL     1       8.745  -2.185  24.966  0.00  0.00    +0.025 A 
ATOM     14  C   UNL     1       9.680  -2.977  24.247  0.00  0.00    +0.015 A 
ATOM     15  C   UNL     1       9.912  -4.323  24.551  0.00  0.00    +0.050 A 
ATOM     16  C   UNL     1       9.229  -4.898  25.603  0.00  0.00    +0.158 A 
ATOM     17  C   UNL     1       8.345  -4.137  26.360  0.00  0.00    +0.159 A 
ATOM     18  C   UNL     1       8.090  -2.798  26.046  0.00  0.00    +0.060 A 
BRANCH  16  19
ATOM     19  O   UNL     1       9.415  -6.222  25.875  0.00  0.00    -0.503 OA
ATOM     20  H   UNL     1       8.749  -6.429  26.561  0.00  0.00    +0.292 HD
ENDBRANCH  16  19
BRANCH  17  21
ATOM     21  O   UNL     1       7.716  -4.764  27.403  0.00  0.00    -0.503 OA
ATOM     22  H   UNL     1       7.820  -4.218  28.209  0.00  0.00    +0.292 HD
ENDBRANCH  17  21
ENDBRANCH  12  13
BRANCH   8  23
ATOM     23  O   UNL     1      11.840   4.049  23.573  0.00  0.00    -0.507 OA
ATOM     24  H   UNL     1      12.035   4.370  22.677  0.00  0.00    +0.292 HD
ENDBRANCH   8  23
BRANCH  11  25
ATOM     25  O   UNL     1       7.215   3.803  22.637  0.00  0.00    -0.506 OA
ATOM     26  H   UNL     1       6.460   3.543  23.189  0.00  0.00    +0.292 HD
ENDBRANCH  11  25
ENDBRANCH   1   2
BRANCH   1  28
ATOM     27  C   UNL     1       4.377  -1.766  26.132  0.00  0.00    +0.221 C 
ATOM     28  C   UNL     1       5.114  -0.601  25.420  0.00  0.00    +0.340 C 
ATOM     29  O   UNL     1       5.825   0.140  26.426  0.00  0.00    -0.337 OA
ATOM     30  C   UNL     1       4.911   0.861  27.276  0.00  0.00    +0.198 C 
ATOM     31  C   UNL     1       4.093  -0.124  28.117  0.00  0.00    +0.171 C 
ATOM     32  C   UNL     1       3.419  -1.131  27.179  0.00  0.00    +0.180 C 
BRANCH  31  33
ATOM     33  O   UNL     1       4.925  -0.765  29.081  0.00  0.00    -0.387 OA
ATOM     34  H   UNL     1       4.823  -0.279  29.924  0.00  0.00    +0.210 HD
ENDBRANCH  31  33
BRANCH  32  35
ATOM     35  O   UNL     1       2.702  -2.148  27.880  0.00  0.00    -0.386 OA
ATOM     36  H   UNL     1       2.038  -2.481  27.246  0.00  0.00    +0.210 HD
ENDBRANCH  32  35
BRANCH  27  37
ATOM     37  O   UNL     1       3.683  -2.704  25.266  0.00  0.00    -0.337 OA
BRANCH  37  41
ATOM     38  C   UNL     1       6.525  -5.053  23.229  0.00  0.00    +0.041 C 
ATOM     39  C   UNL     1       5.035  -5.377  23.222  0.00  0.00    +0.149 C 
ATOM     40  O   UNL     1       4.253  -4.271  23.663  0.00  0.00    -0.343 OA
ATOM     41  C   UNL     1       4.355  -3.943  25.039  0.00  0.00    +0.282 C 
ATOM     42  C   UNL     1       3.724  -5.085  25.856  0.00  0.00    +0.201 C 
ATOM     43  C   UNL     1       4.458  -6.402  25.509  0.00  0.00    +0.179 C 
ATOM     44  C   UNL     1       4.579  -6.626  23.989  0.00  0.00    +0.174 C 
BRANCH  42  45
ATOM     45  O   UNL     1       3.801  -4.826  27.268  0.00  0.00    -0.384 OA
ATOM     46  H   UNL     1       4.718  -5.042  27.540  0.00  0.00    +0.210 HD
ENDBRANCH  42  45
BRANCH  43  47
ATOM     47  O   UNL     1       5.729  -6.432  26.178  0.00  0.00    -0.386 OA
ATOM     48  H   UNL     1       6.412  -5.987  25.650  0.00  0.00    +0.210 HD
ENDBRANCH  43  47
BRANCH  44  49
ATOM     49  O   UNL     1       3.272  -6.976  23.496  0.00  0.00    -0.387 OA
ATOM     50  H   UNL     1       3.244  -7.942  23.350  0.00  0.00    +0.210 HD
ENDBRANCH  44  49
ENDBRANCH  37  41
ENDBRANCH  27  37
ENDBRANCH   1  28
TORSDOF 14
ENDMDL
MODEL 7
REMARK VINA RESULT:      -6.4      1.760      4.767
REMARK  Name = 
REMARK  15 active torsions:
REMARK  status: ('A' for Active; 'I' for Inactive)
REMARK    1  A    between atoms: C_1  and  C_2
REMARK    2  A    between atoms: C_4  and  O_50
REMARK    3  A    between atoms: C_6  and  O_49
REMARK    4  A    between atoms: C_8  and  O_48
REMARK    5  A    between atoms: C_10  and  O_13
REMARK    6  A    between atoms: O_13  and  C_14
REMARK    7  A    between atoms: C_16  and  O_47
REMARK    8  A    between atoms: C_18  and  O_46
REMARK    9  A    between atoms: C_22  and  O_24
REMARK   10  A    between atoms: O_24  and  C_25
REMARK   11  A    between atoms: C_26  and  C_38
REMARK   12  A    between atoms: C_30  and  O_37
REMARK   13  A    between atoms: C_32  and  O_36
REMARK   14  A    between atoms: C_40  and  O_45
REMARK   15  A    between atoms: C_41  and  O_44
REMARK                            x       y       z     vdW  Elec       q    Type
REMARK                         _______ _______ _______ _____ _____    ______ ____
ROOT
ATOM      1  O   UNL     1       8.074  -1.255  26.577  0.00  0.00    -0.453 OA
ENDROOT
BRANCH   1   2
ATOM      2  C   UNL     1       7.885  -2.139  25.503  0.00  0.00    +0.214 A 
ATOM      3  C   UNL     1       7.336  -3.536  25.700  0.00  0.00    +0.238 A 
ATOM      4  O   UNL     1       7.397  -4.123  26.775  0.00  0.00    -0.283 OA
ATOM      5  C   UNL     1       6.846  -4.261  24.519  0.00  0.00    +0.109 A 
ATOM      6  C   UNL     1       7.241  -3.780  23.283  0.00  0.00    +0.147 A 
ATOM      7  C   UNL     1       6.878  -4.445  22.106  0.00  0.00    +0.092 A 
ATOM      8  C   UNL     1       6.117  -5.607  22.189  0.00  0.00    +0.124 A 
ATOM      9  C   UNL     1       5.723  -6.111  23.422  0.00  0.00    +0.091 A 
ATOM     10  O   UNL     1       8.038  -2.682  23.147  0.00  0.00    -0.451 OA
ATOM     11  C   UNL     1       6.086  -5.438  24.588  0.00  0.00    +0.135 A 
ATOM     12  C   UNL     1       8.267  -1.834  24.234  0.00  0.00    +0.181 A 
BRANCH  12  13
ATOM     13  C   UNL     1       9.038  -0.623  23.777  0.00  0.00    +0.025 A 
ATOM     14  C   UNL     1      10.003  -0.054  24.652  0.00  0.00    +0.015 A 
ATOM     15  C   UNL     1      10.618   1.175  24.390  0.00  0.00    +0.050 A 
ATOM     16  C   UNL     1      10.298   1.850  23.230  0.00  0.00    +0.158 A 
ATOM     17  C   UNL     1       9.396   1.297  22.327  0.00  0.00    +0.159 A 
ATOM     18  C   UNL     1       8.759   0.080  22.595  0.00  0.00    +0.060 A 
BRANCH  16  19
ATOM     19  O   UNL     1      10.858   3.070  22.992  0.00  0.00    -0.503 OA
ATOM     20  H   UNL     1      11.795   2.876  22.789  0.00  0.00    +0.292 HD
ENDBRANCH  16  19
BRANCH  17  21
ATOM     21  O   UNL     1       9.139   2.008  21.186  0.00  0.00    -0.503 OA
ATOM     22  H   UNL     1       8.645   2.819  21.424  0.00  0.00    +0.292 HD
ENDBRANCH  17  21
ENDBRANCH  12  13
BRANCH   8  23
ATOM     23  O   UNL     1       5.735  -6.296  21.078  0.00  0.00    -0.507 OA
ATOM     24  H   UNL     1       5.884  -5.749  20.289  0.00  0.00    +0.292 HD
ENDBRANCH   8  23
BRANCH  11  25
ATOM     25  O   UNL     1       5.686  -5.946  25.790  0.00  0.00    -0.506 OA
ATOM     26  H   UNL     1       6.153  -6.777  25.974  0.00  0.00    +0.292 HD
ENDBRANCH  11  25
ENDBRANCH   1   2
BRANCH   1  28
ATOM     27  C   UNL     1       6.374   0.533  26.323  0.00  0.00    +0.221 C 
ATOM     28  C   UNL     1       6.904  -0.657  27.166  0.00  0.00    +0.340 C 
ATOM     29  O   UNL     1       5.829  -1.600  27.306  0.00  0.00    -0.337 OA
ATOM     30  C   UNL     1       4.797  -1.082  28.167  0.00  0.00    +0.198 C 
ATOM     31  C   UNL     1       4.101   0.104  27.491  0.00  0.00    +0.171 C 
ATOM     32  C   UNL     1       5.162   1.135  27.088  0.00  0.00    +0.180 C 
BRANCH  31  33
ATOM     33  O   UNL     1       3.336  -0.340  26.373  0.00  0.00    -0.387 OA
ATOM     34  H   UNL     1       3.847  -1.049  25.932  0.00  0.00    +0.210 HD
ENDBRANCH  31  33
BRANCH  32  35
ATOM     35  O   UNL     1       4.616   2.240  26.368  0.00  0.00    -0.386 OA
ATOM     36  H   UNL     1       5.382   2.797  26.129  0.00  0.00    +0.210 HD
ENDBRANCH  32  35
BRANCH  27  37
ATOM     37  O   UNL     1       7.351   1.552  25.975  0.00  0.00    -0.337 OA
BRANCH  37  41
ATOM     38  C   UNL     1       4.643   3.269  23.244  0.00  0.00    +0.041 C 
ATOM     39  C   UNL     1       6.151   3.279  23.021  0.00  0.00    +0.149 C 
ATOM     40  O   UNL     1       6.816   2.349  23.871  0.00  0.00    -0.343 OA
ATOM     41  C   UNL     1       6.840   2.672  25.251  0.00  0.00    +0.282 C 
ATOM     42  C   UNL     1       7.725   3.917  25.441  0.00  0.00    +0.201 C 
ATOM     43  C   UNL     1       7.150   5.065  24.579  0.00  0.00    +0.179 C 
ATOM     44  C   UNL     1       6.873   4.629  23.126  0.00  0.00    +0.174 C 
BRANCH  42  45
ATOM     45  O   UNL     1       7.790   4.311  26.822  0.00  0.00    -0.384 OA
ATOM     46  H   UNL     1       8.726   4.213  27.094  0.00  0.00    +0.210 HD
ENDBRANCH  42  45
BRANCH  43  47
ATOM     47  O   UNL     1       5.990   5.614  25.225  0.00  0.00    -0.386 OA
ATOM     48  H   UNL     1       6.186   5.858  26.144  0.00  0.00    +0.210 HD
ENDBRANCH  43  47
BRANCH  44  49
ATOM     49  O   UNL     1       8.145   4.485  22.467  0.00  0.00    -0.387 OA
ATOM     50  H   UNL     1       8.642   3.766  22.905  0.00  0.00    +0.210 HD
ENDBRANCH  44  49
ENDBRANCH  37  41
ENDBRANCH  27  37
ENDBRANCH   1  28
TORSDOF 14
ENDMDL
MODEL 8
REMARK VINA RESULT:      -6.2      2.241      6.018
REMARK  Name = 
REMARK  15 active torsions:
REMARK  status: ('A' for Active; 'I' for Inactive)
REMARK    1  A    between atoms: C_1  and  C_2
REMARK    2  A    between atoms: C_4  and  O_50
REMARK    3  A    between atoms: C_6  and  O_49
REMARK    4  A    between atoms: C_8  and  O_48
REMARK    5  A    between atoms: C_10  and  O_13
REMARK    6  A    between atoms: O_13  and  C_14
REMARK    7  A    between atoms: C_16  and  O_47
REMARK    8  A    between atoms: C_18  and  O_46
REMARK    9  A    between atoms: C_22  and  O_24
REMARK   10  A    between atoms: O_24  and  C_25
REMARK   11  A    between atoms: C_26  and  C_38
REMARK   12  A    between atoms: C_30  and  O_37
REMARK   13  A    between atoms: C_32  and  O_36
REMARK   14  A    between atoms: C_40  and  O_45
REMARK   15  A    between atoms: C_41  and  O_44
REMARK                            x       y       z     vdW  Elec       q    Type
REMARK                         _______ _______ _______ _____ _____    ______ ____
ROOT
ATOM      1  O   UNL     1       7.401  -2.564  25.963  0.00  0.00    -0.453 OA
ENDROOT
BRANCH   1   2
ATOM      2  C   UNL     1       6.615  -1.801  26.841  0.00  0.00    +0.214 A 
ATOM      3  C   UNL     1       7.015  -0.405  27.271  0.00  0.00    +0.238 A 
ATOM      4  O   UNL     1       8.174  -0.008  27.226  0.00  0.00    -0.283 OA
ATOM      5  C   UNL     1       5.993   0.446  27.897  0.00  0.00    +0.109 A 
ATOM      6  C   UNL     1       4.860  -0.188  28.375  0.00  0.00    +0.147 A 
ATOM      7  C   UNL     1       3.864   0.533  29.045  0.00  0.00    +0.092 A 
ATOM      8  C   UNL     1       4.028   1.901  29.235  0.00  0.00    +0.124 A 
ATOM      9  C   UNL     1       5.165   2.552  28.773  0.00  0.00    +0.091 A 
ATOM     10  O   UNL     1       4.677  -1.536  28.271  0.00  0.00    -0.451 OA
ATOM     11  C   UNL     1       6.149   1.825  28.102  0.00  0.00    +0.135 A 
ATOM     12  C   UNL     1       5.498  -2.299  27.435  0.00  0.00    +0.181 A 
BRANCH  12  13
ATOM     13  C   UNL     1       4.984  -3.713  27.378  0.00  0.00    +0.025 A 
ATOM     14  C   UNL     1       3.672  -3.947  26.885  0.00  0.00    +0.015 A 
ATOM     15  C   UNL     1       3.048  -5.196  26.980  0.00  0.00    +0.050 A 
ATOM     16  C   UNL     1       3.738  -6.247  27.548  0.00  0.00    +0.158 A 
ATOM     17  C   UNL     1       5.043  -6.066  27.994  0.00  0.00    +0.159 A 
ATOM     18  C   UNL     1       5.663  -4.813  27.925  0.00  0.00    +0.060 A 
BRANCH  16  19
ATOM     19  O   UNL     1       3.119  -7.455  27.686  0.00  0.00    -0.503 OA
ATOM     20  H   UNL     1       2.491  -7.497  26.937  0.00  0.00    +0.292 HD
ENDBRANCH  16  19
BRANCH  17  21
ATOM     21  O   UNL     1       5.677  -7.155  28.528  0.00  0.00    -0.503 OA
ATOM     22  H   UNL     1       5.589  -7.126  29.502  0.00  0.00    +0.292 HD
ENDBRANCH  17  21
ENDBRANCH  12  13
BRANCH   8  23
ATOM     23  O   UNL     1       3.094   2.654  29.880  0.00  0.00    -0.507 OA
ATOM     24  H   UNL     1       3.185   2.533  30.840  0.00  0.00    +0.292 HD
ENDBRANCH   8  23
BRANCH  11  25
ATOM     25  O   UNL     1       7.257   2.482  27.652  0.00  0.00    -0.506 OA
ATOM     26  H   UNL     1       7.024   3.059  26.907  0.00  0.00    +0.292 HD
ENDBRANCH  11  25
ENDBRANCH   1   2
BRANCH   1  28
ATOM     27  C   UNL     1       8.331  -2.601  23.664  0.00  0.00    +0.221 C 
ATOM     28  C   UNL     1       7.068  -2.527  24.562  0.00  0.00    +0.340 C 
ATOM     29  O   UNL     1       6.205  -3.613  24.186  0.00  0.00    -0.337 OA
ATOM     30  C   UNL     1       5.637  -3.392  22.881  0.00  0.00    +0.198 C 
ATOM     31  C   UNL     1       6.735  -3.465  21.814  0.00  0.00    +0.171 C 
ATOM     32  C   UNL     1       7.853  -2.486  22.189  0.00  0.00    +0.180 C 
BRANCH  31  33
ATOM     33  O   UNL     1       7.215  -4.801  21.686  0.00  0.00    -0.387 OA
ATOM     34  H   UNL     1       6.616  -5.268  21.069  0.00  0.00    +0.210 HD
ENDBRANCH  31  33
BRANCH  32  35
ATOM     35  O   UNL     1       8.966  -2.549  21.297  0.00  0.00    -0.386 OA
ATOM     36  H   UNL     1       9.542  -3.254  21.652  0.00  0.00    +0.210 HD
ENDBRANCH  32  35
BRANCH  27  37
ATOM     37  O   UNL     1       9.383  -1.646  23.965  0.00  0.00    -0.337 OA
BRANCH  37  41
ATOM     38  C   UNL     1       6.726   1.394  22.766  0.00  0.00    +0.041 C 
ATOM     39  C   UNL     1       8.164   1.315  22.264  0.00  0.00    +0.149 C 
ATOM     40  O   UNL     1       8.740   0.037  22.514  0.00  0.00    -0.343 OA
ATOM     41  C   UNL     1       9.011  -0.270  23.872  0.00  0.00    +0.282 C 
ATOM     42  C   UNL     1      10.140   0.655  24.361  0.00  0.00    +0.201 C 
ATOM     43  C   UNL     1       9.692   2.122  24.169  0.00  0.00    +0.179 C 
ATOM     44  C   UNL     1       9.144   2.390  22.753  0.00  0.00    +0.174 C 
BRANCH  42  45
ATOM     45  O   UNL     1      10.463   0.406  25.740  0.00  0.00    -0.384 OA
ATOM     46  H   UNL     1      11.150   1.061  25.985  0.00  0.00    +0.210 HD
ENDBRANCH  42  45
BRANCH  43  47
ATOM     47  O   UNL     1       8.758   2.477  25.202  0.00  0.00    -0.386 OA
ATOM     48  H   UNL     1       9.141   2.333  26.082  0.00  0.00    +0.210 HD
ENDBRANCH  43  47
BRANCH  44  49
ATOM     49  O   UNL     1      10.264   2.390  21.848  0.00  0.00    -0.387 OA
ATOM     50  H   UNL     1      10.997   2.887  22.261  0.00  0.00    +0.210 HD
ENDBRANCH  44  49
ENDBRANCH  37  41
ENDBRANCH  27  37
ENDBRANCH   1  28
TORSDOF 14
ENDMDL
MODEL 9
REMARK VINA RESULT:      -6.1      2.136      8.826
REMARK  Name = 
REMARK  15 active torsions:
REMARK  status: ('A' for Active; 'I' for Inactive)
REMARK    1  A    between atoms: C_1  and  C_2
REMARK    2  A    between atoms: C_4  and  O_50
REMARK    3  A    between atoms: C_6  and  O_49
REMARK    4  A    between atoms: C_8  and  O_48
REMARK    5  A    between atoms: C_10  and  O_13
REMARK    6  A    between atoms: O_13  and  C_14
REMARK    7  A    between atoms: C_16  and  O_47
REMARK    8  A    between atoms: C_18  and  O_46
REMARK    9  A    between atoms: C_22  and  O_24
REMARK   10  A    between atoms: O_24  and  C_25
REMARK   11  A    between atoms: C_26  and  C_38
REMARK   12  A    between atoms: C_30  and  O_37
REMARK   13  A    between atoms: C_32  and  O_36
REMARK   14  A    between atoms: C_40  and  O_45
REMARK   15  A    between atoms: C_41  and  O_44
REMARK                            x       y       z     vdW  Elec       q    Type
REMARK                         _______ _______ _______ _____ _____    ______ ____
ROOT
ATOM      1  O   UNL     1       5.918  -1.291  26.390  0.00  0.00    -0.453 OA
ENDROOT
BRANCH   1   2
ATOM      2  C   UNL     1       6.624  -0.715  25.323  0.00  0.00    +0.214 A 
ATOM      3  C   UNL     1       6.966   0.760  25.289  0.00  0.00    +0.238 A 
ATOM      4  O   UNL     1       6.345   1.596  25.937  0.00  0.00    -0.283 OA
ATOM      5  C   UNL     1       7.986   1.213  24.334  0.00  0.00    +0.109 A 
ATOM      6  C   UNL     1       8.301   0.349  23.300  0.00  0.00    +0.147 A 
ATOM      7  C   UNL     1       9.213   0.723  22.305  0.00  0.00    +0.092 A 
ATOM      8  C   UNL     1       9.799   1.983  22.361  0.00  0.00    +0.124 A 
ATOM      9  C   UNL     1       9.486   2.868  23.384  0.00  0.00    +0.091 A 
ATOM     10  O   UNL     1       7.709  -0.873  23.163  0.00  0.00    -0.451 OA
ATOM     11  C   UNL     1       8.579   2.483  24.373  0.00  0.00    +0.135 A 
ATOM     12  C   UNL     1       6.962  -1.419  24.210  0.00  0.00    +0.181 A 
BRANCH  12  13
ATOM     13  C   UNL     1       6.563  -2.829  23.864  0.00  0.00    +0.025 A 
ATOM     14  C   UNL     1       7.579  -3.810  23.703  0.00  0.00    +0.015 A 
ATOM     15  C   UNL     1       7.314  -5.086  23.194  0.00  0.00    +0.050 A 
ATOM     16  C   UNL     1       6.017  -5.416  22.858  0.00  0.00    +0.158 A 
ATOM     17  C   UNL     1       4.990  -4.497  23.051  0.00  0.00    +0.159 A 
ATOM     18  C   UNL     1       5.252  -3.212  23.537  0.00  0.00    +0.060 A 
BRANCH  16  19
ATOM     19  O   UNL     1       5.759  -6.642  22.317  0.00  0.00    -0.503 OA
ATOM     20  H   UNL     1       5.988  -6.547  21.371  0.00  0.00    +0.292 HD
ENDBRANCH  16  19
BRANCH  17  21
ATOM     21  O   UNL     1       3.724  -4.897  22.717  0.00  0.00    -0.503 OA
ATOM     22  H   UNL     1       3.102  -4.166  22.908  0.00  0.00    +0.292 HD
ENDBRANCH  17  21
ENDBRANCH  12  13
BRANCH   8  23
ATOM     23  O   UNL     1      10.692   2.401  21.421  0.00  0.00    -0.507 OA
ATOM     24  H   UNL     1      11.413   1.753  21.346  0.00  0.00    +0.292 HD
ENDBRANCH   8  23
BRANCH  11  25
ATOM     25  O   UNL     1       8.287   3.365  25.373  0.00  0.00    -0.506 OA
ATOM     26  H   UNL     1       8.423   2.947  26.238  0.00  0.00    +0.292 HD
ENDBRANCH  11  25
ENDBRANCH   1   2
BRANCH   1  28
ATOM     27  C   UNL     1       3.701  -2.108  27.146  0.00  0.00    +0.221 C 
ATOM     28  C   UNL     1       4.528  -0.943  26.540  0.00  0.00    +0.340 C 
ATOM     29  O   UNL     1       4.349   0.202  27.390  0.00  0.00    -0.337 OA
ATOM     30  C   UNL     1       3.009   0.721  27.281  0.00  0.00    +0.198 C 
ATOM     31  C   UNL     1       2.012  -0.282  27.872  0.00  0.00    +0.171 C 
ATOM     32  C   UNL     1       2.219  -1.641  27.195  0.00  0.00    +0.180 C 
BRANCH  31  33
ATOM     33  O   UNL     1       2.167  -0.360  29.287  0.00  0.00    -0.387 OA
ATOM     34  H   UNL     1       2.465   0.519  29.597  0.00  0.00    +0.210 HD
ENDBRANCH  31  33
BRANCH  32  35
ATOM     35  O   UNL     1       1.391  -2.666  27.746  0.00  0.00    -0.386 OA
ATOM     36  H   UNL     1       1.163  -2.359  28.646  0.00  0.00    +0.210 HD
ENDBRANCH  32  35
BRANCH  27  37
ATOM     37  O   UNL     1       3.838  -3.396  26.486  0.00  0.00    -0.337 OA
BRANCH  37  41
ATOM     38  C   UNL     1       4.489  -5.050  30.305  0.00  0.00    +0.041 C 
ATOM     39  C   UNL     1       5.581  -4.980  29.243  0.00  0.00    +0.149 C 
ATOM     40  O   UNL     1       5.241  -4.078  28.195  0.00  0.00    -0.343 OA
ATOM     41  C   UNL     1       4.188  -4.488  27.337  0.00  0.00    +0.282 C 
ATOM     42  C   UNL     1       4.671  -5.703  26.525  0.00  0.00    +0.201 C 
ATOM     43  C   UNL     1       5.093  -6.817  27.511  0.00  0.00    +0.179 C 
ATOM     44  C   UNL     1       6.041  -6.301  28.612  0.00  0.00    +0.174 C 
BRANCH  42  45
ATOM     45  O   UNL     1       3.648  -6.182  25.636  0.00  0.00    -0.384 OA
ATOM     46  H   UNL     1       3.496  -5.471  24.980  0.00  0.00    +0.210 HD
ENDBRANCH  42  45
BRANCH  43  47
ATOM     47  O   UNL     1       3.921  -7.457  28.042  0.00  0.00    -0.386 OA
ATOM     48  H   UNL     1       3.124  -7.177  27.562  0.00  0.00    +0.210 HD
ENDBRANCH  43  47
BRANCH  44  49
ATOM     49  O   UNL     1       7.323  -6.060  28.003  0.00  0.00    -0.387 OA
ATOM     50  H   UNL     1       8.021  -6.340  28.629  0.00  0.00    +0.210 HD
ENDBRANCH  44  49
ENDBRANCH  37  41
ENDBRANCH  27  37
ENDBRANCH   1  28
TORSDOF 14
ENDMDL
