MODEL 1
REMARK VINA RESULT:      -8.0      0.000      0.000
REMARK  Name = 
REMARK  22 active torsions:
REMARK  status: ('A' for Active; 'I' for Inactive)
REMARK    1  A    between atoms: C_1  and  C_2
REMARK    2  A    between atoms: C_4  and  C_10
REMARK    3  A    between atoms: C_6  and  C_9
REMARK    4  A    between atoms: C_7  and  C_8
REMARK    5  A    between atoms: C_10  and  O_12
REMARK    6  A    between atoms: O_12  and  C_13
REMARK    7  A    between atoms: C_13  and  C_14
REMARK    8  A    between atoms: C_16  and  O_60
REMARK    9  A    between atoms: C_18  and  O_59
REMARK   10  A    between atoms: C_20  and  O_47
REMARK   11  A    between atoms: C_22  and  O_25
REMARK   12  A    between atoms: O_25  and  C_26
REMARK   13  A    between atoms: C_27  and  C_39
REMARK   14  A    between atoms: C_31  and  O_38
REMARK   15  A    between atoms: C_33  and  O_37
REMARK   16  A    between atoms: C_41  and  O_46
REMARK   17  A    between atoms: C_42  and  O_45
REMARK   18  A    between atoms: O_47  and  C_48
REMARK   19  A    between atoms: C_48  and  C_50
REMARK   20  A    between atoms: C_52  and  O_58
REMARK   21  A    between atoms: C_53  and  O_57
REMARK   22  A    between atoms: C_54  and  O_56
REMARK                            x       y       z     vdW  Elec       q    Type
REMARK                         _______ _______ _______ _____ _____    ______ ____
ROOT
ATOM      1  C   UNL     1       9.402  -2.789  25.336  0.00  0.00    +0.191 C 
ATOM      2  O   UNL     1       8.094  -2.266  25.585  0.00  0.00    -0.329 OA
ATOM      3  C   UNL     1       7.523  -2.709  26.828  0.00  0.00    +0.352 C 
ATOM      4  C   UNL     1       7.414  -4.249  26.848  0.00  0.00    +0.276 C 
ATOM      5  C   UNL     1       8.719  -4.934  26.426  0.00  0.00    +0.192 C 
ATOM      6  C   UNL     1       9.294  -4.311  25.153  0.00  0.00    +0.179 C 
ENDROOT
BRANCH   6   7
ATOM      7  O   UNL     1      10.542  -4.957  24.884  0.00  0.00    -0.386 OA
ATOM      8  H   UNL     1      11.120  -4.804  25.656  0.00  0.00    +0.210 HD
ENDBRANCH   6   7
BRANCH   5   9
ATOM      9  O   UNL     1       8.473  -6.330  26.178  0.00  0.00    -0.385 OA
ATOM     10  H   UNL     1       7.942  -6.631  26.944  0.00  0.00    +0.210 HD
ENDBRANCH   5   9
BRANCH   4  11
ATOM     11  O   UNL     1       6.899  -4.800  28.092  0.00  0.00    -0.449 OA
BRANCH  11  12
ATOM     12  C   UNL     1       6.349  -6.037  28.177  0.00  0.00    +0.340 C 
ATOM     13  O   UNL     1       6.797  -6.990  28.789  0.00  0.00    -0.245 OA
BRANCH  12  14
ATOM     14  C   UNL     1       5.072  -6.040  27.391  0.00  0.00    +0.066 A 
ATOM     15  C   UNL     1       4.925  -6.947  26.331  0.00  0.00    +0.064 A 
ATOM     16  C   UNL     1       3.854  -6.833  25.459  0.00  0.00    +0.163 A 
ATOM     17  C   UNL     1       2.860  -5.897  25.683  0.00  0.00    +0.201 A 
ATOM     18  C   UNL     1       2.945  -5.052  26.790  0.00  0.00    +0.163 A 
ATOM     19  C   UNL     1       4.049  -5.106  27.649  0.00  0.00    +0.064 A 
BRANCH  18  20
ATOM     20  O   UNL     1       1.936  -4.138  26.946  0.00  0.00    -0.503 OA
ATOM     21  H   UNL     1       2.274  -3.374  27.445  0.00  0.00    +0.292 HD
ENDBRANCH  18  20
BRANCH  17  22
ATOM     22  O   UNL     1       1.836  -5.755  24.790  0.00  0.00    -0.501 OA
ATOM     23  H   UNL     1       1.636  -4.799  24.779  0.00  0.00    +0.292 HD
ENDBRANCH  17  22
BRANCH  16  24
ATOM     24  O   UNL     1       3.872  -7.588  24.326  0.00  0.00    -0.503 OA
ATOM     25  H   UNL     1       4.791  -7.535  24.008  0.00  0.00    +0.292 HD
ENDBRANCH  16  24
ENDBRANCH  12  14
ENDBRANCH  11  12
ENDBRANCH   4  11
BRANCH   3  26
ATOM     26  O   UNL     1       6.183  -2.166  26.915  0.00  0.00    -0.452 OA
BRANCH  26  27
ATOM     27  C   UNL     1       5.964  -0.906  26.358  0.00  0.00    +0.214 A 
ATOM     28  C   UNL     1       6.044   0.329  27.208  0.00  0.00    +0.238 A 
ATOM     29  O   UNL     1       6.788   0.416  28.181  0.00  0.00    -0.283 OA
ATOM     30  C   UNL     1       5.231   1.469  26.803  0.00  0.00    +0.109 A 
ATOM     31  C   UNL     1       4.878   1.531  25.457  0.00  0.00    +0.147 A 
ATOM     32  C   UNL     1       4.154   2.632  24.982  0.00  0.00    +0.092 A 
ATOM     33  C   UNL     1       3.786   3.643  25.869  0.00  0.00    +0.124 A 
ATOM     34  C   UNL     1       4.113   3.578  27.216  0.00  0.00    +0.091 A 
ATOM     35  O   UNL     1       5.244   0.552  24.568  0.00  0.00    -0.451 OA
ATOM     36  C   UNL     1       4.837   2.486  27.685  0.00  0.00    +0.135 A 
ATOM     37  C   UNL     1       5.628  -0.715  25.055  0.00  0.00    +0.181 A 
BRANCH  37  38
ATOM     38  C   UNL     1       5.644  -1.757  23.957  0.00  0.00    +0.025 A 
ATOM     39  C   UNL     1       6.624  -1.697  22.937  0.00  0.00    +0.015 A 
ATOM     40  C   UNL     1       6.739  -2.683  21.940  0.00  0.00    +0.050 A 
ATOM     41  C   UNL     1       5.862  -3.750  21.945  0.00  0.00    +0.158 A 
ATOM     42  C   UNL     1       4.885  -3.845  22.925  0.00  0.00    +0.159 A 
ATOM     43  C   UNL     1       4.779  -2.872  23.930  0.00  0.00    +0.060 A 
BRANCH  41  44
ATOM     44  O   UNL     1       5.970  -4.711  20.983  0.00  0.00    -0.503 OA
ATOM     45  H   UNL     1       5.649  -4.287  20.160  0.00  0.00    +0.292 HD
ENDBRANCH  41  44
BRANCH  42  46
ATOM     46  O   UNL     1       4.051  -4.931  22.867  0.00  0.00    -0.503 OA
ATOM     47  H   UNL     1       4.415  -5.627  23.438  0.00  0.00    +0.292 HD
ENDBRANCH  42  46
ENDBRANCH  37  38
BRANCH  36  48
ATOM     48  O   UNL     1       5.120   2.405  29.021  0.00  0.00    -0.506 OA
ATOM     49  H   UNL     1       5.264   1.482  29.279  0.00  0.00    +0.292 HD
ENDBRANCH  36  48
BRANCH  33  50
ATOM     50  O   UNL     1       3.064   4.723  25.458  0.00  0.00    -0.507 OA
ATOM     51  H   UNL     1       3.555   5.539  25.641  0.00  0.00    +0.292 HD
ENDBRANCH  33  50
ENDBRANCH  26  27
ENDBRANCH   3  26
BRANCH   1  52
ATOM     52  C   UNL     1       9.948  -2.113  24.067  0.00  0.00    +0.266 C 
BRANCH  52  53
ATOM     53  O   UNL     1      10.234  -0.717  24.280  0.00  0.00    -0.458 OA
BRANCH  53  54
ATOM     54  C   UNL     1       9.948   0.076  23.212  0.00  0.00    +0.339 C 
ATOM     55  O   UNL     1       9.759  -0.321  22.074  0.00  0.00    -0.245 OA
BRANCH  54  63
ATOM     56  C   UNL     1      12.073   4.546  23.104  0.00  0.00    +0.044 C 
ATOM     57  C   UNL     1      10.899   3.708  23.537  0.00  0.00    -0.047 A 
ATOM     58  C   UNL     1       9.804   4.259  24.245  0.00  0.00    -0.045 A 
ATOM     59  C   UNL     1       9.821   5.731  24.581  0.00  0.00    +0.044 C 
ATOM     60  C   UNL     1       8.728   3.419  24.619  0.00  0.00    -0.047 A 
ATOM     61  C   UNL     1       7.531   3.953  25.363  0.00  0.00    +0.044 C 
ATOM     62  C   UNL     1       8.765   2.049  24.297  0.00  0.00    +0.018 A 
ATOM     63  C   UNL     1       9.848   1.508  23.598  0.00  0.00    +0.060 A 
ATOM     64  C   UNL     1      10.904   2.343  23.223  0.00  0.00    +0.018 A 
ENDBRANCH  54  63
ENDBRANCH  53  54
ENDBRANCH  52  53
ENDBRANCH   1  52
TORSDOF 19
ENDMDL
MODEL 2
REMARK VINA RESULT:      -8.0      2.045      4.123
REMARK  Name = 
REMARK  22 active torsions:
REMARK  status: ('A' for Active; 'I' for Inactive)
REMARK    1  A    between atoms: C_1  and  C_2
REMARK    2  A    between atoms: C_4  and  C_10
REMARK    3  A    between atoms: C_6  and  C_9
REMARK    4  A    between atoms: C_7  and  C_8
REMARK    5  A    between atoms: C_10  and  O_12
REMARK    6  A    between atoms: O_12  and  C_13
REMARK    7  A    between atoms: C_13  and  C_14
REMARK    8  A    between atoms: C_16  and  O_60
REMARK    9  A    between atoms: C_18  and  O_59
REMARK   10  A    between atoms: C_20  and  O_47
REMARK   11  A    between atoms: C_22  and  O_25
REMARK   12  A    between atoms: O_25  and  C_26
REMARK   13  A    between atoms: C_27  and  C_39
REMARK   14  A    between atoms: C_31  and  O_38
REMARK   15  A    between atoms: C_33  and  O_37
REMARK   16  A    between atoms: C_41  and  O_46
REMARK   17  A    between atoms: C_42  and  O_45
REMARK   18  A    between atoms: O_47  and  C_48
REMARK   19  A    between atoms: C_48  and  C_50
REMARK   20  A    between atoms: C_52  and  O_58
REMARK   21  A    between atoms: C_53  and  O_57
REMARK   22  A    between atoms: C_54  and  O_56
REMARK                            x       y       z     vdW  Elec       q    Type
REMARK                         _______ _______ _______ _____ _____    ______ ____
ROOT
ATOM      1  C   UNL     1       6.165  -5.535  27.660  0.00  0.00    +0.191 C 
ATOM      2  O   UNL     1       5.596  -4.590  26.747  0.00  0.00    -0.329 OA
ATOM      3  C   UNL     1       4.349  -4.034  27.197  0.00  0.00    +0.352 C 
ATOM      4  C   UNL     1       3.308  -5.154  27.408  0.00  0.00    +0.276 C 
ATOM      5  C   UNL     1       3.861  -6.320  28.235  0.00  0.00    +0.192 C 
ATOM      6  C   UNL     1       5.239  -6.758  27.737  0.00  0.00    +0.179 C 
ENDROOT
BRANCH   6   7
ATOM      7  O   UNL     1       5.706  -7.789  28.614  0.00  0.00    -0.386 OA
ATOM      8  H   UNL     1       6.674  -7.694  28.683  0.00  0.00    +0.210 HD
ENDBRANCH   6   7
BRANCH   5   9
ATOM      9  O   UNL     1       2.966  -7.443  28.146  0.00  0.00    -0.385 OA
ATOM     10  H   UNL     1       2.465  -7.431  28.987  0.00  0.00    +0.210 HD
ENDBRANCH   5   9
BRANCH   4  11
ATOM     11  O   UNL     1       2.025  -4.697  27.920  0.00  0.00    -0.449 OA
BRANCH  11  12
ATOM     12  C   UNL     1       1.047  -4.204  27.120  0.00  0.00    +0.340 C 
ATOM     13  O   UNL     1       0.451  -3.153  27.267  0.00  0.00    -0.245 OA
BRANCH  12  14
ATOM     14  C   UNL     1       0.822  -5.174  25.998  0.00  0.00    +0.066 A 
ATOM     15  C   UNL     1       0.522  -6.510  26.301  0.00  0.00    +0.064 A 
ATOM     16  C   UNL     1       0.518  -7.468  25.300  0.00  0.00    +0.163 A 
ATOM     17  C   UNL     1       0.701  -7.105  23.977  0.00  0.00    +0.201 A 
ATOM     18  C   UNL     1       0.904  -5.764  23.651  0.00  0.00    +0.163 A 
ATOM     19  C   UNL     1       0.975  -4.787  24.652  0.00  0.00    +0.064 A 
BRANCH  18  20
ATOM     20  O   UNL     1       1.094  -5.473  22.326  0.00  0.00    -0.503 OA
ATOM     21  H   UNL     1       0.373  -5.871  21.808  0.00  0.00    +0.292 HD
ENDBRANCH  18  20
BRANCH  17  22
ATOM     22  O   UNL     1       0.750  -8.062  23.003  0.00  0.00    -0.501 OA
ATOM     23  H   UNL     1       0.778  -7.568  22.161  0.00  0.00    +0.292 HD
ENDBRANCH  17  22
BRANCH  16  24
ATOM     24  O   UNL     1       0.443  -8.777  25.670  0.00  0.00    -0.503 OA
ATOM     25  H   UNL     1      -0.155  -8.782  26.439  0.00  0.00    +0.292 HD
ENDBRANCH  16  24
ENDBRANCH  12  14
ENDBRANCH  11  12
ENDBRANCH   4  11
BRANCH   3  26
ATOM     26  O   UNL     1       3.856  -3.158  26.154  0.00  0.00    -0.452 OA
BRANCH  26  27
ATOM     27  C   UNL     1       4.679  -2.102  25.761  0.00  0.00    +0.214 A 
ATOM     28  C   UNL     1       4.866  -0.908  26.650  0.00  0.00    +0.238 A 
ATOM     29  O   UNL     1       4.822  -0.980  27.875  0.00  0.00    -0.283 OA
ATOM     30  C   UNL     1       5.161   0.364  26.002  0.00  0.00    +0.109 A 
ATOM     31  C   UNL     1       5.746   0.295  24.740  0.00  0.00    +0.147 A 
ATOM     32  C   UNL     1       6.119   1.475  24.084  0.00  0.00    +0.092 A 
ATOM     33  C   UNL     1       5.884   2.704  24.701  0.00  0.00    +0.124 A 
ATOM     34  C   UNL     1       5.280   2.784  25.949  0.00  0.00    +0.091 A 
ATOM     35  O   UNL     1       5.996  -0.905  24.124  0.00  0.00    -0.451 OA
ATOM     36  C   UNL     1       4.916   1.609  26.601  0.00  0.00    +0.135 A 
ATOM     37  C   UNL     1       5.316  -2.062  24.561  0.00  0.00    +0.181 A 
BRANCH  37  38
ATOM     38  C   UNL     1       5.432  -3.192  23.561  0.00  0.00    +0.025 A 
ATOM     39  C   UNL     1       6.529  -3.238  22.667  0.00  0.00    +0.015 A 
ATOM     40  C   UNL     1       6.733  -4.306  21.775  0.00  0.00    +0.050 A 
ATOM     41  C   UNL     1       5.831  -5.351  21.759  0.00  0.00    +0.158 A 
ATOM     42  C   UNL     1       4.740  -5.344  22.616  0.00  0.00    +0.159 A 
ATOM     43  C   UNL     1       4.543  -4.288  23.518  0.00  0.00    +0.060 A 
BRANCH  41  44
ATOM     44  O   UNL     1       6.024  -6.391  20.898  0.00  0.00    -0.503 OA
ATOM     45  H   UNL     1       6.835  -6.164  20.399  0.00  0.00    +0.292 HD
ENDBRANCH  41  44
BRANCH  42  46
ATOM     46  O   UNL     1       3.886  -6.413  22.545  0.00  0.00    -0.503 OA
ATOM     47  H   UNL     1       4.404  -7.226  22.667  0.00  0.00    +0.292 HD
ENDBRANCH  42  46
ENDBRANCH  37  38
BRANCH  36  48
ATOM     48  O   UNL     1       4.282   1.694  27.809  0.00  0.00    -0.506 OA
ATOM     49  H   UNL     1       3.438   1.217  27.781  0.00  0.00    +0.292 HD
ENDBRANCH  36  48
BRANCH  33  50
ATOM     50  O   UNL     1       6.210   3.880  24.095  0.00  0.00    -0.507 OA
ATOM     51  H   UNL     1       7.036   4.226  24.466  0.00  0.00    +0.292 HD
ENDBRANCH  33  50
ENDBRANCH  26  27
ENDBRANCH   3  26
BRANCH   1  52
ATOM     52  C   UNL     1       7.557  -5.921  27.132  0.00  0.00    +0.266 C 
BRANCH  52  53
ATOM     53  O   UNL     1       8.398  -4.768  26.932  0.00  0.00    -0.458 OA
BRANCH  53  54
ATOM     54  C   UNL     1       8.771  -4.573  25.639  0.00  0.00    +0.339 C 
ATOM     55  O   UNL     1       8.879  -5.452  24.800  0.00  0.00    -0.245 OA
BRANCH  54  63
ATOM     56  C   UNL     1       8.432   0.092  27.261  0.00  0.00    +0.044 C 
ATOM     57  C   UNL     1       8.833  -0.839  26.147  0.00  0.00    -0.047 A 
ATOM     58  C   UNL     1       9.380  -0.364  24.932  0.00  0.00    -0.045 A 
ATOM     59  C   UNL     1       9.560   1.123  24.747  0.00  0.00    +0.044 C 
ATOM     60  C   UNL     1       9.742  -1.292  23.925  0.00  0.00    -0.047 A 
ATOM     61  C   UNL     1      10.340  -0.844  22.616  0.00  0.00    +0.044 C 
ATOM     62  C   UNL     1       9.540  -2.669  24.138  0.00  0.00    +0.018 A 
ATOM     63  C   UNL     1       8.999  -3.135  25.340  0.00  0.00    +0.060 A 
ATOM     64  C   UNL     1       8.652  -2.216  26.334  0.00  0.00    +0.018 A 
ENDBRANCH  54  63
ENDBRANCH  53  54
ENDBRANCH  52  53
ENDBRANCH   1  52
TORSDOF 19
ENDMDL
MODEL 3
REMARK VINA RESULT:      -8.0      1.704      2.820
REMARK  Name = 
REMARK  22 active torsions:
REMARK  status: ('A' for Active; 'I' for Inactive)
REMARK    1  A    between atoms: C_1  and  C_2
REMARK    2  A    between atoms: C_4  and  C_10
REMARK    3  A    between atoms: C_6  and  C_9
REMARK    4  A    between atoms: C_7  and  C_8
REMARK    5  A    between atoms: C_10  and  O_12
REMARK    6  A    between atoms: O_12  and  C_13
REMARK    7  A    between atoms: C_13  and  C_14
REMARK    8  A    between atoms: C_16  and  O_60
REMARK    9  A    between atoms: C_18  and  O_59
REMARK   10  A    between atoms: C_20  and  O_47
REMARK   11  A    between atoms: C_22  and  O_25
REMARK   12  A    between atoms: O_25  and  C_26
REMARK   13  A    between atoms: C_27  and  C_39
REMARK   14  A    between atoms: C_31  and  O_38
REMARK   15  A    between atoms: C_33  and  O_37
REMARK   16  A    between atoms: C_41  and  O_46
REMARK   17  A    between atoms: C_42  and  O_45
REMARK   18  A    between atoms: O_47  and  C_48
REMARK   19  A    between atoms: C_48  and  C_50
REMARK   20  A    between atoms: C_52  and  O_58
REMARK   21  A    between atoms: C_53  and  O_57
REMARK   22  A    between atoms: C_54  and  O_56
REMARK                            x       y       z     vdW  Elec       q    Type
REMARK                         _______ _______ _______ _____ _____    ______ ____
ROOT
ATOM      1  C   UNL     1       9.937  -1.003  24.913  0.00  0.00    +0.191 C 
ATOM      2  O   UNL     1       8.724  -0.858  25.658  0.00  0.00    -0.329 OA
ATOM      3  C   UNL     1       8.373  -2.025  26.421  0.00  0.00    +0.352 C 
ATOM      4  C   UNL     1       8.197  -3.241  25.488  0.00  0.00    +0.276 C 
ATOM      5  C   UNL     1       9.366  -3.404  24.510  0.00  0.00    +0.192 C 
ATOM      6  C   UNL     1       9.724  -2.079  23.837  0.00  0.00    +0.179 C 
ENDROOT
BRANCH   6   7
ATOM      7  O   UNL     1      10.868  -2.312  23.010  0.00  0.00    -0.386 OA
ATOM      8  H   UNL     1      11.657  -2.254  23.582  0.00  0.00    +0.210 HD
ENDBRANCH   6   7
BRANCH   5   9
ATOM      9  O   UNL     1       9.013  -4.354  23.488  0.00  0.00    -0.385 OA
ATOM     10  H   UNL     1       8.474  -5.029  23.948  0.00  0.00    +0.210 HD
ENDBRANCH   5   9
BRANCH   4  11
ATOM     11  O   UNL     1       7.896  -4.489  26.174  0.00  0.00    -0.449 OA
BRANCH  11  12
ATOM     12  C   UNL     1       6.969  -5.371  25.725  0.00  0.00    +0.340 C 
ATOM     13  O   UNL     1       6.871  -5.806  24.592  0.00  0.00    -0.245 OA
BRANCH  12  14
ATOM     14  C   UNL     1       6.073  -5.738  26.870  0.00  0.00    +0.066 A 
ATOM     15  C   UNL     1       6.520  -5.520  28.182  0.00  0.00    +0.064 A 
ATOM     16  C   UNL     1       5.813  -6.039  29.255  0.00  0.00    +0.163 A 
ATOM     17  C   UNL     1       4.604  -6.683  29.056  0.00  0.00    +0.201 A 
ATOM     18  C   UNL     1       4.100  -6.821  27.762  0.00  0.00    +0.163 A 
ATOM     19  C   UNL     1       4.827  -6.361  26.658  0.00  0.00    +0.064 A 
BRANCH  18  20
ATOM     20  O   UNL     1       2.906  -7.481  27.633  0.00  0.00    -0.503 OA
ATOM     21  H   UNL     1       3.036  -8.264  27.071  0.00  0.00    +0.292 HD
ENDBRANCH  18  20
BRANCH  17  22
ATOM     22  O   UNL     1       3.939  -7.238  30.113  0.00  0.00    -0.501 OA
ATOM     23  H   UNL     1       3.331  -7.892  29.718  0.00  0.00    +0.292 HD
ENDBRANCH  17  22
BRANCH  16  24
ATOM     24  O   UNL     1       6.396  -5.995  30.485  0.00  0.00    -0.503 OA
ATOM     25  H   UNL     1       6.595  -6.924  30.698  0.00  0.00    +0.292 HD
ENDBRANCH  16  24
ENDBRANCH  12  14
ENDBRANCH  11  12
ENDBRANCH   4  11
BRANCH   3  26
ATOM     26  O   UNL     1       7.100  -1.765  27.061  0.00  0.00    -0.452 OA
BRANCH  26  27
ATOM     27  C   UNL     1       6.419  -0.605  26.690  0.00  0.00    +0.214 A 
ATOM     28  C   UNL     1       6.498   0.631  27.536  0.00  0.00    +0.238 A 
ATOM     29  O   UNL     1       7.489   0.914  28.205  0.00  0.00    -0.283 OA
ATOM     30  C   UNL     1       5.356   1.536  27.501  0.00  0.00    +0.109 A 
ATOM     31  C   UNL     1       4.560   1.483  26.359  0.00  0.00    +0.147 A 
ATOM     32  C   UNL     1       3.484   2.369  26.225  0.00  0.00    +0.092 A 
ATOM     33  C   UNL     1       3.219   3.284  27.244  0.00  0.00    +0.124 A 
ATOM     34  C   UNL     1       3.993   3.328  28.396  0.00  0.00    +0.091 A 
ATOM     35  O   UNL     1       4.814   0.599  25.341  0.00  0.00    -0.451 OA
ATOM     36  C   UNL     1       5.065   2.450  28.525  0.00  0.00    +0.135 A 
ATOM     37  C   UNL     1       5.623  -0.529  25.591  0.00  0.00    +0.181 A 
BRANCH  37  38
ATOM     38  C   UNL     1       5.501  -1.561  24.490  0.00  0.00    +0.025 A 
ATOM     39  C   UNL     1       6.267  -1.429  23.306  0.00  0.00    +0.015 A 
ATOM     40  C   UNL     1       6.258  -2.398  22.287  0.00  0.00    +0.050 A 
ATOM     41  C   UNL     1       5.470  -3.523  22.436  0.00  0.00    +0.158 A 
ATOM     42  C   UNL     1       4.702  -3.690  23.580  0.00  0.00    +0.159 A 
ATOM     43  C   UNL     1       4.722  -2.733  24.604  0.00  0.00    +0.060 A 
BRANCH  41  44
ATOM     44  O   UNL     1       5.458  -4.469  21.454  0.00  0.00    -0.503 OA
ATOM     45  H   UNL     1       5.360  -3.969  20.617  0.00  0.00    +0.292 HD
ENDBRANCH  41  44
BRANCH  42  46
ATOM     46  O   UNL     1       3.945  -4.830  23.659  0.00  0.00    -0.503 OA
ATOM     47  H   UNL     1       3.878  -5.088  24.593  0.00  0.00    +0.292 HD
ENDBRANCH  42  46
ENDBRANCH  37  38
BRANCH  36  48
ATOM     48  O   UNL     1       5.798   2.468  29.679  0.00  0.00    -0.506 OA
ATOM     49  H   UNL     1       5.697   1.629  30.155  0.00  0.00    +0.292 HD
ENDBRANCH  36  48
BRANCH  33  50
ATOM     50  O   UNL     1       2.171   4.152  27.169  0.00  0.00    -0.507 OA
ATOM     51  H   UNL     1       1.567   4.007  27.913  0.00  0.00    +0.292 HD
ENDBRANCH  33  50
ENDBRANCH  26  27
ENDBRANCH   3  26
BRANCH   1  52
ATOM     52  C   UNL     1      10.269   0.360  24.281  0.00  0.00    +0.266 C 
BRANCH  52  53
ATOM     53  O   UNL     1       9.382   1.398  24.740  0.00  0.00    -0.458 OA
BRANCH  53  54
ATOM     54  C   UNL     1       8.492   1.820  23.801  0.00  0.00    +0.339 C 
ATOM     55  O   UNL     1       8.382   1.353  22.679  0.00  0.00    -0.245 OA
BRANCH  54  63
ATOM     56  C   UNL     1       4.499   4.638  23.016  0.00  0.00    +0.044 C 
ATOM     57  C   UNL     1       5.648   4.289  23.924  0.00  0.00    -0.047 A 
ATOM     58  C   UNL     1       5.856   4.950  25.158  0.00  0.00    -0.045 A 
ATOM     59  C   UNL     1       4.899   6.042  25.570  0.00  0.00    +0.044 C 
ATOM     60  C   UNL     1       6.954   4.572  25.970  0.00  0.00    -0.047 A 
ATOM     61  C   UNL     1       7.218   5.233  27.298  0.00  0.00    +0.044 C 
ATOM     62  C   UNL     1       7.828   3.557  25.536  0.00  0.00    +0.018 A 
ATOM     63  C   UNL     1       7.619   2.907  24.316  0.00  0.00    +0.060 A 
ATOM     64  C   UNL     1       6.530   3.277  23.522  0.00  0.00    +0.018 A 
ENDBRANCH  54  63
ENDBRANCH  53  54
ENDBRANCH  52  53
ENDBRANCH   1  52
TORSDOF 19
ENDMDL
MODEL 4
REMARK VINA RESULT:      -7.7      1.700      3.808
REMARK  Name = 
REMARK  22 active torsions:
REMARK  status: ('A' for Active; 'I' for Inactive)
REMARK    1  A    between atoms: C_1  and  C_2
REMARK    2  A    between atoms: C_4  and  C_10
REMARK    3  A    between atoms: C_6  and  C_9
REMARK    4  A    between atoms: C_7  and  C_8
REMARK    5  A    between atoms: C_10  and  O_12
REMARK    6  A    between atoms: O_12  and  C_13
REMARK    7  A    between atoms: C_13  and  C_14
REMARK    8  A    between atoms: C_16  and  O_60
REMARK    9  A    between atoms: C_18  and  O_59
REMARK   10  A    between atoms: C_20  and  O_47
REMARK   11  A    between atoms: C_22  and  O_25
REMARK   12  A    between atoms: O_25  and  C_26
REMARK   13  A    between atoms: C_27  and  C_39
REMARK   14  A    between atoms: C_31  and  O_38
REMARK   15  A    between atoms: C_33  and  O_37
REMARK   16  A    between atoms: C_41  and  O_46
REMARK   17  A    between atoms: C_42  and  O_45
REMARK   18  A    between atoms: O_47  and  C_48
REMARK   19  A    between atoms: C_48  and  C_50
REMARK   20  A    between atoms: C_52  and  O_58
REMARK   21  A    between atoms: C_53  and  O_57
REMARK   22  A    between atoms: C_54  and  O_56
REMARK                            x       y       z     vdW  Elec       q    Type
REMARK                         _______ _______ _______ _____ _____    ______ ____
ROOT
ATOM      1  C   UNL     1       9.338  -0.932  23.919  0.00  0.00    +0.191 C 
ATOM      2  O   UNL     1       7.974  -0.743  24.311  0.00  0.00    -0.329 OA
ATOM      3  C   UNL     1       7.186  -1.943  24.249  0.00  0.00    +0.352 C 
ATOM      4  C   UNL     1       7.177  -2.504  22.811  0.00  0.00    +0.276 C 
ATOM      5  C   UNL     1       8.584  -2.594  22.209  0.00  0.00    +0.192 C 
ATOM      6  C   UNL     1       9.372  -1.301  22.428  0.00  0.00    +0.179 C 
ENDROOT
BRANCH   6   7
ATOM      7  O   UNL     1      10.688  -1.507  21.907  0.00  0.00    -0.386 OA
ATOM      8  H   UNL     1      10.621  -1.491  20.934  0.00  0.00    +0.210 HD
ENDBRANCH   6   7
BRANCH   5   9
ATOM      9  O   UNL     1       8.489  -2.835  20.793  0.00  0.00    -0.385 OA
ATOM     10  H   UNL     1       8.718  -1.979  20.378  0.00  0.00    +0.210 HD
ENDBRANCH   5   9
BRANCH   4  11
ATOM     11  O   UNL     1       6.449  -3.755  22.657  0.00  0.00    -0.449 OA
BRANCH  11  12
ATOM     12  C   UNL     1       6.578  -4.792  23.521  0.00  0.00    +0.340 C 
ATOM     13  O   UNL     1       7.619  -5.253  23.952  0.00  0.00    -0.245 OA
BRANCH  12  14
ATOM     14  C   UNL     1       5.206  -5.282  23.877  0.00  0.00    +0.066 A 
ATOM     15  C   UNL     1       4.153  -4.359  23.964  0.00  0.00    +0.064 A 
ATOM     16  C   UNL     1       2.931  -4.743  24.492  0.00  0.00    +0.163 A 
ATOM     17  C   UNL     1       2.697  -6.062  24.839  0.00  0.00    +0.201 A 
ATOM     18  C   UNL     1       3.706  -7.011  24.667  0.00  0.00    +0.163 A 
ATOM     19  C   UNL     1       4.968  -6.635  24.194  0.00  0.00    +0.064 A 
BRANCH  18  20
ATOM     20  O   UNL     1       3.415  -8.296  25.043  0.00  0.00    -0.503 OA
ATOM     21  H   UNL     1       2.476  -8.349  25.292  0.00  0.00    +0.292 HD
ENDBRANCH  18  20
BRANCH  17  22
ATOM     22  O   UNL     1       1.508  -6.423  25.409  0.00  0.00    -0.501 OA
ATOM     23  H   UNL     1       0.821  -6.070  24.813  0.00  0.00    +0.292 HD
ENDBRANCH  17  22
BRANCH  16  24
ATOM     24  O   UNL     1       2.018  -3.769  24.762  0.00  0.00    -0.503 OA
ATOM     25  H   UNL     1       1.490  -4.123  25.500  0.00  0.00    +0.292 HD
ENDBRANCH  16  24
ENDBRANCH  12  14
ENDBRANCH  11  12
ENDBRANCH   4  11
BRANCH   3  26
ATOM     26  O   UNL     1       5.824  -1.592  24.599  0.00  0.00    -0.452 OA
BRANCH  26  27
ATOM     27  C   UNL     1       5.626  -0.898  25.792  0.00  0.00    +0.214 A 
ATOM     28  C   UNL     1       5.445   0.592  25.788  0.00  0.00    +0.238 A 
ATOM     29  O   UNL     1       4.921   1.193  24.854  0.00  0.00    -0.283 OA
ATOM     30  C   UNL     1       5.872   1.317  26.978  0.00  0.00    +0.109 A 
ATOM     31  C   UNL     1       5.912   0.590  28.165  0.00  0.00    +0.147 A 
ATOM     32  C   UNL     1       6.249   1.236  29.362  0.00  0.00    +0.092 A 
ATOM     33  C   UNL     1       6.553   2.597  29.342  0.00  0.00    +0.124 A 
ATOM     34  C   UNL     1       6.539   3.325  28.160  0.00  0.00    +0.091 A 
ATOM     35  O   UNL     1       5.603  -0.746  28.205  0.00  0.00    -0.451 OA
ATOM     36  C   UNL     1       6.198   2.682  26.973  0.00  0.00    +0.135 A 
ATOM     37  C   UNL     1       5.630  -1.498  27.012  0.00  0.00    +0.181 A 
BRANCH  37  38
ATOM     38  C   UNL     1       5.624  -2.986  27.286  0.00  0.00    +0.025 A 
ATOM     39  C   UNL     1       4.430  -3.627  27.697  0.00  0.00    +0.015 A 
ATOM     40  C   UNL     1       4.344  -5.018  27.885  0.00  0.00    +0.050 A 
ATOM     41  C   UNL     1       5.465  -5.796  27.669  0.00  0.00    +0.158 A 
ATOM     42  C   UNL     1       6.656  -5.208  27.269  0.00  0.00    +0.159 A 
ATOM     43  C   UNL     1       6.740  -3.823  27.065  0.00  0.00    +0.060 A 
BRANCH  41  44
ATOM     44  O   UNL     1       5.389  -7.146  27.847  0.00  0.00    -0.503 OA
ATOM     45  H   UNL     1       4.525  -7.407  27.467  0.00  0.00    +0.292 HD
ENDBRANCH  41  44
BRANCH  42  46
ATOM     46  O   UNL     1       7.726  -6.041  27.075  0.00  0.00    -0.503 OA
ATOM     47  H   UNL     1       7.662  -6.418  26.182  0.00  0.00    +0.292 HD
ENDBRANCH  42  46
ENDBRANCH  37  38
BRANCH  36  48
ATOM     48  O   UNL     1       6.228   3.392  25.805  0.00  0.00    -0.506 OA
ATOM     49  H   UNL     1       7.144   3.572  25.543  0.00  0.00    +0.292 HD
ENDBRANCH  36  48
BRANCH  33  50
ATOM     50  O   UNL     1       6.906   3.265  30.476  0.00  0.00    -0.507 OA
ATOM     51  H   UNL     1       7.503   2.718  31.010  0.00  0.00    +0.292 HD
ENDBRANCH  33  50
ENDBRANCH  26  27
ENDBRANCH   3  26
BRANCH   1  52
ATOM     52  C   UNL     1      10.092   0.382  24.185  0.00  0.00    +0.266 C 
BRANCH  52  53
ATOM     53  O   UNL     1      10.281   1.150  22.980  0.00  0.00    -0.458 OA
BRANCH  53  54
ATOM     54  C   UNL     1       9.422   2.196  22.850  0.00  0.00    +0.339 C 
ATOM     55  O   UNL     1       8.309   2.132  22.353  0.00  0.00    -0.245 OA
BRANCH  54  63
ATOM     56  C   UNL     1      13.304   5.255  23.119  0.00  0.00    +0.044 C 
ATOM     57  C   UNL     1      11.895   4.950  23.554  0.00  0.00    -0.047 A 
ATOM     58  C   UNL     1      11.182   5.797  24.436  0.00  0.00    -0.045 A 
ATOM     59  C   UNL     1      11.861   7.040  24.960  0.00  0.00    +0.044 C 
ATOM     60  C   UNL     1       9.857   5.458  24.803  0.00  0.00    -0.047 A 
ATOM     61  C   UNL     1       9.046   6.328  25.729  0.00  0.00    +0.044 C 
ATOM     62  C   UNL     1       9.272   4.279  24.300  0.00  0.00    +0.018 A 
ATOM     63  C   UNL     1       9.980   3.446  23.430  0.00  0.00    +0.060 A 
ATOM     64  C   UNL     1      11.284   3.789  23.063  0.00  0.00    +0.018 A 
ENDBRANCH  54  63
ENDBRANCH  53  54
ENDBRANCH  52  53
ENDBRANCH   1  52
TORSDOF 19
ENDMDL
MODEL 5
REMARK VINA RESULT:      -7.6      1.846      5.308
REMARK  Name = 
REMARK  22 active torsions:
REMARK  status: ('A' for Active; 'I' for Inactive)
REMARK    1  A    between atoms: C_1  and  C_2
REMARK    2  A    between atoms: C_4  and  C_10
REMARK    3  A    between atoms: C_6  and  C_9
REMARK    4  A    between atoms: C_7  and  C_8
REMARK    5  A    between atoms: C_10  and  O_12
REMARK    6  A    between atoms: O_12  and  C_13
REMARK    7  A    between atoms: C_13  and  C_14
REMARK    8  A    between atoms: C_16  and  O_60
REMARK    9  A    between atoms: C_18  and  O_59
REMARK   10  A    between atoms: C_20  and  O_47
REMARK   11  A    between atoms: C_22  and  O_25
REMARK   12  A    between atoms: O_25  and  C_26
REMARK   13  A    between atoms: C_27  and  C_39
REMARK   14  A    between atoms: C_31  and  O_38
REMARK   15  A    between atoms: C_33  and  O_37
REMARK   16  A    between atoms: C_41  and  O_46
REMARK   17  A    between atoms: C_42  and  O_45
REMARK   18  A    between atoms: O_47  and  C_48
REMARK   19  A    between atoms: C_48  and  C_50
REMARK   20  A    between atoms: C_52  and  O_58
REMARK   21  A    between atoms: C_53  and  O_57
REMARK   22  A    between atoms: C_54  and  O_56
REMARK                            x       y       z     vdW  Elec       q    Type
REMARK                         _______ _______ _______ _____ _____    ______ ____
ROOT
ATOM      1  C   UNL     1       9.586  -0.794  24.095  0.00  0.00    +0.191 C 
ATOM      2  O   UNL     1       8.373  -0.553  24.816  0.00  0.00    -0.329 OA
ATOM      3  C   UNL     1       7.602  -1.741  25.059  0.00  0.00    +0.352 C 
ATOM      4  C   UNL     1       7.217  -2.413  23.724  0.00  0.00    +0.276 C 
ATOM      5  C   UNL     1       8.416  -2.572  22.782  0.00  0.00    +0.192 C 
ATOM      6  C   UNL     1       9.227  -1.279  22.682  0.00  0.00    +0.179 C 
ENDROOT
BRANCH   6   7
ATOM      7  O   UNL     1      10.361  -1.546  21.851  0.00  0.00    -0.386 OA
ATOM      8  H   UNL     1      10.963  -0.782  21.928  0.00  0.00    +0.210 HD
ENDBRANCH   6   7
BRANCH   5   9
ATOM      9  O   UNL     1       7.952  -2.921  21.465  0.00  0.00    -0.385 OA
ATOM     10  H   UNL     1       8.043  -3.894  21.417  0.00  0.00    +0.210 HD
ENDBRANCH   5   9
BRANCH   4  11
ATOM     11  O   UNL     1       6.481  -3.660  23.866  0.00  0.00    -0.449 OA
BRANCH  11  12
ATOM     12  C   UNL     1       5.309  -3.900  23.227  0.00  0.00    +0.340 C 
ATOM     13  O   UNL     1       5.046  -3.629  22.070  0.00  0.00    -0.245 OA
BRANCH  12  14
ATOM     14  C   UNL     1       4.377  -4.574  24.189  0.00  0.00    +0.066 A 
ATOM     15  C   UNL     1       4.571  -5.930  24.490  0.00  0.00    +0.064 A 
ATOM     16  C   UNL     1       3.611  -6.631  25.203  0.00  0.00    +0.163 A 
ATOM     17  C   UNL     1       2.504  -5.981  25.719  0.00  0.00    +0.201 A 
ATOM     18  C   UNL     1       2.347  -4.610  25.510  0.00  0.00    +0.163 A 
ATOM     19  C   UNL     1       3.272  -3.895  24.740  0.00  0.00    +0.064 A 
BRANCH  18  20
ATOM     20  O   UNL     1       1.223  -4.031  26.035  0.00  0.00    -0.503 OA
ATOM     21  H   UNL     1       1.484  -3.396  26.722  0.00  0.00    +0.292 HD
ENDBRANCH  18  20
BRANCH  17  22
ATOM     22  O   UNL     1       1.535  -6.688  26.374  0.00  0.00    -0.501 OA
ATOM     23  H   UNL     1       0.947  -7.027  25.673  0.00  0.00    +0.292 HD
ENDBRANCH  17  22
BRANCH  16  24
ATOM     24  O   UNL     1       3.735  -7.985  25.278  0.00  0.00    -0.503 OA
ATOM     25  H   UNL     1       4.615  -8.174  24.904  0.00  0.00    +0.292 HD
ENDBRANCH  16  24
ENDBRANCH  12  14
ENDBRANCH  11  12
ENDBRANCH   4  11
BRANCH   3  26
ATOM     26  O   UNL     1       6.379  -1.343  25.726  0.00  0.00    -0.452 OA
BRANCH  26  27
ATOM     27  C   UNL     1       5.905  -2.170  26.744  0.00  0.00    +0.214 A 
ATOM     28  C   UNL     1       6.685  -3.378  27.173  0.00  0.00    +0.238 A 
ATOM     29  O   UNL     1       7.911  -3.428  27.120  0.00  0.00    -0.283 OA
ATOM     30  C   UNL     1       5.930  -4.500  27.717  0.00  0.00    +0.109 A 
ATOM     31  C   UNL     1       4.688  -4.198  28.271  0.00  0.00    +0.147 A 
ATOM     32  C   UNL     1       3.934  -5.214  28.873  0.00  0.00    +0.092 A 
ATOM     33  C   UNL     1       4.435  -6.516  28.895  0.00  0.00    +0.124 A 
ATOM     34  C   UNL     1       5.661  -6.830  28.324  0.00  0.00    +0.091 A 
ATOM     35  O   UNL     1       4.186  -2.921  28.270  0.00  0.00    -0.451 OA
ATOM     36  C   UNL     1       6.411  -5.817  27.732  0.00  0.00    +0.135 A 
ATOM     37  C   UNL     1       4.715  -1.971  27.371  0.00  0.00    +0.181 A 
BRANCH  37  38
ATOM     38  C   UNL     1       3.823  -0.755  27.252  0.00  0.00    +0.025 A 
ATOM     39  C   UNL     1       2.415  -0.905  27.251  0.00  0.00    +0.015 A 
ATOM     40  C   UNL     1       1.537   0.193  27.228  0.00  0.00    +0.050 A 
ATOM     41  C   UNL     1       2.059   1.471  27.197  0.00  0.00    +0.158 A 
ATOM     42  C   UNL     1       3.433   1.663  27.194  0.00  0.00    +0.159 A 
ATOM     43  C   UNL     1       4.311   0.570  27.234  0.00  0.00    +0.060 A 
BRANCH  41  44
ATOM     44  O   UNL     1       1.213   2.541  27.177  0.00  0.00    -0.503 OA
ATOM     45  H   UNL     1       0.507   2.323  27.819  0.00  0.00    +0.292 HD
ENDBRANCH  41  44
BRANCH  42  46
ATOM     46  O   UNL     1       3.880   2.958  27.163  0.00  0.00    -0.503 OA
ATOM     47  H   UNL     1       3.273   3.504  27.690  0.00  0.00    +0.292 HD
ENDBRANCH  42  46
ENDBRANCH  37  38
BRANCH  36  48
ATOM     48  O   UNL     1       7.597  -6.138  27.133  0.00  0.00    -0.506 OA
ATOM     49  H   UNL     1       7.500  -6.134  26.168  0.00  0.00    +0.292 HD
ENDBRANCH  36  48
BRANCH  33  50
ATOM     50  O   UNL     1       3.730  -7.541  29.450  0.00  0.00    -0.507 OA
ATOM     51  H   UNL     1       4.159  -8.387  29.246  0.00  0.00    +0.292 HD
ENDBRANCH  33  50
ENDBRANCH  26  27
ENDBRANCH   3  26
BRANCH   1  52
ATOM     52  C   UNL     1      10.378   0.524  24.048  0.00  0.00    +0.266 C 
BRANCH  52  53
ATOM     53  O   UNL     1      10.213   1.208  22.791  0.00  0.00    -0.458 OA
BRANCH  53  54
ATOM     54  C   UNL     1       9.303   2.219  22.826  0.00  0.00    +0.339 C 
ATOM     55  O   UNL     1       8.142   2.130  22.462  0.00  0.00    -0.245 OA
BRANCH  54  63
ATOM     56  C   UNL     1      13.241   5.204  23.130  0.00  0.00    +0.044 C 
ATOM     57  C   UNL     1      11.821   4.928  23.548  0.00  0.00    -0.047 A 
ATOM     58  C   UNL     1      11.113   5.793  24.417  0.00  0.00    -0.045 A 
ATOM     59  C   UNL     1      11.809   7.025  24.944  0.00  0.00    +0.044 C 
ATOM     60  C   UNL     1       9.778   5.481  24.770  0.00  0.00    -0.047 A 
ATOM     61  C   UNL     1       8.972   6.370  25.681  0.00  0.00    +0.044 C 
ATOM     62  C   UNL     1       9.176   4.312  24.264  0.00  0.00    +0.018 A 
ATOM     63  C   UNL     1       9.878   3.460  23.407  0.00  0.00    +0.060 A 
ATOM     64  C   UNL     1      11.193   3.777  23.055  0.00  0.00    +0.018 A 
ENDBRANCH  54  63
ENDBRANCH  53  54
ENDBRANCH  52  53
ENDBRANCH   1  52
TORSDOF 19
ENDMDL
MODEL 6
REMARK VINA RESULT:      -7.6      1.880      5.452
REMARK  Name = 
REMARK  22 active torsions:
REMARK  status: ('A' for Active; 'I' for Inactive)
REMARK    1  A    between atoms: C_1  and  C_2
REMARK    2  A    between atoms: C_4  and  C_10
REMARK    3  A    between atoms: C_6  and  C_9
REMARK    4  A    between atoms: C_7  and  C_8
REMARK    5  A    between atoms: C_10  and  O_12
REMARK    6  A    between atoms: O_12  and  C_13
REMARK    7  A    between atoms: C_13  and  C_14
REMARK    8  A    between atoms: C_16  and  O_60
REMARK    9  A    between atoms: C_18  and  O_59
REMARK   10  A    between atoms: C_20  and  O_47
REMARK   11  A    between atoms: C_22  and  O_25
REMARK   12  A    between atoms: O_25  and  C_26
REMARK   13  A    between atoms: C_27  and  C_39
REMARK   14  A    between atoms: C_31  and  O_38
REMARK   15  A    between atoms: C_33  and  O_37
REMARK   16  A    between atoms: C_41  and  O_46
REMARK   17  A    between atoms: C_42  and  O_45
REMARK   18  A    between atoms: O_47  and  C_48
REMARK   19  A    between atoms: C_48  and  C_50
REMARK   20  A    between atoms: C_52  and  O_58
REMARK   21  A    between atoms: C_53  and  O_57
REMARK   22  A    between atoms: C_54  and  O_56
REMARK                            x       y       z     vdW  Elec       q    Type
REMARK                         _______ _______ _______ _____ _____    ______ ____
ROOT
ATOM      1  C   UNL     1       9.942  -0.674  24.185  0.00  0.00    +0.191 C 
ATOM      2  O   UNL     1       8.756  -0.427  24.946  0.00  0.00    -0.329 OA
ATOM      3  C   UNL     1       7.940  -1.594  25.136  0.00  0.00    +0.352 C 
ATOM      4  C   UNL     1       7.500  -2.169  23.773  0.00  0.00    +0.276 C 
ATOM      5  C   UNL     1       8.671  -2.320  22.796  0.00  0.00    +0.192 C 
ATOM      6  C   UNL     1       9.535  -1.058  22.754  0.00  0.00    +0.179 C 
ENDROOT
BRANCH   6   7
ATOM      7  O   UNL     1      10.639  -1.321  21.883  0.00  0.00    -0.386 OA
ATOM      8  H   UNL     1      10.847  -2.272  21.957  0.00  0.00    +0.210 HD
ENDBRANCH   6   7
BRANCH   5   9
ATOM      9  O   UNL     1       8.167  -2.570  21.471  0.00  0.00    -0.385 OA
ATOM     10  H   UNL     1       7.210  -2.371  21.526  0.00  0.00    +0.210 HD
ENDBRANCH   5   9
BRANCH   4  11
ATOM     11  O   UNL     1       6.714  -3.391  23.858  0.00  0.00    -0.449 OA
BRANCH  11  12
ATOM     12  C   UNL     1       5.554  -3.568  23.179  0.00  0.00    +0.340 C 
ATOM     13  O   UNL     1       5.298  -3.159  22.061  0.00  0.00    -0.245 OA
BRANCH  12  14
ATOM     14  C   UNL     1       4.624  -4.373  24.037  0.00  0.00    +0.066 A 
ATOM     15  C   UNL     1       4.741  -5.771  24.043  0.00  0.00    +0.064 A 
ATOM     16  C   UNL     1       3.770  -6.549  24.654  0.00  0.00    +0.163 A 
ATOM     17  C   UNL     1       2.734  -5.959  25.356  0.00  0.00    +0.201 A 
ATOM     18  C   UNL     1       2.660  -4.567  25.440  0.00  0.00    +0.163 A 
ATOM     19  C   UNL     1       3.594  -3.761  24.778  0.00  0.00    +0.064 A 
BRANCH  18  20
ATOM     20  O   UNL     1       1.602  -4.047  26.137  0.00  0.00    -0.503 OA
ATOM     21  H   UNL     1       1.861  -3.188  26.512  0.00  0.00    +0.292 HD
ENDBRANCH  18  20
BRANCH  17  22
ATOM     22  O   UNL     1       1.751  -6.731  25.910  0.00  0.00    -0.501 OA
ATOM     23  H   UNL     1       2.175  -7.589  26.098  0.00  0.00    +0.292 HD
ENDBRANCH  17  22
BRANCH  16  24
ATOM     24  O   UNL     1       3.806  -7.894  24.445  0.00  0.00    -0.503 OA
ATOM     25  H   UNL     1       4.314  -8.247  25.197  0.00  0.00    +0.292 HD
ENDBRANCH  16  24
ENDBRANCH  12  14
ENDBRANCH  11  12
ENDBRANCH   4  11
BRANCH   3  26
ATOM     26  O   UNL     1       6.749  -1.186  25.853  0.00  0.00    -0.452 OA
BRANCH  26  27
ATOM     27  C   UNL     1       6.247  -2.063  26.815  0.00  0.00    +0.214 A 
ATOM     28  C   UNL     1       6.940  -3.364  27.098  0.00  0.00    +0.238 A 
ATOM     29  O   UNL     1       8.155  -3.506  26.985  0.00  0.00    -0.283 OA
ATOM     30  C   UNL     1       6.116  -4.467  27.575  0.00  0.00    +0.109 A 
ATOM     31  C   UNL     1       4.926  -4.121  28.210  0.00  0.00    +0.147 A 
ATOM     32  C   UNL     1       4.114  -5.125  28.753  0.00  0.00    +0.092 A 
ATOM     33  C   UNL     1       4.505  -6.459  28.637  0.00  0.00    +0.124 A 
ATOM     34  C   UNL     1       5.678  -6.815  27.985  0.00  0.00    +0.091 A 
ATOM     35  O   UNL     1       4.532  -2.814  28.345  0.00  0.00    -0.451 OA
ATOM     36  C   UNL     1       6.486  -5.815  27.451  0.00  0.00    +0.135 A 
ATOM     37  C   UNL     1       5.103  -1.830  27.511  0.00  0.00    +0.181 A 
BRANCH  37  38
ATOM     38  C   UNL     1       4.311  -0.541  27.541  0.00  0.00    +0.025 A 
ATOM     39  C   UNL     1       4.919   0.655  27.994  0.00  0.00    +0.015 A 
ATOM     40  C   UNL     1       4.260   1.897  27.965  0.00  0.00    +0.050 A 
ATOM     41  C   UNL     1       2.967   1.961  27.484  0.00  0.00    +0.158 A 
ATOM     42  C   UNL     1       2.333   0.813  27.032  0.00  0.00    +0.159 A 
ATOM     43  C   UNL     1       2.994  -0.424  27.044  0.00  0.00    +0.060 A 
BRANCH  41  44
ATOM     44  O   UNL     1       2.322   3.163  27.450  0.00  0.00    -0.503 OA
ATOM     45  H   UNL     1       2.584   3.571  26.600  0.00  0.00    +0.292 HD
ENDBRANCH  41  44
BRANCH  42  46
ATOM     46  O   UNL     1       1.051   0.951  26.568  0.00  0.00    -0.503 OA
ATOM     47  H   UNL     1       1.019   1.728  25.986  0.00  0.00    +0.292 HD
ENDBRANCH  42  46
ENDBRANCH  37  38
BRANCH  36  48
ATOM     48  O   UNL     1       7.618  -6.172  26.773  0.00  0.00    -0.506 OA
ATOM     49  H   UNL     1       8.230  -6.641  27.362  0.00  0.00    +0.292 HD
ENDBRANCH  36  48
BRANCH  33  50
ATOM     50  O   UNL     1       3.739  -7.472  29.131  0.00  0.00    -0.507 OA
ATOM     51  H   UNL     1       3.713  -8.206  28.498  0.00  0.00    +0.292 HD
ENDBRANCH  33  50
ENDBRANCH  26  27
ENDBRANCH   3  26
BRANCH   1  52
ATOM     52  C   UNL     1      10.789   0.611  24.197  0.00  0.00    +0.266 C 
BRANCH  52  53
ATOM     53  O   UNL     1      10.499   1.459  23.069  0.00  0.00    -0.458 OA
BRANCH  53  54
ATOM     54  C   UNL     1      10.333   2.770  23.391  0.00  0.00    +0.339 C 
ATOM     55  O   UNL     1      11.213   3.616  23.362  0.00  0.00    -0.245 OA
BRANCH  54  63
ATOM     56  C   UNL     1       7.170   4.097  26.960  0.00  0.00    +0.044 C 
ATOM     57  C   UNL     1       7.372   3.736  25.512  0.00  0.00    -0.047 A 
ATOM     58  C   UNL     1       6.299   3.704  24.590  0.00  0.00    -0.045 A 
ATOM     59  C   UNL     1       4.909   4.036  25.078  0.00  0.00    +0.044 C 
ATOM     60  C   UNL     1       6.555   3.362  23.240  0.00  0.00    -0.047 A 
ATOM     61  C   UNL     1       5.454   3.323  22.211  0.00  0.00    +0.044 C 
ATOM     62  C   UNL     1       7.867   3.046  22.835  0.00  0.00    +0.018 A 
ATOM     63  C   UNL     1       8.924   3.079  23.749  0.00  0.00    +0.060 A 
ATOM     64  C   UNL     1       8.667   3.425  25.079  0.00  0.00    +0.018 A 
ENDBRANCH  54  63
ENDBRANCH  53  54
ENDBRANCH  52  53
ENDBRANCH   1  52
TORSDOF 19
ENDMDL
MODEL 7
REMARK VINA RESULT:      -7.6      2.138      4.442
REMARK  Name = 
REMARK  22 active torsions:
REMARK  status: ('A' for Active; 'I' for Inactive)
REMARK    1  A    between atoms: C_1  and  C_2
REMARK    2  A    between atoms: C_4  and  C_10
REMARK    3  A    between atoms: C_6  and  C_9
REMARK    4  A    between atoms: C_7  and  C_8
REMARK    5  A    between atoms: C_10  and  O_12
REMARK    6  A    between atoms: O_12  and  C_13
REMARK    7  A    between atoms: C_13  and  C_14
REMARK    8  A    between atoms: C_16  and  O_60
REMARK    9  A    between atoms: C_18  and  O_59
REMARK   10  A    between atoms: C_20  and  O_47
REMARK   11  A    between atoms: C_22  and  O_25
REMARK   12  A    between atoms: O_25  and  C_26
REMARK   13  A    between atoms: C_27  and  C_39
REMARK   14  A    between atoms: C_31  and  O_38
REMARK   15  A    between atoms: C_33  and  O_37
REMARK   16  A    between atoms: C_41  and  O_46
REMARK   17  A    between atoms: C_42  and  O_45
REMARK   18  A    between atoms: O_47  and  C_48
REMARK   19  A    between atoms: C_48  and  C_50
REMARK   20  A    between atoms: C_52  and  O_58
REMARK   21  A    between atoms: C_53  and  O_57
REMARK   22  A    between atoms: C_54  and  O_56
REMARK                            x       y       z     vdW  Elec       q    Type
REMARK                         _______ _______ _______ _____ _____    ______ ____
ROOT
ATOM      1  C   UNL     1       6.581  -5.293  27.688  0.00  0.00    +0.191 C 
ATOM      2  O   UNL     1       5.856  -4.366  26.872  0.00  0.00    -0.329 OA
ATOM      3  C   UNL     1       4.719  -3.786  27.532  0.00  0.00    +0.352 C 
ATOM      4  C   UNL     1       3.730  -4.889  27.965  0.00  0.00    +0.276 C 
ATOM      5  C   UNL     1       4.422  -6.038  28.707  0.00  0.00    +0.192 C 
ATOM      6  C   UNL     1       5.680  -6.504  27.972  0.00  0.00    +0.179 C 
ENDROOT
BRANCH   6   7
ATOM      7  O   UNL     1       6.297  -7.515  28.775  0.00  0.00    -0.386 OA
ATOM      8  H   UNL     1       5.838  -7.522  29.636  0.00  0.00    +0.210 HD
ENDBRANCH   6   7
BRANCH   5   9
ATOM      9  O   UNL     1       3.520  -7.154  28.819  0.00  0.00    -0.385 OA
ATOM     10  H   UNL     1       2.646  -6.752  28.998  0.00  0.00    +0.210 HD
ENDBRANCH   5   9
BRANCH   4  11
ATOM     11  O   UNL     1       2.568  -4.405  28.695  0.00  0.00    -0.449 OA
BRANCH  11  12
ATOM     12  C   UNL     1       1.403  -4.073  28.086  0.00  0.00    +0.340 C 
ATOM     13  O   UNL     1       0.618  -4.838  27.556  0.00  0.00    -0.245 OA
BRANCH  12  14
ATOM     14  C   UNL     1       1.226  -2.587  28.183  0.00  0.00    +0.066 A 
ATOM     15  C   UNL     1       0.716  -1.888  27.079  0.00  0.00    +0.064 A 
ATOM     16  C   UNL     1       0.740  -0.502  27.060  0.00  0.00    +0.163 A 
ATOM     17  C   UNL     1       1.164   0.211  28.168  0.00  0.00    +0.201 A 
ATOM     18  C   UNL     1       1.583  -0.474  29.310  0.00  0.00    +0.163 A 
ATOM     19  C   UNL     1       1.628  -1.872  29.329  0.00  0.00    +0.064 A 
BRANCH  18  20
ATOM     20  O   UNL     1       2.005   0.290  30.366  0.00  0.00    -0.503 OA
ATOM     21  H   UNL     1       2.313  -0.295  31.078  0.00  0.00    +0.292 HD
ENDBRANCH  18  20
BRANCH  17  22
ATOM     22  O   UNL     1       1.236   1.574  28.122  0.00  0.00    -0.501 OA
ATOM     23  H   UNL     1       2.144   1.774  27.826  0.00  0.00    +0.292 HD
ENDBRANCH  17  22
BRANCH  16  24
ATOM     24  O   UNL     1       0.443   0.125  25.887  0.00  0.00    -0.503 OA
ATOM     25  H   UNL     1       0.473   1.075  26.101  0.00  0.00    +0.292 HD
ENDBRANCH  16  24
ENDBRANCH  12  14
ENDBRANCH  11  12
ENDBRANCH   4  11
BRANCH   3  26
ATOM     26  O   UNL     1       4.044  -2.933  26.575  0.00  0.00    -0.452 OA
BRANCH  26  27
ATOM     27  C   UNL     1       4.689  -1.755  26.199  0.00  0.00    +0.214 A 
ATOM     28  C   UNL     1       4.823  -0.615  27.166  0.00  0.00    +0.238 A 
ATOM     29  O   UNL     1       4.915  -0.783  28.379  0.00  0.00    -0.283 OA
ATOM     30  C   UNL     1       4.894   0.729  26.606  0.00  0.00    +0.109 A 
ATOM     31  C   UNL     1       5.349   0.828  25.293  0.00  0.00    +0.147 A 
ATOM     32  C   UNL     1       5.507   2.092  24.710  0.00  0.00    +0.092 A 
ATOM     33  C   UNL     1       5.193   3.231  25.450  0.00  0.00    +0.124 A 
ATOM     34  C   UNL     1       4.717   3.141  26.751  0.00  0.00    +0.091 A 
ATOM     35  O   UNL     1       5.675  -0.281  24.555  0.00  0.00    -0.451 OA
ATOM     36  C   UNL     1       4.565   1.884  27.330  0.00  0.00    +0.135 A 
ATOM     37  C   UNL     1       5.188  -1.544  24.952  0.00  0.00    +0.181 A 
BRANCH  37  38
ATOM     38  C   UNL     1       5.334  -2.573  23.852  0.00  0.00    +0.025 A 
ATOM     39  C   UNL     1       6.335  -2.417  22.863  0.00  0.00    +0.015 A 
ATOM     40  C   UNL     1       6.573  -3.382  21.868  0.00  0.00    +0.050 A 
ATOM     41  C   UNL     1       5.799  -4.525  21.842  0.00  0.00    +0.158 A 
ATOM     42  C   UNL     1       4.804  -4.716  22.790  0.00  0.00    +0.159 A 
ATOM     43  C   UNL     1       4.577  -3.764  23.794  0.00  0.00    +0.060 A 
BRANCH  41  44
ATOM     44  O   UNL     1       6.024  -5.466  20.881  0.00  0.00    -0.503 OA
ATOM     45  H   UNL     1       6.983  -5.411  20.686  0.00  0.00    +0.292 HD
ENDBRANCH  41  44
BRANCH  42  46
ATOM     46  O   UNL     1       4.076  -5.874  22.703  0.00  0.00    -0.503 OA
ATOM     47  H   UNL     1       4.665  -6.621  22.897  0.00  0.00    +0.292 HD
ENDBRANCH  42  46
ENDBRANCH  37  38
BRANCH  36  48
ATOM     48  O   UNL     1       4.055   1.797  28.596  0.00  0.00    -0.506 OA
ATOM     49  H   UNL     1       3.323   2.423  28.707  0.00  0.00    +0.292 HD
ENDBRANCH  36  48
BRANCH  33  50
ATOM     50  O   UNL     1       5.311   4.481  24.919  0.00  0.00    -0.507 OA
ATOM     51  H   UNL     1       4.432   4.843  24.726  0.00  0.00    +0.292 HD
ENDBRANCH  33  50
ENDBRANCH  26  27
ENDBRANCH   3  26
BRANCH   1  52
ATOM     52  C   UNL     1       7.848  -5.708  26.920  0.00  0.00    +0.266 C 
BRANCH  52  53
ATOM     53  O   UNL     1       7.894  -5.129  25.602  0.00  0.00    -0.458 OA
BRANCH  53  54
ATOM     54  C   UNL     1       9.130  -4.704  25.226  0.00  0.00    +0.339 C 
ATOM     55  O   UNL     1      10.088  -5.431  25.017  0.00  0.00    -0.245 OA
BRANCH  54  63
ATOM     56  C   UNL     1       8.252  -0.274  27.252  0.00  0.00    +0.044 C 
ATOM     57  C   UNL     1       8.748  -1.049  26.060  0.00  0.00    -0.047 A 
ATOM     58  C   UNL     1       9.220  -0.407  24.891  0.00  0.00    -0.045 A 
ATOM     59  C   UNL     1       9.218   1.101  24.837  0.00  0.00    +0.044 C 
ATOM     60  C   UNL     1       9.679  -1.194  23.806  0.00  0.00    -0.047 A 
ATOM     61  C   UNL     1      10.203  -0.565  22.540  0.00  0.00    +0.044 C 
ATOM     62  C   UNL     1       9.647  -2.599  23.898  0.00  0.00    +0.018 A 
ATOM     63  C   UNL     1       9.180  -3.229  25.055  0.00  0.00    +0.060 A 
ATOM     64  C   UNL     1       8.737  -2.449  26.126  0.00  0.00    +0.018 A 
ENDBRANCH  54  63
ENDBRANCH  53  54
ENDBRANCH  52  53
ENDBRANCH   1  52
TORSDOF 19
ENDMDL
MODEL 8
REMARK VINA RESULT:      -7.5      2.117      6.284
REMARK  Name = 
REMARK  22 active torsions:
REMARK  status: ('A' for Active; 'I' for Inactive)
REMARK    1  A    between atoms: C_1  and  C_2
REMARK    2  A    between atoms: C_4  and  C_10
REMARK    3  A    between atoms: C_6  and  C_9
REMARK    4  A    between atoms: C_7  and  C_8
REMARK    5  A    between atoms: C_10  and  O_12
REMARK    6  A    between atoms: O_12  and  C_13
REMARK    7  A    between atoms: C_13  and  C_14
REMARK    8  A    between atoms: C_16  and  O_60
REMARK    9  A    between atoms: C_18  and  O_59
REMARK   10  A    between atoms: C_20  and  O_47
REMARK   11  A    between atoms: C_22  and  O_25
REMARK   12  A    between atoms: O_25  and  C_26
REMARK   13  A    between atoms: C_27  and  C_39
REMARK   14  A    between atoms: C_31  and  O_38
REMARK   15  A    between atoms: C_33  and  O_37
REMARK   16  A    between atoms: C_41  and  O_46
REMARK   17  A    between atoms: C_42  and  O_45
REMARK   18  A    between atoms: O_47  and  C_48
REMARK   19  A    between atoms: C_48  and  C_50
REMARK   20  A    between atoms: C_52  and  O_58
REMARK   21  A    between atoms: C_53  and  O_57
REMARK   22  A    between atoms: C_54  and  O_56
REMARK                            x       y       z     vdW  Elec       q    Type
REMARK                         _______ _______ _______ _____ _____    ______ ____
ROOT
ATOM      1  C   UNL     1      10.206   1.998  23.775  0.00  0.00    +0.191 C 
ATOM      2  O   UNL     1       9.134   1.848  24.711  0.00  0.00    -0.329 OA
ATOM      3  C   UNL     1       8.409   0.616  24.562  0.00  0.00    +0.352 C 
ATOM      4  C   UNL     1       7.801   0.518  23.147  0.00  0.00    +0.276 C 
ATOM      5  C   UNL     1       8.822   0.833  22.048  0.00  0.00    +0.192 C 
ATOM      6  C   UNL     1       9.611   2.105  22.362  0.00  0.00    +0.179 C 
ENDROOT
BRANCH   6   7
ATOM      7  O   UNL     1      10.587   2.272  21.329  0.00  0.00    -0.386 OA
ATOM      8  H   UNL     1      10.180   2.820  20.632  0.00  0.00    +0.210 HD
ENDBRANCH   6   7
BRANCH   5   9
ATOM      9  O   UNL     1       8.141   1.018  20.794  0.00  0.00    -0.385 OA
ATOM     10  H   UNL     1       8.772   0.700  20.117  0.00  0.00    +0.210 HD
ENDBRANCH   5   9
BRANCH   4  11
ATOM     11  O   UNL     1       7.093  -0.725  22.879  0.00  0.00    -0.449 OA
BRANCH  11  12
ATOM     12  C   UNL     1       7.727  -1.913  22.720  0.00  0.00    +0.340 C 
ATOM     13  O   UNL     1       8.929  -2.086  22.625  0.00  0.00    -0.245 OA
BRANCH  12  14
ATOM     14  C   UNL     1       6.694  -2.999  22.693  0.00  0.00    +0.066 A 
ATOM     15  C   UNL     1       5.496  -2.819  23.401  0.00  0.00    +0.064 A 
ATOM     16  C   UNL     1       4.619  -3.879  23.569  0.00  0.00    +0.163 A 
ATOM     17  C   UNL     1       4.858  -5.095  22.953  0.00  0.00    +0.201 A 
ATOM     18  C   UNL     1       5.999  -5.258  22.165  0.00  0.00    +0.163 A 
ATOM     19  C   UNL     1       6.930  -4.221  22.033  0.00  0.00    +0.064 A 
BRANCH  18  20
ATOM     20  O   UNL     1       6.184  -6.490  21.596  0.00  0.00    -0.503 OA
ATOM     21  H   UNL     1       6.415  -6.375  20.659  0.00  0.00    +0.292 HD
ENDBRANCH  18  20
BRANCH  17  22
ATOM     22  O   UNL     1       4.018  -6.151  23.167  0.00  0.00    -0.501 OA
ATOM     23  H   UNL     1       4.599  -6.893  23.421  0.00  0.00    +0.292 HD
ENDBRANCH  17  22
BRANCH  16  24
ATOM     24  O   UNL     1       3.587  -3.720  24.443  0.00  0.00    -0.503 OA
ATOM     25  H   UNL     1       3.984  -3.283  25.218  0.00  0.00    +0.292 HD
ENDBRANCH  16  24
ENDBRANCH  12  14
ENDBRANCH  11  12
ENDBRANCH   4  11
BRANCH   3  26
ATOM     26  O   UNL     1       7.318   0.629  25.516  0.00  0.00    -0.452 OA
BRANCH  26  27
ATOM     27  C   UNL     1       7.054  -0.554  26.206  0.00  0.00    +0.214 A 
ATOM     28  C   UNL     1       8.007  -1.711  26.131  0.00  0.00    +0.238 A 
ATOM     29  O   UNL     1       9.218  -1.563  25.987  0.00  0.00    -0.283 OA
ATOM     30  C   UNL     1       7.447  -3.047  26.291  0.00  0.00    +0.109 A 
ATOM     31  C   UNL     1       6.246  -3.134  26.992  0.00  0.00    +0.147 A 
ATOM     32  C   UNL     1       5.682  -4.391  27.243  0.00  0.00    +0.092 A 
ATOM     33  C   UNL     1       6.325  -5.536  26.774  0.00  0.00    +0.124 A 
ATOM     34  C   UNL     1       7.510  -5.457  26.054  0.00  0.00    +0.091 A 
ATOM     35  O   UNL     1       5.607  -2.019  27.473  0.00  0.00    -0.451 OA
ATOM     36  C   UNL     1       8.072  -4.207  25.811  0.00  0.00    +0.135 A 
ATOM     37  C   UNL     1       5.925  -0.754  26.935  0.00  0.00    +0.181 A 
BRANCH  37  38
ATOM     38  C   UNL     1       4.894   0.289  27.308  0.00  0.00    +0.025 A 
ATOM     39  C   UNL     1       5.134   1.169  28.391  0.00  0.00    +0.015 A 
ATOM     40  C   UNL     1       4.252   2.210  28.730  0.00  0.00    +0.050 A 
ATOM     41  C   UNL     1       3.100   2.384  27.987  0.00  0.00    +0.158 A 
ATOM     42  C   UNL     1       2.825   1.543  26.920  0.00  0.00    +0.159 A 
ATOM     43  C   UNL     1       3.711   0.514  26.570  0.00  0.00    +0.060 A 
BRANCH  41  44
ATOM     44  O   UNL     1       2.242   3.394  28.309  0.00  0.00    -0.503 OA
ATOM     45  H   UNL     1       2.549   3.727  29.177  0.00  0.00    +0.292 HD
ENDBRANCH  41  44
BRANCH  42  46
ATOM     46  O   UNL     1       1.665   1.775  26.229  0.00  0.00    -0.503 OA
ATOM     47  H   UNL     1       1.806   2.534  25.640  0.00  0.00    +0.292 HD
ENDBRANCH  42  46
ENDBRANCH  37  38
BRANCH  36  48
ATOM     48  O   UNL     1       9.215  -4.131  25.065  0.00  0.00    -0.506 OA
ATOM     49  H   UNL     1       9.777  -4.903  25.231  0.00  0.00    +0.292 HD
ENDBRANCH  36  48
BRANCH  33  50
ATOM     50  O   UNL     1       5.805  -6.779  26.975  0.00  0.00    -0.507 OA
ATOM     51  H   UNL     1       5.183  -6.997  26.264  0.00  0.00    +0.292 HD
ENDBRANCH  33  50
ENDBRANCH  26  27
ENDBRANCH   3  26
BRANCH   1  52
ATOM     52  C   UNL     1      10.985   3.271  24.149  0.00  0.00    +0.266 C 
BRANCH  52  53
ATOM     53  O   UNL     1      10.561   4.410  23.375  0.00  0.00    -0.458 OA
BRANCH  53  54
ATOM     54  C   UNL     1      10.080   5.439  24.122  0.00  0.00    +0.339 C 
ATOM     55  O   UNL     1      10.717   6.427  24.450  0.00  0.00    -0.245 OA
BRANCH  54  63
ATOM     56  C   UNL     1       6.732   4.972  27.738  0.00  0.00    +0.044 C 
ATOM     57  C   UNL     1       7.003   5.021  26.258  0.00  0.00    -0.047 A 
ATOM     58  C   UNL     1       5.968   4.897  25.301  0.00  0.00    -0.045 A 
ATOM     59  C   UNL     1       4.551   4.702  25.781  0.00  0.00    +0.044 C 
ATOM     60  C   UNL     1       6.289   4.957  23.922  0.00  0.00    -0.047 A 
ATOM     61  C   UNL     1       5.227   4.843  22.859  0.00  0.00    +0.044 C 
ATOM     62  C   UNL     1       7.629   5.125  23.522  0.00  0.00    +0.018 A 
ATOM     63  C   UNL     1       8.648   5.247  24.471  0.00  0.00    +0.060 A 
ATOM     64  C   UNL     1       8.326   5.196  25.830  0.00  0.00    +0.018 A 
ENDBRANCH  54  63
ENDBRANCH  53  54
ENDBRANCH  52  53
ENDBRANCH   1  52
TORSDOF 19
ENDMDL
MODEL 9
REMARK VINA RESULT:      -7.5      2.088      8.332
REMARK  Name = 
REMARK  22 active torsions:
REMARK  status: ('A' for Active; 'I' for Inactive)
REMARK    1  A    between atoms: C_1  and  C_2
REMARK    2  A    between atoms: C_4  and  C_10
REMARK    3  A    between atoms: C_6  and  C_9
REMARK    4  A    between atoms: C_7  and  C_8
REMARK    5  A    between atoms: C_10  and  O_12
REMARK    6  A    between atoms: O_12  and  C_13
REMARK    7  A    between atoms: C_13  and  C_14
REMARK    8  A    between atoms: C_16  and  O_60
REMARK    9  A    between atoms: C_18  and  O_59
REMARK   10  A    between atoms: C_20  and  O_47
REMARK   11  A    between atoms: C_22  and  O_25
REMARK   12  A    between atoms: O_25  and  C_26
REMARK   13  A    between atoms: C_27  and  C_39
REMARK   14  A    between atoms: C_31  and  O_38
REMARK   15  A    between atoms: C_33  and  O_37
REMARK   16  A    between atoms: C_41  and  O_46
REMARK   17  A    between atoms: C_42  and  O_45
REMARK   18  A    between atoms: O_47  and  C_48
REMARK   19  A    between atoms: C_48  and  C_50
REMARK   20  A    between atoms: C_52  and  O_58
REMARK   21  A    between atoms: C_53  and  O_57
REMARK   22  A    between atoms: C_54  and  O_56
REMARK                            x       y       z     vdW  Elec       q    Type
REMARK                         _______ _______ _______ _____ _____    ______ ____
ROOT
ATOM      1  C   UNL     1       7.906  -1.285  22.617  0.00  0.00    +0.191 C 
ATOM      2  O   UNL     1       7.749  -1.051  24.020  0.00  0.00    -0.329 OA
ATOM      3  C   UNL     1       7.449   0.317  24.345  0.00  0.00    +0.352 C 
ATOM      4  C   UNL     1       8.577   1.246  23.847  0.00  0.00    +0.276 C 
ATOM      5  C   UNL     1       8.960   0.971  22.389  0.00  0.00    +0.192 C 
ATOM      6  C   UNL     1       9.148  -0.525  22.130  0.00  0.00    +0.179 C 
ENDROOT
BRANCH   6   7
ATOM      7  O   UNL     1       9.423  -0.689  20.735  0.00  0.00    -0.386 OA
ATOM      8  H   UNL     1       9.911   0.104  20.441  0.00  0.00    +0.210 HD
ENDBRANCH   6   7
BRANCH   5   9
ATOM      9  O   UNL     1      10.193   1.645  22.078  0.00  0.00    -0.385 OA
ATOM     10  H   UNL     1      10.850   1.260  22.692  0.00  0.00    +0.210 HD
ENDBRANCH   5   9
BRANCH   4  11
ATOM     11  O   UNL     1       8.337   2.662  24.078  0.00  0.00    -0.449 OA
BRANCH  11  12
ATOM     12  C   UNL     1       7.585   3.426  23.249  0.00  0.00    +0.340 C 
ATOM     13  O   UNL     1       7.944   3.926  22.198  0.00  0.00    -0.245 OA
BRANCH  12  14
ATOM     14  C   UNL     1       6.211   3.549  23.837  0.00  0.00    +0.066 A 
ATOM     15  C   UNL     1       5.136   2.912  23.198  0.00  0.00    +0.064 A 
ATOM     16  C   UNL     1       3.834   3.178  23.592  0.00  0.00    +0.163 A 
ATOM     17  C   UNL     1       3.581   3.986  24.687  0.00  0.00    +0.201 A 
ATOM     18  C   UNL     1       4.646   4.548  25.392  0.00  0.00    +0.163 A 
ATOM     19  C   UNL     1       5.966   4.344  24.974  0.00  0.00    +0.064 A 
BRANCH  18  20
ATOM     20  O   UNL     1       4.327   5.349  26.456  0.00  0.00    -0.503 OA
ATOM     21  H   UNL     1       3.369   5.297  26.616  0.00  0.00    +0.292 HD
ENDBRANCH  18  20
BRANCH  17  22
ATOM     22  O   UNL     1       2.294   4.286  25.037  0.00  0.00    -0.501 OA
ATOM     23  H   UNL     1       1.852   4.531  24.201  0.00  0.00    +0.292 HD
ENDBRANCH  17  22
BRANCH  16  24
ATOM     24  O   UNL     1       2.823   2.714  22.806  0.00  0.00    -0.503 OA
ATOM     25  H   UNL     1       2.992   3.105  21.930  0.00  0.00    +0.292 HD
ENDBRANCH  16  24
ENDBRANCH  12  14
ENDBRANCH  11  12
ENDBRANCH   4  11
BRANCH   3  26
ATOM     26  O   UNL     1       7.389   0.423  25.789  0.00  0.00    -0.452 OA
BRANCH  26  27
ATOM     27  C   UNL     1       7.033  -0.722  26.502  0.00  0.00    +0.214 A 
ATOM     28  C   UNL     1       7.938  -1.919  26.528  0.00  0.00    +0.238 A 
ATOM     29  O   UNL     1       9.161  -1.826  26.455  0.00  0.00    -0.283 OA
ATOM     30  C   UNL     1       7.312  -3.223  26.701  0.00  0.00    +0.109 A 
ATOM     31  C   UNL     1       6.069  -3.235  27.328  0.00  0.00    +0.147 A 
ATOM     32  C   UNL     1       5.437  -4.458  27.589  0.00  0.00    +0.092 A 
ATOM     33  C   UNL     1       6.058  -5.645  27.201  0.00  0.00    +0.124 A 
ATOM     34  C   UNL     1       7.286  -5.642  26.554  0.00  0.00    +0.091 A 
ATOM     35  O   UNL     1       5.450  -2.078  27.728  0.00  0.00    -0.451 OA
ATOM     36  C   UNL     1       7.915  -4.426  26.301  0.00  0.00    +0.135 A 
ATOM     37  C   UNL     1       5.854  -0.848  27.167  0.00  0.00    +0.181 A 
BRANCH  37  38
ATOM     38  C   UNL     1       4.848   0.249  27.437  0.00  0.00    +0.025 A 
ATOM     39  C   UNL     1       5.152   1.278  28.361  0.00  0.00    +0.015 A 
ATOM     40  C   UNL     1       4.293   2.368  28.591  0.00  0.00    +0.050 A 
ATOM     41  C   UNL     1       3.101   2.442  27.897  0.00  0.00    +0.158 A 
ATOM     42  C   UNL     1       2.763   1.453  26.984  0.00  0.00    +0.159 A 
ATOM     43  C   UNL     1       3.626   0.374  26.742  0.00  0.00    +0.060 A 
BRANCH  41  44
ATOM     44  O   UNL     1       2.264   3.497  28.112  0.00  0.00    -0.503 OA
ATOM     45  H   UNL     1       1.610   3.177  28.767  0.00  0.00    +0.292 HD
ENDBRANCH  41  44
BRANCH  42  46
ATOM     46  O   UNL     1       1.565   1.592  26.332  0.00  0.00    -0.503 OA
ATOM     47  H   UNL     1       0.995   0.844  26.578  0.00  0.00    +0.292 HD
ENDBRANCH  42  46
ENDBRANCH  37  38
BRANCH  36  48
ATOM     48  O   UNL     1       9.103  -4.425  25.626  0.00  0.00    -0.506 OA
ATOM     49  H   UNL     1       8.991  -4.818  24.746  0.00  0.00    +0.292 HD
ENDBRANCH  36  48
BRANCH  33  50
ATOM     50  O   UNL     1       5.473  -6.857  27.414  0.00  0.00    -0.507 OA
ATOM     51  H   UNL     1       5.197  -7.244  26.569  0.00  0.00    +0.292 HD
ENDBRANCH  33  50
ENDBRANCH  26  27
ENDBRANCH   3  26
BRANCH   1  52
ATOM     52  C   UNL     1       8.061  -2.802  22.406  0.00  0.00    +0.266 C 
BRANCH  52  53
ATOM     53  O   UNL     1       7.121  -3.556  23.195  0.00  0.00    -0.458 OA
BRANCH  53  54
ATOM     54  C   UNL     1       5.962  -3.847  22.546  0.00  0.00    +0.339 C 
ATOM     55  O   UNL     1       5.804  -3.800  21.337  0.00  0.00    -0.245 OA
BRANCH  54  63
ATOM     56  C   UNL     1       3.443  -7.641  24.485  0.00  0.00    +0.044 C 
ATOM     57  C   UNL     1       3.660  -6.152  24.441  0.00  0.00    -0.047 A 
ATOM     58  C   UNL     1       2.904  -5.259  25.237  0.00  0.00    -0.045 A 
ATOM     59  C   UNL     1       1.843  -5.820  26.153  0.00  0.00    +0.044 C 
ATOM     60  C   UNL     1       3.160  -3.869  25.153  0.00  0.00    -0.047 A 
ATOM     61  C   UNL     1       2.394  -2.873  25.985  0.00  0.00    +0.044 C 
ATOM     62  C   UNL     1       4.149  -3.392  24.272  0.00  0.00    +0.018 A 
ATOM     63  C   UNL     1       4.894  -4.277  23.487  0.00  0.00    +0.060 A 
ATOM     64  C   UNL     1       4.644  -5.649  23.580  0.00  0.00    +0.018 A 
ENDBRANCH  54  63
ENDBRANCH  53  54
ENDBRANCH  52  53
ENDBRANCH   1  52
TORSDOF 19
ENDMDL
