MODEL 1
REMARK VINA RESULT:      -8.4      0.000      0.000
REMARK  Name = 
REMARK  9 active torsions:
REMARK  status: ('A' for Active; 'I' for Inactive)
REMARK    1  A    between atoms: C_3  and  N_31
REMARK    2  A    between atoms: C_6  and  C_7
REMARK    3  A    between atoms: C_7  and  O_9
REMARK    4  A    between atoms: O_9  and  C_10
REMARK    5  A    between atoms: C_11  and  O_30
REMARK    6  A    between atoms: C_14  and  C_16
REMARK    7  A    between atoms: C_17  and  O_29
REMARK    8  A    between atoms: C_21  and  O_28
REMARK    9  A    between atoms: C_23  and  O_27
REMARK                            x       y       z     vdW  Elec       q    Type
REMARK                         _______ _______ _______ _____ _____    ______ ____
ROOT
ATOM      1  C   UNL     1       8.715   0.195  23.556  0.00  0.00    +0.174 A 
ATOM      2  C   UNL     1       8.179  -0.856  24.327  0.00  0.00    +0.061 A 
ATOM      3  C   UNL     1       8.068  -2.164  23.814  0.00  0.00    +0.025 A 
ATOM      4  C   UNL     1       8.500  -2.380  22.496  0.00  0.00    +0.015 A 
ATOM      5  C   UNL     1       9.051  -1.339  21.735  0.00  0.00    +0.050 A 
ATOM      6  C   UNL     1       9.165  -0.054  22.263  0.00  0.00    +0.159 A 
ENDROOT
BRANCH   3   7
ATOM      7  C   UNL     1       7.470  -3.289  24.595  0.00  0.00    +0.181 A 
ATOM      8  O   UNL     1       6.531  -4.017  23.862  0.00  0.00    -0.451 OA
ATOM      9  C   UNL     1       5.867  -5.059  24.461  0.00  0.00    +0.147 A 
ATOM     10  C   UNL     1       6.084  -5.430  25.783  0.00  0.00    +0.109 A 
ATOM     11  C   UNL     1       5.367  -6.497  26.344  0.00  0.00    +0.135 A 
ATOM     12  C   UNL     1       4.428  -7.191  25.588  0.00  0.00    +0.091 A 
ATOM     13  C   UNL     1       4.218  -6.816  24.265  0.00  0.00    +0.124 A 
ATOM     14  C   UNL     1       7.082  -4.691  26.558  0.00  0.00    +0.238 A 
ATOM     15  O   UNL     1       7.310  -5.015  27.721  0.00  0.00    -0.283 OA
ATOM     16  C   UNL     1       4.931  -5.758  23.694  0.00  0.00    +0.092 A 
ATOM     17  C   UNL     1       7.797  -3.579  25.874  0.00  0.00    +0.208 A 
BRANCH  11  18
ATOM     18  O   UNL     1       5.539  -6.915  27.636  0.00  0.00    -0.506 OA
ATOM     19  H   UNL     1       5.604  -7.899  27.633  0.00  0.00    +0.292 HD
ENDBRANCH  11  18
BRANCH  13  20
ATOM     20  O   UNL     1       3.308  -7.469  23.488  0.00  0.00    -0.507 OA
ATOM     21  H   UNL     1       3.780  -8.035  22.854  0.00  0.00    +0.292 HD
ENDBRANCH  13  20
BRANCH  17  22
ATOM     22  O   UNL     1       8.774  -2.934  26.611  0.00  0.00    -0.501 OA
ATOM     23  H   UNL     1       9.171  -3.579  27.220  0.00  0.00    +0.292 HD
ENDBRANCH  17  22
ENDBRANCH   3   7
BRANCH   6  24
ATOM     24  O   UNL     1       9.748   0.870  21.449  0.00  0.00    -0.503 OA
ATOM     25  H   UNL     1      10.708   0.894  21.644  0.00  0.00    +0.292 HD
ENDBRANCH   6  24
BRANCH   1  26
ATOM     26  O   UNL     1       8.813   1.429  24.252  0.00  0.00    -0.419 OA
BRANCH  26  27
ATOM     27  C   UNL     1       8.445   2.675  23.748  0.00  0.00    +0.345 C 
ATOM     28  O   UNL     1       7.341   2.969  23.324  0.00  0.00    -0.245 OA
BRANCH  27  30
ATOM     29  C   UNL     1       9.403   4.933  24.189  0.00  0.00    +0.017 A 
ATOM     30  C   UNL     1       9.608   3.610  23.769  0.00  0.00    +0.060 A 
ATOM     31  C   UNL     1      10.894   3.216  23.384  0.00  0.00    +0.017 A 
ATOM     32  C   UNL     1      11.944   4.140  23.380  0.00  0.00    +0.023 A 
ATOM     33  C   UNL     1      11.727   5.478  23.715  0.00  0.00    +0.025 A 
ATOM     34  C   UNL     1      10.464   5.850  24.183  0.00  0.00    +0.023 A 
BRANCH  33  35
ATOM     35  N   UNL     1      12.805   6.363  23.800  0.00  0.00    -0.358 N 
ATOM     36  H   UNL     1      12.638   7.263  23.357  0.00  0.00    +0.142 HD
ATOM     37  H   UNL     1      13.183   6.469  24.738  0.00  0.00    +0.142 HD
ENDBRANCH  33  35
ENDBRANCH  27  30
ENDBRANCH  26  27
ENDBRANCH   1  26
TORSDOF 9
ENDMDL
MODEL 2
REMARK VINA RESULT:      -8.4      1.887      2.346
REMARK  Name = 
REMARK  9 active torsions:
REMARK  status: ('A' for Active; 'I' for Inactive)
REMARK    1  A    between atoms: C_3  and  N_31
REMARK    2  A    between atoms: C_6  and  C_7
REMARK    3  A    between atoms: C_7  and  O_9
REMARK    4  A    between atoms: O_9  and  C_10
REMARK    5  A    between atoms: C_11  and  O_30
REMARK    6  A    between atoms: C_14  and  C_16
REMARK    7  A    between atoms: C_17  and  O_29
REMARK    8  A    between atoms: C_21  and  O_28
REMARK    9  A    between atoms: C_23  and  O_27
REMARK                            x       y       z     vdW  Elec       q    Type
REMARK                         _______ _______ _______ _____ _____    ______ ____
ROOT
ATOM      1  C   UNL     1       9.240   1.248  23.531  0.00  0.00    +0.174 A 
ATOM      2  C   UNL     1       8.705   0.109  24.165  0.00  0.00    +0.061 A 
ATOM      3  C   UNL     1       8.525  -1.104  23.471  0.00  0.00    +0.025 A 
ATOM      4  C   UNL     1       8.885  -1.132  22.115  0.00  0.00    +0.015 A 
ATOM      5  C   UNL     1       9.436  -0.005  21.488  0.00  0.00    +0.050 A 
ATOM      6  C   UNL     1       9.619   1.183  22.194  0.00  0.00    +0.159 A 
ENDROOT
BRANCH   3   7
ATOM      7  C   UNL     1       7.926  -2.316  24.108  0.00  0.00    +0.181 A 
ATOM      8  O   UNL     1       6.995  -2.955  23.285  0.00  0.00    -0.451 OA
ATOM      9  C   UNL     1       6.331  -4.064  23.750  0.00  0.00    +0.147 A 
ATOM     10  C   UNL     1       6.541  -4.589  25.020  0.00  0.00    +0.109 A 
ATOM     11  C   UNL     1       5.824  -5.718  25.444  0.00  0.00    +0.135 A 
ATOM     12  C   UNL     1       4.894  -6.320  24.603  0.00  0.00    +0.091 A 
ATOM     13  C   UNL     1       4.692  -5.790  23.333  0.00  0.00    +0.124 A 
ATOM     14  C   UNL     1       7.529  -3.944  25.886  0.00  0.00    +0.238 A 
ATOM     15  O   UNL     1       7.750  -4.403  27.004  0.00  0.00    -0.283 OA
ATOM     16  C   UNL     1       5.404  -4.670  22.898  0.00  0.00    +0.092 A 
ATOM     17  C   UNL     1       8.244  -2.756  25.345  0.00  0.00    +0.208 A 
BRANCH  11  18
ATOM     18  O   UNL     1       5.988  -6.286  26.679  0.00  0.00    -0.506 OA
ATOM     19  H   UNL     1       6.256  -5.577  27.308  0.00  0.00    +0.292 HD
ENDBRANCH  11  18
BRANCH  13  20
ATOM     20  O   UNL     1       3.792  -6.349  22.476  0.00  0.00    -0.507 OA
ATOM     21  H   UNL     1       4.218  -6.491  21.614  0.00  0.00    +0.292 HD
ENDBRANCH  13  20
BRANCH  17  22
ATOM     22  O   UNL     1       9.213  -2.200  26.162  0.00  0.00    -0.501 OA
ATOM     23  H   UNL     1       9.622  -2.914  26.678  0.00  0.00    +0.292 HD
ENDBRANCH  17  22
ENDBRANCH   3   7
BRANCH   6  24
ATOM     24  O   UNL     1      10.194   2.202  21.495  0.00  0.00    -0.503 OA
ATOM     25  H   UNL     1      11.125   1.962  21.306  0.00  0.00    +0.292 HD
ENDBRANCH   6  24
BRANCH   1  26
ATOM     26  O   UNL     1       9.414   2.362  24.396  0.00  0.00    -0.419 OA
BRANCH  26  27
ATOM     27  C   UNL     1       8.390   3.151  24.915  0.00  0.00    +0.345 C 
ATOM     28  O   UNL     1       7.859   2.996  26.002  0.00  0.00    -0.245 OA
BRANCH  27  30
ATOM     29  C   UNL     1       6.871   4.006  23.134  0.00  0.00    +0.017 A 
ATOM     30  C   UNL     1       8.002   4.211  23.940  0.00  0.00    +0.060 A 
ATOM     31  C   UNL     1       8.724   5.401  23.798  0.00  0.00    +0.017 A 
ATOM     32  C   UNL     1       8.345   6.347  22.840  0.00  0.00    +0.023 A 
ATOM     33  C   UNL     1       7.272   6.110  21.979  0.00  0.00    +0.025 A 
ATOM     34  C   UNL     1       6.500   4.963  22.178  0.00  0.00    +0.023 A 
BRANCH  33  35
ATOM     35  N   UNL     1       6.849   7.107  21.095  0.00  0.00    -0.358 N 
ATOM     36  H   UNL     1       6.659   8.001  21.540  0.00  0.00    +0.142 HD
ATOM     37  H   UNL     1       7.440   7.212  20.275  0.00  0.00    +0.142 HD
ENDBRANCH  33  35
ENDBRANCH  27  30
ENDBRANCH  26  27
ENDBRANCH   1  26
TORSDOF 9
ENDMDL
MODEL 3
REMARK VINA RESULT:      -8.2      2.088      3.364
REMARK  Name = 
REMARK  9 active torsions:
REMARK  status: ('A' for Active; 'I' for Inactive)
REMARK    1  A    between atoms: C_3  and  N_31
REMARK    2  A    between atoms: C_6  and  C_7
REMARK    3  A    between atoms: C_7  and  O_9
REMARK    4  A    between atoms: O_9  and  C_10
REMARK    5  A    between atoms: C_11  and  O_30
REMARK    6  A    between atoms: C_14  and  C_16
REMARK    7  A    between atoms: C_17  and  O_29
REMARK    8  A    between atoms: C_21  and  O_28
REMARK    9  A    between atoms: C_23  and  O_27
REMARK                            x       y       z     vdW  Elec       q    Type
REMARK                         _______ _______ _______ _____ _____    ______ ____
ROOT
ATOM      1  C   UNL     1       9.069   1.332  23.576  0.00  0.00    +0.174 A 
ATOM      2  C   UNL     1       8.307   0.224  23.997  0.00  0.00    +0.061 A 
ATOM      3  C   UNL     1       8.106  -0.894  23.163  0.00  0.00    +0.025 A 
ATOM      4  C   UNL     1       8.684  -0.857  21.884  0.00  0.00    +0.015 A 
ATOM      5  C   UNL     1       9.459   0.237  21.471  0.00  0.00    +0.050 A 
ATOM      6  C   UNL     1       9.658   1.327  22.315  0.00  0.00    +0.159 A 
ENDROOT
BRANCH   3   7
ATOM      7  C   UNL     1       7.272  -2.065  23.569  0.00  0.00    +0.181 A 
ATOM      8  O   UNL     1       7.729  -2.674  24.740  0.00  0.00    -0.451 OA
ATOM      9  C   UNL     1       7.084  -3.789  25.217  0.00  0.00    +0.147 A 
ATOM     10  C   UNL     1       5.984  -4.353  24.581  0.00  0.00    +0.109 A 
ATOM     11  C   UNL     1       5.374  -5.500  25.109  0.00  0.00    +0.135 A 
ATOM     12  C   UNL     1       5.866  -6.089  26.270  0.00  0.00    +0.091 A 
ATOM     13  C   UNL     1       6.964  -5.517  26.902  0.00  0.00    +0.124 A 
ATOM     14  C   UNL     1       5.480  -3.714  23.365  0.00  0.00    +0.238 A 
ATOM     15  O   UNL     1       4.495  -4.178  22.796  0.00  0.00    -0.283 OA
ATOM     16  C   UNL     1       7.576  -4.372  26.388  0.00  0.00    +0.092 A 
ATOM     17  C   UNL     1       6.190  -2.496  22.884  0.00  0.00    +0.208 A 
BRANCH  11  18
ATOM     18  O   UNL     1       4.286  -6.099  24.534  0.00  0.00    -0.506 OA
ATOM     19  H   UNL     1       4.578  -6.960  24.152  0.00  0.00    +0.292 HD
ENDBRANCH  11  18
BRANCH  13  20
ATOM     20  O   UNL     1       7.477  -6.061  28.042  0.00  0.00    -0.507 OA
ATOM     21  H   UNL     1       7.053  -6.921  28.202  0.00  0.00    +0.292 HD
ENDBRANCH  13  20
BRANCH  17  22
ATOM     22  O   UNL     1       5.658  -1.878  21.766  0.00  0.00    -0.501 OA
ATOM     23  H   UNL     1       5.720  -0.917  21.891  0.00  0.00    +0.292 HD
ENDBRANCH  17  22
ENDBRANCH   3   7
BRANCH   6  24
ATOM     24  O   UNL     1      10.456   2.317  21.824  0.00  0.00    -0.503 OA
ATOM     25  H   UNL     1      10.095   2.606  20.959  0.00  0.00    +0.292 HD
ENDBRANCH   6  24
BRANCH   1  26
ATOM     26  O   UNL     1       9.223   2.337  24.567  0.00  0.00    -0.419 OA
BRANCH  26  27
ATOM     27  C   UNL     1       8.207   3.155  25.056  0.00  0.00    +0.345 C 
ATOM     28  O   UNL     1       7.649   3.023  26.132  0.00  0.00    -0.245 OA
BRANCH  27  30
ATOM     29  C   UNL     1       6.704   4.065  23.288  0.00  0.00    +0.017 A 
ATOM     30  C   UNL     1       7.866   4.214  24.062  0.00  0.00    +0.060 A 
ATOM     31  C   UNL     1       8.662   5.348  23.871  0.00  0.00    +0.017 A 
ATOM     32  C   UNL     1       8.322   6.294  22.897  0.00  0.00    +0.023 A 
ATOM     33  C   UNL     1       7.215   6.107  22.068  0.00  0.00    +0.025 A 
ATOM     34  C   UNL     1       6.373   5.020  22.316  0.00  0.00    +0.023 A 
BRANCH  33  35
ATOM     35  N   UNL     1       6.836   7.108  21.168  0.00  0.00    -0.358 N 
ATOM     36  H   UNL     1       5.880   7.433  21.288  0.00  0.00    +0.142 HD
ATOM     37  H   UNL     1       7.493   7.882  21.109  0.00  0.00    +0.142 HD
ENDBRANCH  33  35
ENDBRANCH  27  30
ENDBRANCH  26  27
ENDBRANCH   1  26
TORSDOF 9
ENDMDL
MODEL 4
REMARK VINA RESULT:      -8.1      1.796      2.054
REMARK  Name = 
REMARK  9 active torsions:
REMARK  status: ('A' for Active; 'I' for Inactive)
REMARK    1  A    between atoms: C_3  and  N_31
REMARK    2  A    between atoms: C_6  and  C_7
REMARK    3  A    between atoms: C_7  and  O_9
REMARK    4  A    between atoms: O_9  and  C_10
REMARK    5  A    between atoms: C_11  and  O_30
REMARK    6  A    between atoms: C_14  and  C_16
REMARK    7  A    between atoms: C_17  and  O_29
REMARK    8  A    between atoms: C_21  and  O_28
REMARK    9  A    between atoms: C_23  and  O_27
REMARK                            x       y       z     vdW  Elec       q    Type
REMARK                         _______ _______ _______ _____ _____    ______ ____
ROOT
ATOM      1  C   UNL     1       9.065  -0.109  24.454  0.00  0.00    +0.174 A 
ATOM      2  C   UNL     1       8.384  -1.181  25.064  0.00  0.00    +0.061 A 
ATOM      3  C   UNL     1       8.370  -2.468  24.491  0.00  0.00    +0.025 A 
ATOM      4  C   UNL     1       9.050  -2.641  23.275  0.00  0.00    +0.015 A 
ATOM      5  C   UNL     1       9.744  -1.580  22.676  0.00  0.00    +0.050 A 
ATOM      6  C   UNL     1       9.758  -0.317  23.265  0.00  0.00    +0.159 A 
ENDROOT
BRANCH   3   7
ATOM      7  C   UNL     1       7.626  -3.614  25.097  0.00  0.00    +0.181 A 
ATOM      8  O   UNL     1       6.595  -4.082  24.279  0.00  0.00    -0.451 OA
ATOM      9  C   UNL     1       5.796  -5.108  24.720  0.00  0.00    +0.147 A 
ATOM     10  C   UNL     1       5.964  -5.713  25.960  0.00  0.00    +0.109 A 
ATOM     11  C   UNL     1       5.109  -6.751  26.361  0.00  0.00    +0.135 A 
ATOM     12  C   UNL     1       4.083  -7.181  25.527  0.00  0.00    +0.091 A 
ATOM     13  C   UNL     1       3.924  -6.574  24.286  0.00  0.00    +0.124 A 
ATOM     14  C   UNL     1       7.054  -5.249  26.820  0.00  0.00    +0.238 A 
ATOM     15  O   UNL     1       7.239  -5.783  27.910  0.00  0.00    -0.283 OA
ATOM     16  C   UNL     1       4.772  -5.543  23.874  0.00  0.00    +0.092 A 
ATOM     17  C   UNL     1       7.913  -4.147  26.305  0.00  0.00    +0.208 A 
BRANCH  11  18
ATOM     18  O   UNL     1       5.225  -7.391  27.566  0.00  0.00    -0.506 OA
ATOM     19  H   UNL     1       4.564  -7.000  28.184  0.00  0.00    +0.292 HD
ENDBRANCH  11  18
BRANCH  13  20
ATOM     20  O   UNL     1       2.932  -6.965  23.437  0.00  0.00    -0.507 OA
ATOM     21  H   UNL     1       3.331  -7.295  22.614  0.00  0.00    +0.292 HD
ENDBRANCH  13  20
BRANCH  17  22
ATOM     22  O   UNL     1       8.970  -3.766  27.112  0.00  0.00    -0.501 OA
ATOM     23  H   UNL     1       9.263  -2.883  26.832  0.00  0.00    +0.292 HD
ENDBRANCH  17  22
ENDBRANCH   3   7
BRANCH   6  24
ATOM     24  O   UNL     1      10.493   0.630  22.615  0.00  0.00    -0.503 OA
ATOM     25  H   UNL     1      11.145   0.176  22.042  0.00  0.00    +0.292 HD
ENDBRANCH   6  24
BRANCH   1  26
ATOM     26  O   UNL     1       9.030   1.098  25.202  0.00  0.00    -0.419 OA
BRANCH  26  27
ATOM     27  C   UNL     1       7.903   1.889  25.410  0.00  0.00    +0.345 C 
ATOM     28  O   UNL     1       7.086   1.736  26.302  0.00  0.00    -0.245 OA
BRANCH  27  30
ATOM     29  C   UNL     1       8.447   4.179  24.590  0.00  0.00    +0.017 A 
ATOM     30  C   UNL     1       7.810   2.949  24.364  0.00  0.00    +0.060 A 
ATOM     31  C   UNL     1       7.109   2.763  23.168  0.00  0.00    +0.017 A 
ATOM     32  C   UNL     1       7.014   3.802  22.236  0.00  0.00    +0.023 A 
ATOM     33  C   UNL     1       7.575   5.054  22.494  0.00  0.00    +0.025 A 
ATOM     34  C   UNL     1       8.347   5.213  23.647  0.00  0.00    +0.023 A 
BRANCH  33  35
ATOM     35  N   UNL     1       7.553   6.047  21.510  0.00  0.00    -0.358 N 
ATOM     36  H   UNL     1       6.691   6.585  21.484  0.00  0.00    +0.142 HD
ATOM     37  H   UNL     1       8.373   6.648  21.510  0.00  0.00    +0.142 HD
ENDBRANCH  33  35
ENDBRANCH  27  30
ENDBRANCH  26  27
ENDBRANCH   1  26
TORSDOF 9
ENDMDL
MODEL 5
REMARK VINA RESULT:      -8.0      1.246      2.729
REMARK  Name = 
REMARK  9 active torsions:
REMARK  status: ('A' for Active; 'I' for Inactive)
REMARK    1  A    between atoms: C_3  and  N_31
REMARK    2  A    between atoms: C_6  and  C_7
REMARK    3  A    between atoms: C_7  and  O_9
REMARK    4  A    between atoms: O_9  and  C_10
REMARK    5  A    between atoms: C_11  and  O_30
REMARK    6  A    between atoms: C_14  and  C_16
REMARK    7  A    between atoms: C_17  and  O_29
REMARK    8  A    between atoms: C_21  and  O_28
REMARK    9  A    between atoms: C_23  and  O_27
REMARK                            x       y       z     vdW  Elec       q    Type
REMARK                         _______ _______ _______ _____ _____    ______ ____
ROOT
ATOM      1  C   UNL     1       8.037   0.755  22.756  0.00  0.00    +0.174 A 
ATOM      2  C   UNL     1       7.331  -0.339  23.295  0.00  0.00    +0.061 A 
ATOM      3  C   UNL     1       7.585  -1.660  22.875  0.00  0.00    +0.025 A 
ATOM      4  C   UNL     1       8.562  -1.846  21.885  0.00  0.00    +0.015 A 
ATOM      5  C   UNL     1       9.279  -0.760  21.362  0.00  0.00    +0.050 A 
ATOM      6  C   UNL     1       9.024   0.538  21.799  0.00  0.00    +0.159 A 
ENDROOT
BRANCH   3   7
ATOM      7  C   UNL     1       6.826  -2.835  23.402  0.00  0.00    +0.181 A 
ATOM      8  O   UNL     1       7.126  -3.118  24.736  0.00  0.00    -0.451 OA
ATOM      9  C   UNL     1       6.533  -4.197  25.346  0.00  0.00    +0.147 A 
ATOM     10  C   UNL     1       5.638  -5.034  24.692  0.00  0.00    +0.109 A 
ATOM     11  C   UNL     1       5.072  -6.128  25.365  0.00  0.00    +0.135 A 
ATOM     12  C   UNL     1       5.406  -6.389  26.690  0.00  0.00    +0.091 A 
ATOM     13  C   UNL     1       6.300  -5.544  27.339  0.00  0.00    +0.124 A 
ATOM     14  C   UNL     1       5.296  -4.737  23.300  0.00  0.00    +0.238 A 
ATOM     15  O   UNL     1       4.489  -5.448  22.707  0.00  0.00    -0.283 OA
ATOM     16  C   UNL     1       6.864  -4.450  26.680  0.00  0.00    +0.092 A 
ATOM     17  C   UNL     1       5.942  -3.551  22.673  0.00  0.00    +0.208 A 
BRANCH  11  18
ATOM     18  O   UNL     1       4.181  -6.985  24.779  0.00  0.00    -0.506 OA
ATOM     19  H   UNL     1       4.532  -7.231  23.892  0.00  0.00    +0.292 HD
ENDBRANCH  11  18
BRANCH  13  20
ATOM     20  O   UNL     1       6.653  -5.763  28.637  0.00  0.00    -0.507 OA
ATOM     21  H   UNL     1       7.525  -5.364  28.801  0.00  0.00    +0.292 HD
ENDBRANCH  13  20
BRANCH  17  22
ATOM     22  O   UNL     1       5.558  -3.259  21.376  0.00  0.00    -0.501 OA
ATOM     23  H   UNL     1       4.815  -2.635  21.412  0.00  0.00    +0.292 HD
ENDBRANCH  17  22
ENDBRANCH   3   7
BRANCH   6  24
ATOM     24  O   UNL     1       9.803   1.511  21.249  0.00  0.00    -0.503 OA
ATOM     25  H   UNL     1      10.458   1.086  20.656  0.00  0.00    +0.292 HD
ENDBRANCH   6  24
BRANCH   1  26
ATOM     26  O   UNL     1       7.700   2.004  23.342  0.00  0.00    -0.419 OA
BRANCH  26  27
ATOM     27  C   UNL     1       8.273   2.541  24.492  0.00  0.00    +0.345 C 
ATOM     28  O   UNL     1       7.917   2.307  25.635  0.00  0.00    -0.245 OA
BRANCH  27  30
ATOM     29  C   UNL     1      10.633   2.946  23.800  0.00  0.00    +0.017 A 
ATOM     30  C   UNL     1       9.378   3.478  24.137  0.00  0.00    +0.060 A 
ATOM     31  C   UNL     1       9.210   4.867  24.128  0.00  0.00    +0.017 A 
ATOM     32  C   UNL     1      10.288   5.707  23.829  0.00  0.00    +0.023 A 
ATOM     33  C   UNL     1      11.558   5.185  23.576  0.00  0.00    +0.025 A 
ATOM     34  C   UNL     1      11.705   3.798  23.500  0.00  0.00    +0.023 A 
BRANCH  33  35
ATOM     35  N   UNL     1      12.599   6.033  23.184  0.00  0.00    -0.358 N 
ATOM     36  H   UNL     1      13.526   5.680  23.405  0.00  0.00    +0.142 HD
ATOM     37  H   UNL     1      12.535   6.348  22.220  0.00  0.00    +0.142 HD
ENDBRANCH  33  35
ENDBRANCH  27  30
ENDBRANCH  26  27
ENDBRANCH   1  26
TORSDOF 9
ENDMDL
MODEL 6
REMARK VINA RESULT:      -7.9      3.507      9.811
REMARK  Name = 
REMARK  9 active torsions:
REMARK  status: ('A' for Active; 'I' for Inactive)
REMARK    1  A    between atoms: C_3  and  N_31
REMARK    2  A    between atoms: C_6  and  C_7
REMARK    3  A    between atoms: C_7  and  O_9
REMARK    4  A    between atoms: O_9  and  C_10
REMARK    5  A    between atoms: C_11  and  O_30
REMARK    6  A    between atoms: C_14  and  C_16
REMARK    7  A    between atoms: C_17  and  O_29
REMARK    8  A    between atoms: C_21  and  O_28
REMARK    9  A    between atoms: C_23  and  O_27
REMARK                            x       y       z     vdW  Elec       q    Type
REMARK                         _______ _______ _______ _____ _____    ______ ____
ROOT
ATOM      1  C   UNL     1       8.395  -2.376  25.025  0.00  0.00    +0.174 A 
ATOM      2  C   UNL     1       8.024  -1.050  24.727  0.00  0.00    +0.061 A 
ATOM      3  C   UNL     1       8.725  -0.285  23.774  0.00  0.00    +0.025 A 
ATOM      4  C   UNL     1       9.822  -0.890  23.140  0.00  0.00    +0.015 A 
ATOM      5  C   UNL     1      10.181  -2.215  23.423  0.00  0.00    +0.050 A 
ATOM      6  C   UNL     1       9.467  -2.962  24.358  0.00  0.00    +0.159 A 
ENDROOT
BRANCH   3   7
ATOM      7  C   UNL     1       8.377   1.135  23.464  0.00  0.00    +0.181 A 
ATOM      8  O   UNL     1       9.397   2.028  23.801  0.00  0.00    -0.451 OA
ATOM      9  C   UNL     1       9.206   3.375  23.610  0.00  0.00    +0.147 A 
ATOM     10  C   UNL     1       8.028   3.902  23.092  0.00  0.00    +0.109 A 
ATOM     11  C   UNL     1       7.887   5.288  22.931  0.00  0.00    +0.135 A 
ATOM     12  C   UNL     1       8.919   6.150  23.291  0.00  0.00    +0.091 A 
ATOM     13  C   UNL     1      10.095   5.614  23.806  0.00  0.00    +0.124 A 
ATOM     14  C   UNL     1       6.959   2.978  22.714  0.00  0.00    +0.238 A 
ATOM     15  O   UNL     1       5.918   3.417  22.231  0.00  0.00    -0.283 OA
ATOM     16  C   UNL     1      10.248   4.235  23.966  0.00  0.00    +0.092 A 
ATOM     17  C   UNL     1       7.204   1.523  22.916  0.00  0.00    +0.208 A 
BRANCH  11  18
ATOM     18  O   UNL     1       6.757   5.869  22.422  0.00  0.00    -0.506 OA
ATOM     19  H   UNL     1       6.652   5.567  21.489  0.00  0.00    +0.292 HD
ENDBRANCH  11  18
BRANCH  13  20
ATOM     20  O   UNL     1      11.130   6.421  24.170  0.00  0.00    -0.507 OA
ATOM     21  H   UNL     1      11.557   6.771  23.370  0.00  0.00    +0.292 HD
ENDBRANCH  13  20
BRANCH  17  22
ATOM     22  O   UNL     1       6.200   0.669  22.497  0.00  0.00    -0.501 OA
ATOM     23  H   UNL     1       6.592  -0.206  22.339  0.00  0.00    +0.292 HD
ENDBRANCH  17  22
ENDBRANCH   3   7
BRANCH   6  24
ATOM     24  O   UNL     1       9.881  -4.249  24.527  0.00  0.00    -0.503 OA
ATOM     25  H   UNL     1       9.225  -4.715  25.087  0.00  0.00    +0.292 HD
ENDBRANCH   6  24
BRANCH   1  26
ATOM     26  O   UNL     1       7.540  -3.019  25.959  0.00  0.00    -0.419 OA
BRANCH  26  27
ATOM     27  C   UNL     1       7.603  -4.361  26.325  0.00  0.00    +0.345 C 
ATOM     28  O   UNL     1       8.434  -4.853  27.070  0.00  0.00    -0.245 OA
BRANCH  27  30
ATOM     29  C   UNL     1       5.677  -5.940  26.436  0.00  0.00    +0.017 A 
ATOM     30  C   UNL     1       6.521  -5.137  25.652  0.00  0.00    +0.060 A 
ATOM     31  C   UNL     1       6.318  -5.096  24.269  0.00  0.00    +0.017 A 
ATOM     32  C   UNL     1       5.316  -5.874  23.679  0.00  0.00    +0.023 A 
ATOM     33  C   UNL     1       4.531  -6.737  24.444  0.00  0.00    +0.025 A 
ATOM     34  C   UNL     1       4.675  -6.714  25.833  0.00  0.00    +0.023 A 
BRANCH  33  35
ATOM     35  N   UNL     1       3.472  -7.433  23.851  0.00  0.00    -0.358 N 
ATOM     36  H   UNL     1       3.594  -7.602  22.856  0.00  0.00    +0.142 HD
ATOM     37  H   UNL     1       3.202  -8.278  24.347  0.00  0.00    +0.142 HD
ENDBRANCH  33  35
ENDBRANCH  27  30
ENDBRANCH  26  27
ENDBRANCH   1  26
TORSDOF 9
ENDMDL
MODEL 7
REMARK VINA RESULT:      -7.8      2.193      3.445
REMARK  Name = 
REMARK  9 active torsions:
REMARK  status: ('A' for Active; 'I' for Inactive)
REMARK    1  A    between atoms: C_3  and  N_31
REMARK    2  A    between atoms: C_6  and  C_7
REMARK    3  A    between atoms: C_7  and  O_9
REMARK    4  A    between atoms: O_9  and  C_10
REMARK    5  A    between atoms: C_11  and  O_30
REMARK    6  A    between atoms: C_14  and  C_16
REMARK    7  A    between atoms: C_17  and  O_29
REMARK    8  A    between atoms: C_21  and  O_28
REMARK    9  A    between atoms: C_23  and  O_27
REMARK                            x       y       z     vdW  Elec       q    Type
REMARK                         _______ _______ _______ _____ _____    ______ ____
ROOT
ATOM      1  C   UNL     1       9.185  -1.635  24.731  0.00  0.00    +0.174 A 
ATOM      2  C   UNL     1       8.273  -2.708  24.683  0.00  0.00    +0.061 A 
ATOM      3  C   UNL     1       7.278  -2.874  25.667  0.00  0.00    +0.025 A 
ATOM      4  C   UNL     1       7.238  -1.935  26.710  0.00  0.00    +0.015 A 
ATOM      5  C   UNL     1       8.133  -0.856  26.748  0.00  0.00    +0.050 A 
ATOM      6  C   UNL     1       9.102  -0.701  25.759  0.00  0.00    +0.159 A 
ENDROOT
BRANCH   3   7
ATOM      7  C   UNL     1       6.321  -4.022  25.662  0.00  0.00    +0.181 A 
ATOM      8  O   UNL     1       5.337  -3.901  24.679  0.00  0.00    -0.451 OA
ATOM      9  C   UNL     1       4.362  -4.864  24.579  0.00  0.00    +0.147 A 
ATOM     10  C   UNL     1       4.303  -5.968  25.421  0.00  0.00    +0.109 A 
ATOM     11  C   UNL     1       3.276  -6.912  25.278  0.00  0.00    +0.135 A 
ATOM     12  C   UNL     1       2.303  -6.752  24.296  0.00  0.00    +0.091 A 
ATOM     13  C   UNL     1       2.370  -5.647  23.455  0.00  0.00    +0.124 A 
ATOM     14  C   UNL     1       5.341  -6.120  26.442  0.00  0.00    +0.238 A 
ATOM     15  O   UNL     1       5.326  -7.099  27.184  0.00  0.00    -0.283 OA
ATOM     16  C   UNL     1       3.392  -4.703  23.586  0.00  0.00    +0.092 A 
ATOM     17  C   UNL     1       6.394  -5.069  26.513  0.00  0.00    +0.208 A 
BRANCH  11  18
ATOM     18  O   UNL     1       3.167  -8.023  26.071  0.00  0.00    -0.506 OA
ATOM     19  H   UNL     1       2.796  -8.753  25.523  0.00  0.00    +0.292 HD
ENDBRANCH  11  18
BRANCH  13  20
ATOM     20  O   UNL     1       1.438  -5.452  22.480  0.00  0.00    -0.507 OA
ATOM     21  H   UNL     1       1.193  -6.313  22.099  0.00  0.00    +0.292 HD
ENDBRANCH  13  20
BRANCH  17  22
ATOM     22  O   UNL     1       7.394  -5.266  27.449  0.00  0.00    -0.501 OA
ATOM     23  H   UNL     1       7.127  -4.830  28.275  0.00  0.00    +0.292 HD
ENDBRANCH  17  22
ENDBRANCH   3   7
BRANCH   6  24
ATOM     24  O   UNL     1       9.895   0.402  25.876  0.00  0.00    -0.503 OA
ATOM     25  H   UNL     1      10.830   0.110  25.902  0.00  0.00    +0.292 HD
ENDBRANCH   6  24
BRANCH   1  26
ATOM     26  O   UNL     1      10.076  -1.585  23.625  0.00  0.00    -0.419 OA
BRANCH  26  27
ATOM     27  C   UNL     1       9.743  -1.180  22.335  0.00  0.00    +0.345 C 
ATOM     28  O   UNL     1       9.856  -1.859  21.328  0.00  0.00    -0.245 OA
BRANCH  27  30
ATOM     29  C   UNL     1      10.180   1.270  22.462  0.00  0.00    +0.017 A 
ATOM     30  C   UNL     1       9.248   0.228  22.341  0.00  0.00    +0.060 A 
ATOM     31  C   UNL     1       7.891   0.546  22.232  0.00  0.00    +0.017 A 
ATOM     32  C   UNL     1       7.471   1.880  22.284  0.00  0.00    +0.023 A 
ATOM     33  C   UNL     1       8.386   2.914  22.490  0.00  0.00    +0.025 A 
ATOM     34  C   UNL     1       9.748   2.604  22.512  0.00  0.00    +0.023 A 
BRANCH  33  35
ATOM     35  N   UNL     1       7.961   4.245  22.443  0.00  0.00    -0.358 N 
ATOM     36  H   UNL     1       8.339   4.772  21.660  0.00  0.00    +0.142 HD
ATOM     37  H   UNL     1       6.955   4.362  22.526  0.00  0.00    +0.142 HD
ENDBRANCH  33  35
ENDBRANCH  27  30
ENDBRANCH  26  27
ENDBRANCH   1  26
TORSDOF 9
ENDMDL
MODEL 8
REMARK VINA RESULT:      -7.8      2.441      3.198
REMARK  Name = 
REMARK  9 active torsions:
REMARK  status: ('A' for Active; 'I' for Inactive)
REMARK    1  A    between atoms: C_3  and  N_31
REMARK    2  A    between atoms: C_6  and  C_7
REMARK    3  A    between atoms: C_7  and  O_9
REMARK    4  A    between atoms: O_9  and  C_10
REMARK    5  A    between atoms: C_11  and  O_30
REMARK    6  A    between atoms: C_14  and  C_16
REMARK    7  A    between atoms: C_17  and  O_29
REMARK    8  A    between atoms: C_21  and  O_28
REMARK    9  A    between atoms: C_23  and  O_27
REMARK                            x       y       z     vdW  Elec       q    Type
REMARK                         _______ _______ _______ _____ _____    ______ ____
ROOT
ATOM      1  C   UNL     1       9.202   1.123  23.590  0.00  0.00    +0.174 A 
ATOM      2  C   UNL     1       8.639  -0.018  24.195  0.00  0.00    +0.061 A 
ATOM      3  C   UNL     1       8.491  -1.230  23.490  0.00  0.00    +0.025 A 
ATOM      4  C   UNL     1       8.914  -1.254  22.152  0.00  0.00    +0.015 A 
ATOM      5  C   UNL     1       9.493  -0.124  21.555  0.00  0.00    +0.050 A 
ATOM      6  C   UNL     1       9.643   1.061  22.271  0.00  0.00    +0.159 A 
ENDROOT
BRANCH   3   7
ATOM      7  C   UNL     1       7.864  -2.444  24.095  0.00  0.00    +0.181 A 
ATOM      8  O   UNL     1       6.929  -3.046  23.251  0.00  0.00    -0.451 OA
ATOM      9  C   UNL     1       6.240  -4.152  23.686  0.00  0.00    +0.147 A 
ATOM     10  C   UNL     1       6.428  -4.709  24.945  0.00  0.00    +0.109 A 
ATOM     11  C   UNL     1       5.687  -5.833  25.339  0.00  0.00    +0.135 A 
ATOM     12  C   UNL     1       4.752  -6.398  24.477  0.00  0.00    +0.091 A 
ATOM     13  C   UNL     1       4.571  -5.837  23.217  0.00  0.00    +0.124 A 
ATOM     14  C   UNL     1       7.421  -4.102  25.833  0.00  0.00    +0.238 A 
ATOM     15  O   UNL     1       7.624  -4.590  26.942  0.00  0.00    -0.283 OA
ATOM     16  C   UNL     1       5.308  -4.721  22.813  0.00  0.00    +0.092 A 
ATOM     17  C   UNL     1       8.164  -2.916  25.325  0.00  0.00    +0.208 A 
BRANCH  11  18
ATOM     18  O   UNL     1       5.829  -6.431  26.561  0.00  0.00    -0.506 OA
ATOM     19  H   UNL     1       5.014  -6.955  26.742  0.00  0.00    +0.292 HD
ENDBRANCH  11  18
BRANCH  13  20
ATOM     20  O   UNL     1       3.667  -6.359  22.341  0.00  0.00    -0.507 OA
ATOM     21  H   UNL     1       3.003  -6.868  22.837  0.00  0.00    +0.292 HD
ENDBRANCH  13  20
BRANCH  17  22
ATOM     22  O   UNL     1       9.136  -2.397  26.162  0.00  0.00    -0.501 OA
ATOM     23  H   UNL     1       9.215  -2.982  26.934  0.00  0.00    +0.292 HD
ENDBRANCH  17  22
ENDBRANCH   3   7
BRANCH   6  24
ATOM     24  O   UNL     1      10.249   2.083  21.603  0.00  0.00    -0.503 OA
ATOM     25  H   UNL     1       9.851   2.148  20.710  0.00  0.00    +0.292 HD
ENDBRANCH   6  24
BRANCH   1  26
ATOM     26  O   UNL     1       9.335   2.234  24.465  0.00  0.00    -0.419 OA
BRANCH  26  27
ATOM     27  C   UNL     1       8.789   3.498  24.257  0.00  0.00    +0.345 C 
ATOM     28  O   UNL     1       9.389   4.555  24.364  0.00  0.00    -0.245 OA
BRANCH  27  30
ATOM     29  C   UNL     1       6.431   3.031  24.916  0.00  0.00    +0.017 A 
ATOM     30  C   UNL     1       7.342   3.391  23.910  0.00  0.00    +0.060 A 
ATOM     31  C   UNL     1       6.860   3.635  22.620  0.00  0.00    +0.017 A 
ATOM     32  C   UNL     1       5.499   3.481  22.333  0.00  0.00    +0.023 A 
ATOM     33  C   UNL     1       4.603   3.040  23.309  0.00  0.00    +0.025 A 
ATOM     34  C   UNL     1       5.069   2.881  24.617  0.00  0.00    +0.023 A 
BRANCH  33  35
ATOM     35  N   UNL     1       3.235   2.986  23.030  0.00  0.00    -0.358 N 
ATOM     36  H   UNL     1       2.661   2.713  23.825  0.00  0.00    +0.142 HD
ATOM     37  H   UNL     1       2.872   3.816  22.571  0.00  0.00    +0.142 HD
ENDBRANCH  33  35
ENDBRANCH  27  30
ENDBRANCH  26  27
ENDBRANCH   1  26
TORSDOF 9
ENDMDL
MODEL 9
REMARK VINA RESULT:      -7.8      3.755      8.943
REMARK  Name = 
REMARK  9 active torsions:
REMARK  status: ('A' for Active; 'I' for Inactive)
REMARK    1  A    between atoms: C_3  and  N_31
REMARK    2  A    between atoms: C_6  and  C_7
REMARK    3  A    between atoms: C_7  and  O_9
REMARK    4  A    between atoms: O_9  and  C_10
REMARK    5  A    between atoms: C_11  and  O_30
REMARK    6  A    between atoms: C_14  and  C_16
REMARK    7  A    between atoms: C_17  and  O_29
REMARK    8  A    between atoms: C_21  and  O_28
REMARK    9  A    between atoms: C_23  and  O_27
REMARK                            x       y       z     vdW  Elec       q    Type
REMARK                         _______ _______ _______ _____ _____    ______ ____
ROOT
ATOM      1  C   UNL     1       4.906  -4.062  23.292  0.00  0.00    +0.174 A 
ATOM      2  C   UNL     1       5.593  -2.846  23.481  0.00  0.00    +0.061 A 
ATOM      3  C   UNL     1       6.864  -2.623  22.914  0.00  0.00    +0.025 A 
ATOM      4  C   UNL     1       7.429  -3.666  22.164  0.00  0.00    +0.015 A 
ATOM      5  C   UNL     1       6.737  -4.868  21.960  0.00  0.00    +0.050 A 
ATOM      6  C   UNL     1       5.475  -5.067  22.517  0.00  0.00    +0.159 A 
ENDROOT
BRANCH   3   7
ATOM      7  C   UNL     1       7.632  -1.359  23.128  0.00  0.00    +0.181 A 
ATOM      8  O   UNL     1       6.949  -0.228  22.677  0.00  0.00    -0.451 OA
ATOM      9  C   UNL     1       7.547   1.005  22.771  0.00  0.00    +0.147 A 
ATOM     10  C   UNL     1       8.820   1.186  23.299  0.00  0.00    +0.109 A 
ATOM     11  C   UNL     1       9.384   2.469  23.359  0.00  0.00    +0.135 A 
ATOM     12  C   UNL     1       8.680   3.572  22.886  0.00  0.00    +0.091 A 
ATOM     13  C   UNL     1       7.405   3.383  22.363  0.00  0.00    +0.124 A 
ATOM     14  C   UNL     1       9.540   0.013  23.797  0.00  0.00    +0.238 A 
ATOM     15  O   UNL     1      10.657   0.149  24.290  0.00  0.00    -0.283 OA
ATOM     16  C   UNL     1       6.832   2.111  22.303  0.00  0.00    +0.092 A 
ATOM     17  C   UNL     1       8.857  -1.306  23.697  0.00  0.00    +0.208 A 
BRANCH  11  18
ATOM     18  O   UNL     1      10.629   2.714  23.873  0.00  0.00    -0.506 OA
ATOM     19  H   UNL     1      10.618   3.609  24.286  0.00  0.00    +0.292 HD
ENDBRANCH  11  18
BRANCH  13  20
ATOM     20  O   UNL     1       6.680   4.436  21.890  0.00  0.00    -0.507 OA
ATOM     21  H   UNL     1       6.842   5.211  22.454  0.00  0.00    +0.292 HD
ENDBRANCH  13  20
BRANCH  17  22
ATOM     22  O   UNL     1       9.536  -2.389  24.226  0.00  0.00    -0.501 OA
ATOM     23  H   UNL     1       8.943  -3.159  24.206  0.00  0.00    +0.292 HD
ENDBRANCH  17  22
ENDBRANCH   3   7
BRANCH   6  24
ATOM     24  O   UNL     1       4.881  -6.258  22.225  0.00  0.00    -0.503 OA
ATOM     25  H   UNL     1       5.565  -6.868  21.877  0.00  0.00    +0.292 HD
ENDBRANCH   6  24
BRANCH   1  26
ATOM     26  O   UNL     1       3.612  -4.090  23.878  0.00  0.00    -0.419 OA
BRANCH  26  27
ATOM     27  C   UNL     1       3.311  -3.748  25.194  0.00  0.00    +0.345 C 
ATOM     28  O   UNL     1       2.618  -2.806  25.541  0.00  0.00    -0.245 OA
BRANCH  27  30
ATOM     29  C   UNL     1       4.836  -4.154  27.123  0.00  0.00    +0.017 A 
ATOM     30  C   UNL     1       3.983  -4.684  26.143  0.00  0.00    +0.060 A 
ATOM     31  C   UNL     1       3.794  -6.068  26.090  0.00  0.00    +0.017 A 
ATOM     32  C   UNL     1       4.479  -6.909  26.974  0.00  0.00    +0.023 A 
ATOM     33  C   UNL     1       5.393  -6.393  27.895  0.00  0.00    +0.025 A 
ATOM     34  C   UNL     1       5.516  -5.006  28.006  0.00  0.00    +0.023 A 
BRANCH  33  35
ATOM     35  N   UNL     1       5.994  -7.237  28.834  0.00  0.00    -0.358 N 
ATOM     36  H   UNL     1       5.673  -7.090  29.788  0.00  0.00    +0.142 HD
ATOM     37  H   UNL     1       5.976  -8.221  28.578  0.00  0.00    +0.142 HD
ENDBRANCH  33  35
ENDBRANCH  27  30
ENDBRANCH  26  27
ENDBRANCH   1  26
TORSDOF 9
ENDMDL
