MODEL 1
REMARK VINA RESULT:      -8.0      0.000      0.000
REMARK  Name = 
REMARK  15 active torsions:
REMARK  status: ('A' for Active; 'I' for Inactive)
REMARK    1  A    between atoms: C_1  and  C_2
REMARK    2  A    between atoms: C_3  and  O_47
REMARK    3  A    between atoms: C_5  and  O_46
REMARK    4  A    between atoms: C_6  and  O_45
REMARK    5  A    between atoms: C_8  and  O_11
REMARK    6  A    between atoms: O_11  and  C_12
REMARK    7  A    between atoms: C_13  and  C_37
REMARK    8  A    between atoms: C_17  and  O_24
REMARK    9  A    between atoms: C_19  and  O_23
REMARK   10  A    between atoms: O_24  and  C_25
REMARK   11  A    between atoms: C_27  and  O_36
REMARK   12  A    between atoms: C_28  and  O_35
REMARK   13  A    between atoms: C_30  and  O_34
REMARK   14  A    between atoms: C_39  and  O_44
REMARK   15  A    between atoms: C_40  and  O_43
REMARK                            x       y       z     vdW  Elec       q    Type
REMARK                         _______ _______ _______ _____ _____    ______ ____
ROOT
ATOM      1  C   UNL     1       5.089  -5.975  24.304  0.00  0.00    +0.214 A 
ATOM      2  C   UNL     1       5.701  -5.400  23.067  0.00  0.00    +0.238 A 
ATOM      3  O   UNL     1       5.987  -6.084  22.094  0.00  0.00    -0.283 OA
ATOM      4  C   UNL     1       6.122  -3.991  23.102  0.00  0.00    +0.109 A 
ATOM      5  C   UNL     1       6.250  -3.390  24.346  0.00  0.00    +0.147 A 
ATOM      6  C   UNL     1       6.798  -2.101  24.447  0.00  0.00    +0.093 A 
ATOM      7  C   UNL     1       7.215  -1.415  23.297  0.00  0.00    +0.131 A 
ATOM      8  C   UNL     1       7.068  -2.020  22.048  0.00  0.00    +0.092 A 
ATOM      9  O   UNL     1       5.888  -4.019  25.513  0.00  0.00    -0.451 OA
ATOM     10  C   UNL     1       6.504  -3.290  21.948  0.00  0.00    +0.135 A 
ATOM     11  C   UNL     1       5.264  -5.260  25.436  0.00  0.00    +0.181 A 
ENDROOT
BRANCH  11  12
ATOM     12  C   UNL     1       4.879  -5.794  26.764  0.00  0.00    +0.025 A 
ATOM     13  C   UNL     1       3.532  -5.932  27.137  0.00  0.00    +0.015 A 
ATOM     14  C   UNL     1       3.186  -6.460  28.392  0.00  0.00    +0.050 A 
ATOM     15  C   UNL     1       4.189  -6.850  29.264  0.00  0.00    +0.158 A 
ATOM     16  C   UNL     1       5.529  -6.710  28.912  0.00  0.00    +0.159 A 
ATOM     17  C   UNL     1       5.881  -6.187  27.668  0.00  0.00    +0.060 A 
BRANCH  15  18
ATOM     18  O   UNL     1       3.855  -7.380  30.485  0.00  0.00    -0.503 OA
ATOM     19  H   UNL     1       2.918  -7.135  30.608  0.00  0.00    +0.292 HD
ENDBRANCH  15  18
BRANCH  16  20
ATOM     20  O   UNL     1       6.464  -7.114  29.826  0.00  0.00    -0.503 OA
ATOM     21  H   UNL     1       6.374  -8.073  29.950  0.00  0.00    +0.292 HD
ENDBRANCH  16  20
ENDBRANCH  11  12
BRANCH  10  22
ATOM     22  O   UNL     1       6.314  -3.827  20.706  0.00  0.00    -0.506 OA
ATOM     23  H   UNL     1       6.024  -4.750  20.772  0.00  0.00    +0.292 HD
ENDBRANCH  10  22
BRANCH   1  24
ATOM     24  O   UNL     1       4.470  -7.219  24.331  0.00  0.00    -0.453 OA
BRANCH  24  28
ATOM     25  C   UNL     1       0.510  -8.432  25.625  0.00  0.00    +0.041 C 
ATOM     26  C   UNL     1       1.098  -8.714  24.243  0.00  0.00    +0.150 C 
ATOM     27  O   UNL     1       2.531  -8.596  24.211  0.00  0.00    -0.334 OA
ATOM     28  C   UNL     1       3.033  -7.257  24.322  0.00  0.00    +0.339 C 
ATOM     29  C   UNL     1       2.519  -6.391  23.155  0.00  0.00    +0.214 C 
ATOM     30  C   UNL     1       0.986  -6.413  23.169  0.00  0.00    +0.180 C 
ATOM     31  C   UNL     1       0.451  -7.854  23.147  0.00  0.00    +0.174 C 
BRANCH  29  32
ATOM     32  O   UNL     1       2.984  -6.886  21.883  0.00  0.00    -0.383 OA
ATOM     33  H   UNL     1       2.182  -6.967  21.332  0.00  0.00    +0.210 HD
ENDBRANCH  29  32
BRANCH  30  34
ATOM     34  O   UNL     1       0.497  -5.703  22.020  0.00  0.00    -0.386 OA
ATOM     35  H   UNL     1      -0.055  -6.350  21.532  0.00  0.00    +0.210 HD
ENDBRANCH  30  34
BRANCH  31  36
ATOM     36  O   UNL     1       0.745  -8.417  21.853  0.00  0.00    -0.387 OA
ATOM     37  H   UNL     1       1.534  -7.932  21.521  0.00  0.00    +0.210 HD
ENDBRANCH  31  36
ENDBRANCH  24  28
ENDBRANCH   1  24
BRANCH   7  38
ATOM     38  O   UNL     1       7.768  -0.160  23.241  0.00  0.00    -0.461 OA
BRANCH  38  39
ATOM     39  C   UNL     1       9.114  -0.030  23.721  0.00  0.00    +0.339 C 
ATOM     40  O   UNL     1       9.201   0.910  24.798  0.00  0.00    -0.337 OA
ATOM     41  C   UNL     1       8.883   2.249  24.405  0.00  0.00    +0.198 C 
ATOM     42  C   UNL     1       9.902   2.750  23.383  0.00  0.00    +0.171 C 
ATOM     43  C   UNL     1       9.891   1.839  22.150  0.00  0.00    +0.180 C 
ATOM     44  C   UNL     1      10.062   0.373  22.559  0.00  0.00    +0.214 C 
BRANCH  42  45
ATOM     45  O   UNL     1       9.629   4.098  23.015  0.00  0.00    -0.387 OA
ATOM     46  H   UNL     1       9.238   4.537  23.794  0.00  0.00    +0.210 HD
ENDBRANCH  42  45
BRANCH  43  47
ATOM     47  O   UNL     1       8.673   2.026  21.399  0.00  0.00    -0.386 OA
ATOM     48  H   UNL     1       8.767   1.590  20.530  0.00  0.00    +0.210 HD
ENDBRANCH  43  47
BRANCH  44  49
ATOM     49  O   UNL     1       9.910  -0.481  21.420  0.00  0.00    -0.383 OA
ATOM     50  H   UNL     1       9.447   0.044  20.737  0.00  0.00    +0.210 HD
ENDBRANCH  44  49
ENDBRANCH  38  39
ENDBRANCH   7  38
TORSDOF 14
ENDMDL
MODEL 2
REMARK VINA RESULT:      -7.8      2.439      5.788
REMARK  Name = 
REMARK  15 active torsions:
REMARK  status: ('A' for Active; 'I' for Inactive)
REMARK    1  A    between atoms: C_1  and  C_2
REMARK    2  A    between atoms: C_3  and  O_47
REMARK    3  A    between atoms: C_5  and  O_46
REMARK    4  A    between atoms: C_6  and  O_45
REMARK    5  A    between atoms: C_8  and  O_11
REMARK    6  A    between atoms: O_11  and  C_12
REMARK    7  A    between atoms: C_13  and  C_37
REMARK    8  A    between atoms: C_17  and  O_24
REMARK    9  A    between atoms: C_19  and  O_23
REMARK   10  A    between atoms: O_24  and  C_25
REMARK   11  A    between atoms: C_27  and  O_36
REMARK   12  A    between atoms: C_28  and  O_35
REMARK   13  A    between atoms: C_30  and  O_34
REMARK   14  A    between atoms: C_39  and  O_44
REMARK   15  A    between atoms: C_40  and  O_43
REMARK                            x       y       z     vdW  Elec       q    Type
REMARK                         _______ _______ _______ _____ _____    ______ ____
ROOT
ATOM      1  C   UNL     1       7.185  -2.844  25.296  0.00  0.00    +0.214 A 
ATOM      2  C   UNL     1       8.081  -1.740  25.758  0.00  0.00    +0.238 A 
ATOM      3  O   UNL     1       8.719  -1.801  26.800  0.00  0.00    -0.283 OA
ATOM      4  C   UNL     1       8.053  -0.475  25.008  0.00  0.00    +0.109 A 
ATOM      5  C   UNL     1       6.978  -0.256  24.158  0.00  0.00    +0.147 A 
ATOM      6  C   UNL     1       6.818   0.994  23.540  0.00  0.00    +0.093 A 
ATOM      7  C   UNL     1       7.740   2.024  23.774  0.00  0.00    +0.131 A 
ATOM      8  C   UNL     1       8.827   1.791  24.617  0.00  0.00    +0.092 A 
ATOM      9  O   UNL     1       6.024  -1.214  23.910  0.00  0.00    -0.451 OA
ATOM     10  C   UNL     1       8.996   0.543  25.213  0.00  0.00    +0.135 A 
ATOM     11  C   UNL     1       6.203  -2.488  24.440  0.00  0.00    +0.181 A 
ENDROOT
BRANCH  11  12
ATOM     12  C   UNL     1       5.130  -3.431  24.046  0.00  0.00    +0.025 A 
ATOM     13  C   UNL     1       3.842  -3.349  24.600  0.00  0.00    +0.015 A 
ATOM     14  C   UNL     1       2.831  -4.238  24.199  0.00  0.00    +0.050 A 
ATOM     15  C   UNL     1       3.115  -5.201  23.244  0.00  0.00    +0.158 A 
ATOM     16  C   UNL     1       4.389  -5.301  22.693  0.00  0.00    +0.159 A 
ATOM     17  C   UNL     1       5.398  -4.422  23.086  0.00  0.00    +0.060 A 
BRANCH  15  18
ATOM     18  O   UNL     1       2.126  -6.062  22.838  0.00  0.00    -0.503 OA
ATOM     19  H   UNL     1       2.493  -6.951  23.009  0.00  0.00    +0.292 HD
ENDBRANCH  15  18
BRANCH  16  20
ATOM     20  O   UNL     1       4.595  -6.279  21.758  0.00  0.00    -0.503 OA
ATOM     21  H   UNL     1       5.542  -6.297  21.540  0.00  0.00    +0.292 HD
ENDBRANCH  16  20
ENDBRANCH  11  12
BRANCH  10  22
ATOM     22  O   UNL     1      10.106   0.328  25.981  0.00  0.00    -0.506 OA
ATOM     23  H   UNL     1      10.047  -0.526  26.436  0.00  0.00    +0.292 HD
ENDBRANCH  10  22
BRANCH   1  24
ATOM     24  O   UNL     1       7.269  -4.141  25.790  0.00  0.00    -0.453 OA
BRANCH  24  28
ATOM     25  C   UNL     1       3.618  -3.860  28.116  0.00  0.00    +0.041 C 
ATOM     26  C   UNL     1       5.005  -4.122  28.702  0.00  0.00    +0.150 C 
ATOM     27  O   UNL     1       6.068  -3.751  27.808  0.00  0.00    -0.334 OA
ATOM     28  C   UNL     1       6.222  -4.598  26.661  0.00  0.00    +0.339 C 
ATOM     29  C   UNL     1       6.534  -6.043  27.099  0.00  0.00    +0.214 C 
ATOM     30  C   UNL     1       5.398  -6.534  28.005  0.00  0.00    +0.180 C 
ATOM     31  C   UNL     1       5.172  -5.572  29.181  0.00  0.00    +0.174 C 
BRANCH  29  32
ATOM     32  O   UNL     1       7.779  -6.122  27.822  0.00  0.00    -0.383 OA
ATOM     33  H   UNL     1       7.581  -5.769  28.710  0.00  0.00    +0.210 HD
ENDBRANCH  29  32
BRANCH  30  34
ATOM     34  O   UNL     1       5.732  -7.837  28.509  0.00  0.00    -0.386 OA
ATOM     35  H   UNL     1       4.897  -8.192  28.881  0.00  0.00    +0.210 HD
ENDBRANCH  30  34
BRANCH  31  36
ATOM     36  O   UNL     1       6.313  -5.664  30.058  0.00  0.00    -0.387 OA
ATOM     37  H   UNL     1       5.947  -5.766  30.966  0.00  0.00    +0.210 HD
ENDBRANCH  31  36
ENDBRANCH  24  28
ENDBRANCH   1  24
BRANCH   7  38
ATOM     38  O   UNL     1       7.712   3.291  23.246  0.00  0.00    -0.461 OA
BRANCH  38  39
ATOM     39  C   UNL     1       7.589   4.373  24.180  0.00  0.00    +0.339 C 
ATOM     40  O   UNL     1       6.222   4.604  24.542  0.00  0.00    -0.337 OA
ATOM     41  C   UNL     1       5.417   5.050  23.445  0.00  0.00    +0.198 C 
ATOM     42  C   UNL     1       5.911   6.408  22.951  0.00  0.00    +0.171 C 
ATOM     43  C   UNL     1       7.372   6.294  22.499  0.00  0.00    +0.180 C 
ATOM     44  C   UNL     1       8.231   5.661  23.598  0.00  0.00    +0.214 C 
BRANCH  42  45
ATOM     45  O   UNL     1       5.093   6.889  21.891  0.00  0.00    -0.387 OA
ATOM     46  H   UNL     1       4.194   7.012  22.252  0.00  0.00    +0.210 HD
ENDBRANCH  42  45
BRANCH  43  47
ATOM     47  O   UNL     1       7.461   5.537  21.275  0.00  0.00    -0.386 OA
ATOM     48  H   UNL     1       6.698   5.762  20.707  0.00  0.00    +0.210 HD
ENDBRANCH  43  47
BRANCH  44  49
ATOM     49  O   UNL     1       9.560   5.430  23.119  0.00  0.00    -0.383 OA
ATOM     50  H   UNL     1       9.734   4.474  23.228  0.00  0.00    +0.210 HD
ENDBRANCH  44  49
ENDBRANCH  38  39
ENDBRANCH   7  38
TORSDOF 14
ENDMDL
MODEL 3
REMARK VINA RESULT:      -7.7      2.380      9.262
REMARK  Name = 
REMARK  15 active torsions:
REMARK  status: ('A' for Active; 'I' for Inactive)
REMARK    1  A    between atoms: C_1  and  C_2
REMARK    2  A    between atoms: C_3  and  O_47
REMARK    3  A    between atoms: C_5  and  O_46
REMARK    4  A    between atoms: C_6  and  O_45
REMARK    5  A    between atoms: C_8  and  O_11
REMARK    6  A    between atoms: O_11  and  C_12
REMARK    7  A    between atoms: C_13  and  C_37
REMARK    8  A    between atoms: C_17  and  O_24
REMARK    9  A    between atoms: C_19  and  O_23
REMARK   10  A    between atoms: O_24  and  C_25
REMARK   11  A    between atoms: C_27  and  O_36
REMARK   12  A    between atoms: C_28  and  O_35
REMARK   13  A    between atoms: C_30  and  O_34
REMARK   14  A    between atoms: C_39  and  O_44
REMARK   15  A    between atoms: C_40  and  O_43
REMARK                            x       y       z     vdW  Elec       q    Type
REMARK                         _______ _______ _______ _____ _____    ______ ____
ROOT
ATOM      1  C   UNL     1       7.787  -1.847  24.676  0.00  0.00    +0.214 A 
ATOM      2  C   UNL     1       7.682  -2.968  23.693  0.00  0.00    +0.238 A 
ATOM      3  O   UNL     1       8.246  -2.948  22.607  0.00  0.00    -0.283 OA
ATOM      4  C   UNL     1       6.730  -4.051  23.985  0.00  0.00    +0.109 A 
ATOM      5  C   UNL     1       5.758  -3.808  24.945  0.00  0.00    +0.147 A 
ATOM      6  C   UNL     1       4.729  -4.741  25.152  0.00  0.00    +0.093 A 
ATOM      7  C   UNL     1       4.681  -5.921  24.396  0.00  0.00    +0.131 A 
ATOM      8  C   UNL     1       5.671  -6.165  23.444  0.00  0.00    +0.092 A 
ATOM      9  O   UNL     1       5.733  -2.659  25.699  0.00  0.00    -0.451 OA
ATOM     10  C   UNL     1       6.702  -5.248  23.255  0.00  0.00    +0.135 A 
ATOM     11  C   UNL     1       6.785  -1.757  25.577  0.00  0.00    +0.181 A 
ENDROOT
BRANCH  11  12
ATOM     12  C   UNL     1       6.656  -0.595  26.487  0.00  0.00    +0.025 A 
ATOM     13  C   UNL     1       5.592   0.315  26.368  0.00  0.00    +0.015 A 
ATOM     14  C   UNL     1       5.475   1.400  27.254  0.00  0.00    +0.050 A 
ATOM     15  C   UNL     1       6.419   1.564  28.255  0.00  0.00    +0.158 A 
ATOM     16  C   UNL     1       7.483   0.676  28.379  0.00  0.00    +0.159 A 
ATOM     17  C   UNL     1       7.608  -0.404  27.504  0.00  0.00    +0.060 A 
BRANCH  15  18
ATOM     18  O   UNL     1       6.299   2.613  29.131  0.00  0.00    -0.503 OA
ATOM     19  H   UNL     1       7.163   3.067  29.087  0.00  0.00    +0.292 HD
ENDBRANCH  15  18
BRANCH  16  20
ATOM     20  O   UNL     1       8.378   0.904  29.389  0.00  0.00    -0.503 OA
ATOM     21  H   UNL     1       8.706   1.814  29.305  0.00  0.00    +0.292 HD
ENDBRANCH  16  20
ENDBRANCH  11  12
BRANCH  10  22
ATOM     22  O   UNL     1       7.691  -5.548  22.361  0.00  0.00    -0.506 OA
ATOM     23  H   UNL     1       8.529  -5.141  22.629  0.00  0.00    +0.292 HD
ENDBRANCH  10  22
BRANCH   1  24
ATOM     24  O   UNL     1       8.786  -0.882  24.616  0.00  0.00    -0.453 OA
BRANCH  24  28
ATOM     25  C   UNL     1       6.369   2.491  23.350  0.00  0.00    +0.041 C 
ATOM     26  C   UNL     1       6.957   1.440  22.409  0.00  0.00    +0.150 C 
ATOM     27  O   UNL     1       7.338   0.232  23.089  0.00  0.00    -0.334 OA
ATOM     28  C   UNL     1       8.493   0.347  23.933  0.00  0.00    +0.339 C 
ATOM     29  C   UNL     1       9.724   0.762  23.104  0.00  0.00    +0.214 C 
ATOM     30  C   UNL     1       9.414   2.090  22.400  0.00  0.00    +0.180 C 
ATOM     31  C   UNL     1       8.123   1.991  21.574  0.00  0.00    +0.174 C 
BRANCH  29  32
ATOM     32  O   UNL     1      10.054  -0.230  22.110  0.00  0.00    -0.383 OA
ATOM     33  H   UNL     1       9.195  -0.562  21.787  0.00  0.00    +0.210 HD
ENDBRANCH  29  32
BRANCH  30  34
ATOM     34  O   UNL     1      10.511   2.429  21.537  0.00  0.00    -0.386 OA
ATOM     35  H   UNL     1      10.103   2.627  20.667  0.00  0.00    +0.210 HD
ENDBRANCH  30  34
BRANCH  31  36
ATOM     36  O   UNL     1       8.375   1.114  20.457  0.00  0.00    -0.387 OA
ATOM     37  H   UNL     1       9.337   0.910  20.488  0.00  0.00    +0.210 HD
ENDBRANCH  31  36
ENDBRANCH  24  28
ENDBRANCH   1  24
BRANCH   7  38
ATOM     38  O   UNL     1       3.740  -6.918  24.484  0.00  0.00    -0.461 OA
BRANCH  38  39
ATOM     39  C   UNL     1       2.367  -6.505  24.494  0.00  0.00    +0.339 C 
ATOM     40  O   UNL     1       1.968  -6.031  25.786  0.00  0.00    -0.337 OA
ATOM     41  C   UNL     1       1.993  -7.048  26.792  0.00  0.00    +0.198 C 
ATOM     42  C   UNL     1       0.975  -8.137  26.460  0.00  0.00    +0.171 C 
ATOM     43  C   UNL     1       1.306  -8.759  25.098  0.00  0.00    +0.180 C 
ATOM     44  C   UNL     1       1.452  -7.671  24.029  0.00  0.00    +0.214 C 
BRANCH  42  45
ATOM     45  O   UNL     1       0.952  -9.135  27.475  0.00  0.00    -0.387 OA
ATOM     46  H   UNL     1       1.872  -9.433  27.609  0.00  0.00    +0.210 HD
ENDBRANCH  42  45
BRANCH  43  47
ATOM     47  O   UNL     1       2.503  -9.557  25.189  0.00  0.00    -0.386 OA
ATOM     48  H   UNL     1       2.260 -10.502  25.125  0.00  0.00    +0.210 HD
ENDBRANCH  43  47
BRANCH  44  49
ATOM     49  O   UNL     1       1.898  -8.245  22.795  0.00  0.00    -0.383 OA
ATOM     50  H   UNL     1       1.819  -9.215  22.894  0.00  0.00    +0.210 HD
ENDBRANCH  44  49
ENDBRANCH  38  39
ENDBRANCH   7  38
TORSDOF 14
ENDMDL
MODEL 4
REMARK VINA RESULT:      -7.4      1.677      2.621
REMARK  Name = 
REMARK  15 active torsions:
REMARK  status: ('A' for Active; 'I' for Inactive)
REMARK    1  A    between atoms: C_1  and  C_2
REMARK    2  A    between atoms: C_3  and  O_47
REMARK    3  A    between atoms: C_5  and  O_46
REMARK    4  A    between atoms: C_6  and  O_45
REMARK    5  A    between atoms: C_8  and  O_11
REMARK    6  A    between atoms: O_11  and  C_12
REMARK    7  A    between atoms: C_13  and  C_37
REMARK    8  A    between atoms: C_17  and  O_24
REMARK    9  A    between atoms: C_19  and  O_23
REMARK   10  A    between atoms: O_24  and  C_25
REMARK   11  A    between atoms: C_27  and  O_36
REMARK   12  A    between atoms: C_28  and  O_35
REMARK   13  A    between atoms: C_30  and  O_34
REMARK   14  A    between atoms: C_39  and  O_44
REMARK   15  A    between atoms: C_40  and  O_43
REMARK                            x       y       z     vdW  Elec       q    Type
REMARK                         _______ _______ _______ _____ _____    ______ ____
ROOT
ATOM      1  C   UNL     1       6.807  -4.339  24.711  0.00  0.00    +0.214 A 
ATOM      2  C   UNL     1       7.586  -3.675  23.621  0.00  0.00    +0.238 A 
ATOM      3  O   UNL     1       8.094  -4.299  22.699  0.00  0.00    -0.283 OA
ATOM      4  C   UNL     1       7.885  -2.242  23.767  0.00  0.00    +0.109 A 
ATOM      5  C   UNL     1       7.741  -1.682  25.029  0.00  0.00    +0.147 A 
ATOM      6  C   UNL     1       8.162  -0.363  25.261  0.00  0.00    +0.093 A 
ATOM      7  C   UNL     1       8.725   0.394  24.224  0.00  0.00    +0.131 A 
ATOM      8  C   UNL     1       8.851  -0.171  22.954  0.00  0.00    +0.092 A 
ATOM      9  O   UNL     1       7.224  -2.380  26.094  0.00  0.00    -0.451 OA
ATOM     10  C   UNL     1       8.414  -1.472  22.720  0.00  0.00    +0.135 A 
ATOM     11  C   UNL     1       6.721  -3.658  25.874  0.00  0.00    +0.181 A 
ENDROOT
BRANCH  11  12
ATOM     12  C   UNL     1       6.146  -4.269  27.095  0.00  0.00    +0.025 A 
ATOM     13  C   UNL     1       5.020  -3.719  27.730  0.00  0.00    +0.015 A 
ATOM     14  C   UNL     1       4.475  -4.324  28.875  0.00  0.00    +0.050 A 
ATOM     15  C   UNL     1       5.058  -5.477  29.376  0.00  0.00    +0.158 A 
ATOM     16  C   UNL     1       6.180  -6.028  28.763  0.00  0.00    +0.159 A 
ATOM     17  C   UNL     1       6.727  -5.434  27.626  0.00  0.00    +0.060 A 
BRANCH  15  18
ATOM     18  O   UNL     1       4.521  -6.079  30.485  0.00  0.00    -0.503 OA
ATOM     19  H   UNL     1       4.837  -7.002  30.438  0.00  0.00    +0.292 HD
ENDBRANCH  15  18
BRANCH  16  20
ATOM     20  O   UNL     1       6.703  -7.166  29.316  0.00  0.00    -0.503 OA
ATOM     21  H   UNL     1       6.015  -7.585  29.859  0.00  0.00    +0.292 HD
ENDBRANCH  16  20
ENDBRANCH  11  12
BRANCH  10  22
ATOM     22  O   UNL     1       8.491  -1.972  21.452  0.00  0.00    -0.506 OA
ATOM     23  H   UNL     1       7.979  -2.792  21.375  0.00  0.00    +0.292 HD
ENDBRANCH  10  22
BRANCH   1  24
ATOM     24  O   UNL     1       6.290  -5.624  24.593  0.00  0.00    -0.453 OA
BRANCH  24  28
ATOM     25  C   UNL     1       2.733  -6.785  26.789  0.00  0.00    +0.041 C 
ATOM     26  C   UNL     1       3.182  -7.409  25.468  0.00  0.00    +0.150 C 
ATOM     27  O   UNL     1       4.569  -7.162  25.177  0.00  0.00    -0.334 OA
ATOM     28  C   UNL     1       4.884  -5.808  24.823  0.00  0.00    +0.339 C 
ATOM     29  C   UNL     1       4.113  -5.390  23.556  0.00  0.00    +0.214 C 
ATOM     30  C   UNL     1       2.611  -5.562  23.819  0.00  0.00    +0.180 C 
ATOM     31  C   UNL     1       2.290  -6.988  24.291  0.00  0.00    +0.174 C 
BRANCH  29  32
ATOM     32  O   UNL     1       4.485  -6.196  22.419  0.00  0.00    -0.383 OA
ATOM     33  H   UNL     1       4.340  -5.623  21.642  0.00  0.00    +0.210 HD
ENDBRANCH  29  32
BRANCH  30  34
ATOM     34  O   UNL     1       1.889  -5.283  22.608  0.00  0.00    -0.386 OA
ATOM     35  H   UNL     1       1.691  -4.323  22.641  0.00  0.00    +0.210 HD
ENDBRANCH  30  34
BRANCH  31  36
ATOM     36  O   UNL     1       2.502  -7.882  23.180  0.00  0.00    -0.387 OA
ATOM     37  H   UNL     1       3.348  -8.349  23.368  0.00  0.00    +0.210 HD
ENDBRANCH  31  36
ENDBRANCH  24  28
ENDBRANCH   1  24
BRANCH   7  38
ATOM     38  O   UNL     1       9.182   1.687  24.301  0.00  0.00    -0.461 OA
BRANCH  38  39
ATOM     39  C   UNL     1       9.268   2.412  23.067  0.00  0.00    +0.339 C 
ATOM     40  O   UNL     1      10.612   2.820  22.787  0.00  0.00    -0.337 OA
ATOM     41  C   UNL     1      11.123   3.763  23.735  0.00  0.00    +0.198 C 
ATOM     42  C   UNL     1      10.316   5.058  23.674  0.00  0.00    +0.171 C 
ATOM     43  C   UNL     1       8.843   4.766  23.988  0.00  0.00    +0.180 C 
ATOM     44  C   UNL     1       8.314   3.637  23.096  0.00  0.00    +0.214 C 
BRANCH  42  45
ATOM     45  O   UNL     1      10.840   6.025  24.577  0.00  0.00    -0.387 OA
ATOM     46  H   UNL     1      10.396   5.888  25.436  0.00  0.00    +0.210 HD
ENDBRANCH  42  45
BRANCH  43  47
ATOM     47  O   UNL     1       8.683   4.439  25.383  0.00  0.00    -0.386 OA
ATOM     48  H   UNL     1       9.028   5.177  25.923  0.00  0.00    +0.210 HD
ENDBRANCH  43  47
BRANCH  44  49
ATOM     49  O   UNL     1       6.986   3.276  23.490  0.00  0.00    -0.383 OA
ATOM     50  H   UNL     1       6.924   2.304  23.404  0.00  0.00    +0.210 HD
ENDBRANCH  44  49
ENDBRANCH  38  39
ENDBRANCH   7  38
TORSDOF 14
ENDMDL
MODEL 5
REMARK VINA RESULT:      -7.4      2.432      4.291
REMARK  Name = 
REMARK  15 active torsions:
REMARK  status: ('A' for Active; 'I' for Inactive)
REMARK    1  A    between atoms: C_1  and  C_2
REMARK    2  A    between atoms: C_3  and  O_47
REMARK    3  A    between atoms: C_5  and  O_46
REMARK    4  A    between atoms: C_6  and  O_45
REMARK    5  A    between atoms: C_8  and  O_11
REMARK    6  A    between atoms: O_11  and  C_12
REMARK    7  A    between atoms: C_13  and  C_37
REMARK    8  A    between atoms: C_17  and  O_24
REMARK    9  A    between atoms: C_19  and  O_23
REMARK   10  A    between atoms: O_24  and  C_25
REMARK   11  A    between atoms: C_27  and  O_36
REMARK   12  A    between atoms: C_28  and  O_35
REMARK   13  A    between atoms: C_30  and  O_34
REMARK   14  A    between atoms: C_39  and  O_44
REMARK   15  A    between atoms: C_40  and  O_43
REMARK                            x       y       z     vdW  Elec       q    Type
REMARK                         _______ _______ _______ _____ _____    ______ ____
ROOT
ATOM      1  C   UNL     1       7.695  -3.277  25.273  0.00  0.00    +0.214 A 
ATOM      2  C   UNL     1       8.725  -2.587  24.438  0.00  0.00    +0.238 A 
ATOM      3  O   UNL     1       9.691  -3.172  23.966  0.00  0.00    -0.283 OA
ATOM      4  C   UNL     1       8.652  -1.122  24.331  0.00  0.00    +0.109 A 
ATOM      5  C   UNL     1       7.873  -0.448  25.261  0.00  0.00    +0.147 A 
ATOM      6  C   UNL     1       7.891   0.955  25.305  0.00  0.00    +0.093 A 
ATOM      7  C   UNL     1       8.690   1.681  24.411  0.00  0.00    +0.131 A 
ATOM      8  C   UNL     1       9.459   0.997  23.468  0.00  0.00    +0.092 A 
ATOM      9  O   UNL     1       7.090  -1.102  26.183  0.00  0.00    -0.451 OA
ATOM     10  C   UNL     1       9.423  -0.394  23.412  0.00  0.00    +0.135 A 
ATOM     11  C   UNL     1       6.986  -2.487  26.108  0.00  0.00    +0.181 A 
ENDROOT
BRANCH  11  12
ATOM     12  C   UNL     1       6.068  -3.051  27.125  0.00  0.00    +0.025 A 
ATOM     13  C   UNL     1       4.817  -2.469  27.387  0.00  0.00    +0.015 A 
ATOM     14  C   UNL     1       3.951  -3.030  28.341  0.00  0.00    +0.050 A 
ATOM     15  C   UNL     1       4.340  -4.172  29.022  0.00  0.00    +0.158 A 
ATOM     16  C   UNL     1       5.580  -4.755  28.780  0.00  0.00    +0.159 A 
ATOM     17  C   UNL     1       6.446  -4.204  27.835  0.00  0.00    +0.060 A 
BRANCH  15  18
ATOM     18  O   UNL     1       3.491  -4.732  29.943  0.00  0.00    -0.503 OA
ATOM     19  H   UNL     1       4.066  -5.299  30.492  0.00  0.00    +0.292 HD
ENDBRANCH  15  18
BRANCH  16  20
ATOM     20  O   UNL     1       5.897  -5.880  29.493  0.00  0.00    -0.503 OA
ATOM     21  H   UNL     1       5.160  -6.507  29.414  0.00  0.00    +0.292 HD
ENDBRANCH  16  20
ENDBRANCH  11  12
BRANCH  10  22
ATOM     22  O   UNL     1      10.135  -1.030  22.435  0.00  0.00    -0.506 OA
ATOM     23  H   UNL     1      11.075  -1.077  22.672  0.00  0.00    +0.292 HD
ENDBRANCH  10  22
BRANCH   1  24
ATOM     24  O   UNL     1       7.536  -4.658  25.286  0.00  0.00    -0.453 OA
BRANCH  24  28
ATOM     25  C   UNL     1       6.733  -5.540  21.115  0.00  0.00    +0.041 C 
ATOM     26  C   UNL     1       5.757  -4.839  22.059  0.00  0.00    +0.150 C 
ATOM     27  O   UNL     1       6.401  -4.296  23.225  0.00  0.00    -0.334 OA
ATOM     28  C   UNL     1       6.862  -5.268  24.173  0.00  0.00    +0.339 C 
ATOM     29  C   UNL     1       5.680  -6.104  24.703  0.00  0.00    +0.214 C 
ATOM     30  C   UNL     1       4.984  -6.775  23.512  0.00  0.00    +0.180 C 
ATOM     31  C   UNL     1       4.577  -5.739  22.453  0.00  0.00    +0.174 C 
BRANCH  29  32
ATOM     32  O   UNL     1       4.724  -5.285  25.406  0.00  0.00    -0.383 OA
ATOM     33  H   UNL     1       4.341  -4.699  24.725  0.00  0.00    +0.210 HD
ENDBRANCH  29  32
BRANCH  30  34
ATOM     34  O   UNL     1       3.815  -7.465  23.982  0.00  0.00    -0.386 OA
ATOM     35  H   UNL     1       3.100  -6.794  23.976  0.00  0.00    +0.210 HD
ENDBRANCH  30  34
BRANCH  31  36
ATOM     36  O   UNL     1       3.516  -4.933  23.003  0.00  0.00    -0.387 OA
ATOM     37  H   UNL     1       3.767  -3.999  22.823  0.00  0.00    +0.210 HD
ENDBRANCH  31  36
ENDBRANCH  24  28
ENDBRANCH   1  24
BRANCH   7  38
ATOM     38  O   UNL     1       8.813   3.047  24.337  0.00  0.00    -0.461 OA
BRANCH  38  39
ATOM     39  C   UNL     1       7.645   3.814  24.659  0.00  0.00    +0.339 C 
ATOM     40  O   UNL     1       6.631   3.679  23.655  0.00  0.00    -0.337 OA
ATOM     41  C   UNL     1       7.018   4.221  22.388  0.00  0.00    +0.198 C 
ATOM     42  C   UNL     1       7.231   5.728  22.507  0.00  0.00    +0.171 C 
ATOM     43  C   UNL     1       8.327   6.017  23.540  0.00  0.00    +0.180 C 
ATOM     44  C   UNL     1       8.022   5.307  24.863  0.00  0.00    +0.214 C 
BRANCH  42  45
ATOM     45  O   UNL     1       7.570   6.293  21.245  0.00  0.00    -0.387 OA
ATOM     46  H   UNL     1       7.887   7.201  21.411  0.00  0.00    +0.210 HD
ENDBRANCH  42  45
BRANCH  43  47
ATOM     47  O   UNL     1       9.616   5.623  23.028  0.00  0.00    -0.386 OA
ATOM     48  H   UNL     1      10.133   6.426  22.821  0.00  0.00    +0.210 HD
ENDBRANCH  43  47
BRANCH  44  49
ATOM     49  O   UNL     1       9.115   5.465  25.775  0.00  0.00    -0.383 OA
ATOM     50  H   UNL     1       9.203   6.425  25.940  0.00  0.00    +0.210 HD
ENDBRANCH  44  49
ENDBRANCH  38  39
ENDBRANCH   7  38
TORSDOF 14
ENDMDL
MODEL 6
REMARK VINA RESULT:      -7.2      2.625      5.872
REMARK  Name = 
REMARK  15 active torsions:
REMARK  status: ('A' for Active; 'I' for Inactive)
REMARK    1  A    between atoms: C_1  and  C_2
REMARK    2  A    between atoms: C_3  and  O_47
REMARK    3  A    between atoms: C_5  and  O_46
REMARK    4  A    between atoms: C_6  and  O_45
REMARK    5  A    between atoms: C_8  and  O_11
REMARK    6  A    between atoms: O_11  and  C_12
REMARK    7  A    between atoms: C_13  and  C_37
REMARK    8  A    between atoms: C_17  and  O_24
REMARK    9  A    between atoms: C_19  and  O_23
REMARK   10  A    between atoms: O_24  and  C_25
REMARK   11  A    between atoms: C_27  and  O_36
REMARK   12  A    between atoms: C_28  and  O_35
REMARK   13  A    between atoms: C_30  and  O_34
REMARK   14  A    between atoms: C_39  and  O_44
REMARK   15  A    between atoms: C_40  and  O_43
REMARK                            x       y       z     vdW  Elec       q    Type
REMARK                         _______ _______ _______ _____ _____    ______ ____
ROOT
ATOM      1  C   UNL     1       6.903  -2.333  25.843  0.00  0.00    +0.214 A 
ATOM      2  C   UNL     1       6.906  -1.072  26.647  0.00  0.00    +0.238 A 
ATOM      3  O   UNL     1       6.726  -1.061  27.857  0.00  0.00    -0.283 OA
ATOM      4  C   UNL     1       6.961   0.205  25.919  0.00  0.00    +0.109 A 
ATOM      5  C   UNL     1       6.660   0.185  24.564  0.00  0.00    +0.147 A 
ATOM      6  C   UNL     1       6.542   1.391  23.855  0.00  0.00    +0.093 A 
ATOM      7  C   UNL     1       6.731   2.618  24.508  0.00  0.00    +0.131 A 
ATOM      8  C   UNL     1       7.049   2.629  25.866  0.00  0.00    +0.092 A 
ATOM      9  O   UNL     1       6.436  -0.982  23.873  0.00  0.00    -0.451 OA
ATOM     10  C   UNL     1       7.186   1.431  26.563  0.00  0.00    +0.135 A 
ATOM     11  C   UNL     1       6.629  -2.194  24.528  0.00  0.00    +0.181 A 
ENDROOT
BRANCH  11  12
ATOM     12  C   UNL     1       6.407  -3.365  23.649  0.00  0.00    +0.025 A 
ATOM     13  C   UNL     1       7.465  -3.969  22.949  0.00  0.00    +0.015 A 
ATOM     14  C   UNL     1       7.238  -5.092  22.136  0.00  0.00    +0.050 A 
ATOM     15  C   UNL     1       5.956  -5.607  22.032  0.00  0.00    +0.158 A 
ATOM     16  C   UNL     1       4.897  -5.014  22.712  0.00  0.00    +0.159 A 
ATOM     17  C   UNL     1       5.112  -3.899  23.521  0.00  0.00    +0.060 A 
BRANCH  15  18
ATOM     18  O   UNL     1       5.734  -6.713  21.252  0.00  0.00    -0.503 OA
ATOM     19  H   UNL     1       6.626  -7.005  20.984  0.00  0.00    +0.292 HD
ENDBRANCH  15  18
BRANCH  16  20
ATOM     20  O   UNL     1       3.658  -5.576  22.559  0.00  0.00    -0.503 OA
ATOM     21  H   UNL     1       3.104  -5.301  23.308  0.00  0.00    +0.292 HD
ENDBRANCH  16  20
ENDBRANCH  11  12
BRANCH  10  22
ATOM     22  O   UNL     1       7.562   1.475  27.876  0.00  0.00    -0.506 OA
ATOM     23  H   UNL     1       8.508   1.675  27.954  0.00  0.00    +0.292 HD
ENDBRANCH  10  22
BRANCH   1  24
ATOM     24  O   UNL     1       7.059  -3.591  26.413  0.00  0.00    -0.453 OA
BRANCH  24  28
ATOM     25  C   UNL     1       4.165  -4.011  29.618  0.00  0.00    +0.041 C 
ATOM     26  C   UNL     1       5.191  -5.075  29.227  0.00  0.00    +0.150 C 
ATOM     27  O   UNL     1       6.278  -4.543  28.451  0.00  0.00    -0.334 OA
ATOM     28  C   UNL     1       5.938  -4.157  27.112  0.00  0.00    +0.339 C 
ATOM     29  C   UNL     1       5.417  -5.371  26.318  0.00  0.00    +0.214 C 
ATOM     30  C   UNL     1       4.204  -5.952  27.056  0.00  0.00    +0.180 C 
ATOM     31  C   UNL     1       4.546  -6.275  28.518  0.00  0.00    +0.174 C 
BRANCH  29  32
ATOM     32  O   UNL     1       6.425  -6.395  26.194  0.00  0.00    -0.383 OA
ATOM     33  H   UNL     1       7.272  -5.914  26.138  0.00  0.00    +0.210 HD
ENDBRANCH  29  32
BRANCH  30  34
ATOM     34  O   UNL     1       3.780  -7.150  26.386  0.00  0.00    -0.386 OA
ATOM     35  H   UNL     1       3.478  -7.751  27.100  0.00  0.00    +0.210 HD
ENDBRANCH  30  34
BRANCH  31  36
ATOM     36  O   UNL     1       5.460  -7.390  28.525  0.00  0.00    -0.387 OA
ATOM     37  H   UNL     1       6.260  -7.085  28.039  0.00  0.00    +0.210 HD
ENDBRANCH  31  36
ENDBRANCH  24  28
ENDBRANCH   1  24
BRANCH   7  38
ATOM     38  O   UNL     1       6.645   3.870  23.950  0.00  0.00    -0.461 OA
BRANCH  38  39
ATOM     39  C   UNL     1       7.482   4.125  22.813  0.00  0.00    +0.339 C 
ATOM     40  O   UNL     1       8.863   3.881  23.109  0.00  0.00    -0.337 OA
ATOM     41  C   UNL     1       9.394   4.776  24.091  0.00  0.00    +0.198 C 
ATOM     42  C   UNL     1       9.370   6.209  23.562  0.00  0.00    +0.171 C 
ATOM     43  C   UNL     1       7.928   6.614  23.230  0.00  0.00    +0.180 C 
ATOM     44  C   UNL     1       7.275   5.579  22.309  0.00  0.00    +0.214 C 
BRANCH  42  45
ATOM     45  O   UNL     1       9.939   7.108  24.507  0.00  0.00    -0.387 OA
ATOM     46  H   UNL     1       9.561   6.887  25.380  0.00  0.00    +0.210 HD
ENDBRANCH  42  45
BRANCH  43  47
ATOM     47  O   UNL     1       7.163   6.783  24.441  0.00  0.00    -0.386 OA
ATOM     48  H   UNL     1       7.765   6.713  25.208  0.00  0.00    +0.210 HD
ENDBRANCH  43  47
BRANCH  44  49
ATOM     49  O   UNL     1       5.890   5.889  22.118  0.00  0.00    -0.383 OA
ATOM     50  H   UNL     1       5.455   5.770  22.985  0.00  0.00    +0.210 HD
ENDBRANCH  44  49
ENDBRANCH  38  39
ENDBRANCH   7  38
TORSDOF 14
ENDMDL
MODEL 7
REMARK VINA RESULT:      -7.2      2.913      6.256
REMARK  Name = 
REMARK  15 active torsions:
REMARK  status: ('A' for Active; 'I' for Inactive)
REMARK    1  A    between atoms: C_1  and  C_2
REMARK    2  A    between atoms: C_3  and  O_47
REMARK    3  A    between atoms: C_5  and  O_46
REMARK    4  A    between atoms: C_6  and  O_45
REMARK    5  A    between atoms: C_8  and  O_11
REMARK    6  A    between atoms: O_11  and  C_12
REMARK    7  A    between atoms: C_13  and  C_37
REMARK    8  A    between atoms: C_17  and  O_24
REMARK    9  A    between atoms: C_19  and  O_23
REMARK   10  A    between atoms: O_24  and  C_25
REMARK   11  A    between atoms: C_27  and  O_36
REMARK   12  A    between atoms: C_28  and  O_35
REMARK   13  A    between atoms: C_30  and  O_34
REMARK   14  A    between atoms: C_39  and  O_44
REMARK   15  A    between atoms: C_40  and  O_43
REMARK                            x       y       z     vdW  Elec       q    Type
REMARK                         _______ _______ _______ _____ _____    ______ ____
ROOT
ATOM      1  C   UNL     1       6.962  -1.872  26.161  0.00  0.00    +0.214 A 
ATOM      2  C   UNL     1       6.929  -0.529  26.819  0.00  0.00    +0.238 A 
ATOM      3  O   UNL     1       6.598  -0.374  27.986  0.00  0.00    -0.283 OA
ATOM      4  C   UNL     1       7.142   0.654  25.972  0.00  0.00    +0.109 A 
ATOM      5  C   UNL     1       7.014   0.493  24.599  0.00  0.00    +0.147 A 
ATOM      6  C   UNL     1       7.050   1.615  23.756  0.00  0.00    +0.093 A 
ATOM      7  C   UNL     1       7.219   2.900  24.292  0.00  0.00    +0.131 A 
ATOM      8  C   UNL     1       7.362   3.052  25.672  0.00  0.00    +0.092 A 
ATOM      9  O   UNL     1       6.819  -0.735  24.013  0.00  0.00    -0.451 OA
ATOM     10  C   UNL     1       7.348   1.936  26.505  0.00  0.00    +0.135 A 
ATOM     11  C   UNL     1       6.864  -1.872  24.814  0.00  0.00    +0.181 A 
ENDROOT
BRANCH  11  12
ATOM     12  C   UNL     1       6.694  -3.126  24.044  0.00  0.00    +0.025 A 
ATOM     13  C   UNL     1       7.790  -3.945  23.725  0.00  0.00    +0.015 A 
ATOM     14  C   UNL     1       7.606  -5.142  23.012  0.00  0.00    +0.050 A 
ATOM     15  C   UNL     1       6.328  -5.513  22.627  0.00  0.00    +0.158 A 
ATOM     16  C   UNL     1       5.234  -4.707  22.928  0.00  0.00    +0.159 A 
ATOM     17  C   UNL     1       5.407  -3.517  23.636  0.00  0.00    +0.060 A 
BRANCH  15  18
ATOM     18  O   UNL     1       6.143  -6.688  21.943  0.00  0.00    -0.503 OA
ATOM     19  H   UNL     1       6.564  -7.366  22.507  0.00  0.00    +0.292 HD
ENDBRANCH  15  18
BRANCH  16  20
ATOM     20  O   UNL     1       4.003  -5.137  22.512  0.00  0.00    -0.503 OA
ATOM     21  H   UNL     1       3.636  -5.719  23.199  0.00  0.00    +0.292 HD
ENDBRANCH  16  20
ENDBRANCH  11  12
BRANCH  10  22
ATOM     22  O   UNL     1       7.556   2.113  27.843  0.00  0.00    -0.506 OA
ATOM     23  H   UNL     1       6.712   2.158  28.318  0.00  0.00    +0.292 HD
ENDBRANCH  10  22
BRANCH   1  24
ATOM     24  O   UNL     1       6.979  -3.062  26.878  0.00  0.00    -0.453 OA
BRANCH  24  28
ATOM     25  C   UNL     1       2.679  -3.557  27.185  0.00  0.00    +0.041 C 
ATOM     26  C   UNL     1       3.676  -3.908  28.289  0.00  0.00    +0.150 C 
ATOM     27  O   UNL     1       4.953  -3.269  28.112  0.00  0.00    -0.334 OA
ATOM     28  C   UNL     1       5.741  -3.777  27.025  0.00  0.00    +0.339 C 
ATOM     29  C   UNL     1       6.050  -5.272  27.238  0.00  0.00    +0.214 C 
ATOM     30  C   UNL     1       4.723  -6.031  27.366  0.00  0.00    +0.180 C 
ATOM     31  C   UNL     1       3.841  -5.424  28.467  0.00  0.00    +0.174 C 
BRANCH  29  32
ATOM     32  O   UNL     1       6.831  -5.487  28.431  0.00  0.00    -0.383 OA
ATOM     33  H   UNL     1       6.295  -5.115  29.158  0.00  0.00    +0.210 HD
ENDBRANCH  29  32
BRANCH  30  34
ATOM     34  O   UNL     1       5.000  -7.406  27.677  0.00  0.00    -0.386 OA
ATOM     35  H   UNL     1       5.866  -7.596  27.257  0.00  0.00    +0.210 HD
ENDBRANCH  30  34
BRANCH  31  36
ATOM     36  O   UNL     1       4.463  -5.697  29.738  0.00  0.00    -0.387 OA
ATOM     37  H   UNL     1       3.937  -6.423  30.145  0.00  0.00    +0.210 HD
ENDBRANCH  31  36
ENDBRANCH  24  28
ENDBRANCH   1  24
BRANCH   7  38
ATOM     38  O   UNL     1       7.270   4.083  23.598  0.00  0.00    -0.461 OA
BRANCH  38  39
ATOM     39  C   UNL     1       6.770   5.245  24.273  0.00  0.00    +0.339 C 
ATOM     40  O   UNL     1       5.343   5.337  24.180  0.00  0.00    -0.337 OA
ATOM     41  C   UNL     1       4.878   5.533  22.841  0.00  0.00    +0.198 C 
ATOM     42  C   UNL     1       5.377   6.873  22.304  0.00  0.00    +0.171 C 
ATOM     43  C   UNL     1       6.910   6.899  22.320  0.00  0.00    +0.180 C 
ATOM     44  C   UNL     1       7.442   6.526  23.707  0.00  0.00    +0.214 C 
BRANCH  42  45
ATOM     45  O   UNL     1       4.884   7.107  20.989  0.00  0.00    -0.387 OA
ATOM     46  H   UNL     1       5.175   8.002  20.727  0.00  0.00    +0.210 HD
ENDBRANCH  42  45
BRANCH  43  47
ATOM     47  O   UNL     1       7.437   6.014  21.310  0.00  0.00    -0.386 OA
ATOM     48  H   UNL     1       6.693   5.631  20.805  0.00  0.00    +0.210 HD
ENDBRANCH  43  47
BRANCH  44  49
ATOM     49  O   UNL     1       8.870   6.415  23.677  0.00  0.00    -0.383 OA
ATOM     50  H   UNL     1       9.162   6.318  24.606  0.00  0.00    +0.210 HD
ENDBRANCH  44  49
ENDBRANCH  38  39
ENDBRANCH   7  38
TORSDOF 14
ENDMDL
MODEL 8
REMARK VINA RESULT:      -7.0      2.734      4.674
REMARK  Name = 
REMARK  15 active torsions:
REMARK  status: ('A' for Active; 'I' for Inactive)
REMARK    1  A    between atoms: C_1  and  C_2
REMARK    2  A    between atoms: C_3  and  O_47
REMARK    3  A    between atoms: C_5  and  O_46
REMARK    4  A    between atoms: C_6  and  O_45
REMARK    5  A    between atoms: C_8  and  O_11
REMARK    6  A    between atoms: O_11  and  C_12
REMARK    7  A    between atoms: C_13  and  C_37
REMARK    8  A    between atoms: C_17  and  O_24
REMARK    9  A    between atoms: C_19  and  O_23
REMARK   10  A    between atoms: O_24  and  C_25
REMARK   11  A    between atoms: C_27  and  O_36
REMARK   12  A    between atoms: C_28  and  O_35
REMARK   13  A    between atoms: C_30  and  O_34
REMARK   14  A    between atoms: C_39  and  O_44
REMARK   15  A    between atoms: C_40  and  O_43
REMARK                            x       y       z     vdW  Elec       q    Type
REMARK                         _______ _______ _______ _____ _____    ______ ____
ROOT
ATOM      1  C   UNL     1       7.226  -2.503  25.510  0.00  0.00    +0.214 A 
ATOM      2  C   UNL     1       8.481  -1.911  24.955  0.00  0.00    +0.238 A 
ATOM      3  O   UNL     1       9.494  -2.571  24.764  0.00  0.00    -0.283 OA
ATOM      4  C   UNL     1       8.539  -0.450  24.797  0.00  0.00    +0.109 A 
ATOM      5  C   UNL     1       7.594   0.307  25.477  0.00  0.00    +0.147 A 
ATOM      6  C   UNL     1       7.697   1.707  25.490  0.00  0.00    +0.093 A 
ATOM      7  C   UNL     1       8.747   2.347  24.817  0.00  0.00    +0.131 A 
ATOM      8  C   UNL     1       9.684   1.581  24.124  0.00  0.00    +0.092 A 
ATOM      9  O   UNL     1       6.557  -0.260  26.179  0.00  0.00    -0.451 OA
ATOM     10  C   UNL     1       9.569   0.193  24.094  0.00  0.00    +0.135 A 
ATOM     11  C   UNL     1       6.381  -1.639  26.112  0.00  0.00    +0.181 A 
ENDROOT
BRANCH  11  12
ATOM     12  C   UNL     1       5.196  -2.105  26.869  0.00  0.00    +0.025 A 
ATOM     13  C   UNL     1       3.890  -1.815  26.438  0.00  0.00    +0.015 A 
ATOM     14  C   UNL     1       2.778  -2.284  27.157  0.00  0.00    +0.050 A 
ATOM     15  C   UNL     1       2.978  -3.042  28.299  0.00  0.00    +0.158 A 
ATOM     16  C   UNL     1       4.266  -3.328  28.744  0.00  0.00    +0.159 A 
ATOM     17  C   UNL     1       5.376  -2.868  28.036  0.00  0.00    +0.060 A 
BRANCH  15  18
ATOM     18  O   UNL     1       1.894  -3.514  28.996  0.00  0.00    -0.503 OA
ATOM     19  H   UNL     1       2.096  -4.457  29.149  0.00  0.00    +0.292 HD
ENDBRANCH  15  18
BRANCH  16  20
ATOM     20  O   UNL     1       4.385  -4.080  29.882  0.00  0.00    -0.503 OA
ATOM     21  H   UNL     1       3.816  -4.862  29.791  0.00  0.00    +0.292 HD
ENDBRANCH  16  20
ENDBRANCH  11  12
BRANCH  10  22
ATOM     22  O   UNL     1      10.464  -0.524  23.351  0.00  0.00    -0.506 OA
ATOM     23  H   UNL     1      10.527  -1.435  23.677  0.00  0.00    +0.292 HD
ENDBRANCH  10  22
BRANCH   1  24
ATOM     24  O   UNL     1       6.975  -3.870  25.515  0.00  0.00    -0.453 OA
BRANCH  24  28
ATOM     25  C   UNL     1       3.408  -5.999  24.261  0.00  0.00    +0.041 C 
ATOM     26  C   UNL     1       4.832  -6.369  23.849  0.00  0.00    +0.150 C 
ATOM     27  O   UNL     1       5.830  -5.798  24.712  0.00  0.00    -0.334 OA
ATOM     28  C   UNL     1       5.998  -4.378  24.590  0.00  0.00    +0.339 C 
ATOM     29  C   UNL     1       6.429  -4.009  23.157  0.00  0.00    +0.214 C 
ATOM     30  C   UNL     1       5.368  -4.530  22.180  0.00  0.00    +0.180 C 
ATOM     31  C   UNL     1       5.121  -6.033  22.378  0.00  0.00    +0.174 C 
BRANCH  29  32
ATOM     32  O   UNL     1       7.704  -4.592  22.820  0.00  0.00    -0.383 OA
ATOM     33  H   UNL     1       8.351  -4.143  23.398  0.00  0.00    +0.210 HD
ENDBRANCH  29  32
BRANCH  30  34
ATOM     34  O   UNL     1       5.814  -4.291  20.835  0.00  0.00    -0.386 OA
ATOM     35  H   UNL     1       6.752  -4.018  20.919  0.00  0.00    +0.210 HD
ENDBRANCH  30  34
BRANCH  31  36
ATOM     36  O   UNL     1       6.299  -6.740  21.942  0.00  0.00    -0.387 OA
ATOM     37  H   UNL     1       6.469  -7.427  22.626  0.00  0.00    +0.210 HD
ENDBRANCH  31  36
ENDBRANCH  24  28
ENDBRANCH   1  24
BRANCH   7  38
ATOM     38  O   UNL     1       8.978   3.699  24.746  0.00  0.00    -0.461 OA
BRANCH  38  39
ATOM     39  C   UNL     1       7.857   4.556  25.006  0.00  0.00    +0.339 C 
ATOM     40  O   UNL     1       6.763   4.277  24.124  0.00  0.00    -0.337 OA
ATOM     41  C   UNL     1       7.059   4.563  22.753  0.00  0.00    +0.198 C 
ATOM     42  C   UNL     1       7.316   6.058  22.574  0.00  0.00    +0.171 C 
ATOM     43  C   UNL     1       8.498   6.489  23.451  0.00  0.00    +0.180 C 
ATOM     44  C   UNL     1       8.284   6.045  24.902  0.00  0.00    +0.214 C 
BRANCH  42  45
ATOM     45  O   UNL     1       7.565   6.369  21.207  0.00  0.00    -0.387 OA
ATOM     46  H   UNL     1       8.231   7.082  21.190  0.00  0.00    +0.210 HD
ENDBRANCH  42  45
BRANCH  43  47
ATOM     47  O   UNL     1       9.732   5.960  22.926  0.00  0.00    -0.386 OA
ATOM     48  H   UNL     1       9.536   5.155  22.407  0.00  0.00    +0.210 HD
ENDBRANCH  43  47
BRANCH  44  49
ATOM     49  O   UNL     1       9.450   6.327  25.683  0.00  0.00    -0.383 OA
ATOM     50  H   UNL     1      10.219   6.218  25.088  0.00  0.00    +0.210 HD
ENDBRANCH  44  49
ENDBRANCH  38  39
ENDBRANCH   7  38
TORSDOF 14
ENDMDL
MODEL 9
REMARK VINA RESULT:      -6.9      3.302     10.228
REMARK  Name = 
REMARK  15 active torsions:
REMARK  status: ('A' for Active; 'I' for Inactive)
REMARK    1  A    between atoms: C_1  and  C_2
REMARK    2  A    between atoms: C_3  and  O_47
REMARK    3  A    between atoms: C_5  and  O_46
REMARK    4  A    between atoms: C_6  and  O_45
REMARK    5  A    between atoms: C_8  and  O_11
REMARK    6  A    between atoms: O_11  and  C_12
REMARK    7  A    between atoms: C_13  and  C_37
REMARK    8  A    between atoms: C_17  and  O_24
REMARK    9  A    between atoms: C_19  and  O_23
REMARK   10  A    between atoms: O_24  and  C_25
REMARK   11  A    between atoms: C_27  and  O_36
REMARK   12  A    between atoms: C_28  and  O_35
REMARK   13  A    between atoms: C_30  and  O_34
REMARK   14  A    between atoms: C_39  and  O_44
REMARK   15  A    between atoms: C_40  and  O_43
REMARK                            x       y       z     vdW  Elec       q    Type
REMARK                         _______ _______ _______ _____ _____    ______ ____
ROOT
ATOM      1  C   UNL     1       5.758   0.954  25.749  0.00  0.00    +0.214 A 
ATOM      2  C   UNL     1       4.859   0.226  26.696  0.00  0.00    +0.238 A 
ATOM      3  O   UNL     1       4.584   0.656  27.808  0.00  0.00    -0.283 OA
ATOM      4  C   UNL     1       4.432  -1.133  26.329  0.00  0.00    +0.109 A 
ATOM      5  C   UNL     1       5.144  -1.781  25.329  0.00  0.00    +0.147 A 
ATOM      6  C   UNL     1       4.884  -3.132  25.048  0.00  0.00    +0.093 A 
ATOM      7  C   UNL     1       3.905  -3.830  25.769  0.00  0.00    +0.131 A 
ATOM      8  C   UNL     1       3.182  -3.167  26.761  0.00  0.00    +0.092 A 
ATOM      9  O   UNL     1       6.136  -1.161  24.606  0.00  0.00    -0.451 OA
ATOM     10  C   UNL     1       3.427  -1.821  27.024  0.00  0.00    +0.135 A 
ATOM     11  C   UNL     1       6.356   0.198  24.804  0.00  0.00    +0.181 A 
ENDROOT
BRANCH  11  12
ATOM     12  C   UNL     1       7.413   0.744  23.921  0.00  0.00    +0.025 A 
ATOM     13  C   UNL     1       7.153   1.064  22.578  0.00  0.00    +0.015 A 
ATOM     14  C   UNL     1       8.162   1.601  21.761  0.00  0.00    +0.050 A 
ATOM     15  C   UNL     1       9.422   1.819  22.293  0.00  0.00    +0.158 A 
ATOM     16  C   UNL     1       9.697   1.497  23.619  0.00  0.00    +0.159 A 
ATOM     17  C   UNL     1       8.702   0.964  24.438  0.00  0.00    +0.060 A 
BRANCH  15  18
ATOM     18  O   UNL     1      10.406   2.357  21.503  0.00  0.00    -0.503 OA
ATOM     19  H   UNL     1      11.233   2.190  21.995  0.00  0.00    +0.292 HD
ENDBRANCH  15  18
BRANCH  16  20
ATOM     20  O   UNL     1      10.966   1.737  24.074  0.00  0.00    -0.503 OA
ATOM     21  H   UNL     1      11.594   1.363  23.434  0.00  0.00    +0.292 HD
ENDBRANCH  16  20
ENDBRANCH  11  12
BRANCH  10  22
ATOM     22  O   UNL     1       2.657  -1.185  27.956  0.00  0.00    -0.506 OA
ATOM     23  H   UNL     1       2.920  -1.445  28.853  0.00  0.00    +0.292 HD
ENDBRANCH  10  22
BRANCH   1  24
ATOM     24  O   UNL     1       6.060   2.304  25.884  0.00  0.00    -0.453 OA
BRANCH  24  28
ATOM     25  C   UNL     1       2.229   3.810  24.514  0.00  0.00    +0.041 C 
ATOM     26  C   UNL     1       3.453   3.608  23.622  0.00  0.00    +0.150 C 
ATOM     27  O   UNL     1       4.427   2.723  24.203  0.00  0.00    -0.334 OA
ATOM     28  C   UNL     1       5.141   3.258  25.326  0.00  0.00    +0.339 C 
ATOM     29  C   UNL     1       5.922   4.522  24.915  0.00  0.00    +0.214 C 
ATOM     30  C   UNL     1       4.930   5.545  24.348  0.00  0.00    +0.180 C 
ATOM     31  C   UNL     1       4.099   4.938  23.207  0.00  0.00    +0.174 C 
BRANCH  29  32
ATOM     32  O   UNL     1       6.917   4.228  23.914  0.00  0.00    -0.383 OA
ATOM     33  H   UNL     1       7.766   4.213  24.395  0.00  0.00    +0.210 HD
ENDBRANCH  29  32
BRANCH  30  34
ATOM     34  O   UNL     1       5.660   6.681  23.857  0.00  0.00    -0.386 OA
ATOM     35  H   UNL     1       6.414   6.306  23.356  0.00  0.00    +0.210 HD
ENDBRANCH  30  34
BRANCH  31  36
ATOM     36  O   UNL     1       4.976   4.720  22.084  0.00  0.00    -0.387 OA
ATOM     37  H   UNL     1       4.914   3.760  21.876  0.00  0.00    +0.210 HD
ENDBRANCH  31  36
ENDBRANCH  24  28
ENDBRANCH   1  24
BRANCH   7  38
ATOM     38  O   UNL     1       3.545  -5.146  25.609  0.00  0.00    -0.461 OA
BRANCH  38  39
ATOM     39  C   UNL     1       2.199  -5.395  25.183  0.00  0.00    +0.339 C 
ATOM     40  O   UNL     1       1.468  -6.149  26.157  0.00  0.00    -0.337 OA
ATOM     41  C   UNL     1       1.982  -7.472  26.347  0.00  0.00    +0.198 C 
ATOM     42  C   UNL     1       1.837  -8.280  25.059  0.00  0.00    +0.171 C 
ATOM     43  C   UNL     1       2.607  -7.591  23.926  0.00  0.00    +0.180 C 
ATOM     44  C   UNL     1       2.195  -6.120  23.809  0.00  0.00    +0.214 C 
BRANCH  42  45
ATOM     45  O   UNL     1       2.300  -9.613  25.243  0.00  0.00    -0.387 OA
ATOM     46  H   UNL     1       1.717 -10.196  24.720  0.00  0.00    +0.210 HD
ENDBRANCH  42  45
BRANCH  43  47
ATOM     47  O   UNL     1       4.028  -7.714  24.138  0.00  0.00    -0.386 OA
ATOM     48  H   UNL     1       4.420  -8.198  23.385  0.00  0.00    +0.210 HD
ENDBRANCH  43  47
BRANCH  44  49
ATOM     49  O   UNL     1       3.016  -5.450  22.846  0.00  0.00    -0.383 OA
ATOM     50  H   UNL     1       2.423  -5.169  22.121  0.00  0.00    +0.210 HD
ENDBRANCH  44  49
ENDBRANCH  38  39
ENDBRANCH   7  38
TORSDOF 14
ENDMDL
