MODEL 1
REMARK VINA RESULT:      -6.1      0.000      0.000
REMARK  Name = 
REMARK  32 active torsions:
REMARK  status: ('A' for Active; 'I' for Inactive)
REMARK    1  A    between atoms: C_1  and  C_2
REMARK    2  A    between atoms: C_3  and  O_87
REMARK    3  A    between atoms: C_5  and  O_86
REMARK    4  A    between atoms: C_6  and  O_85
REMARK    5  A    between atoms: C_8  and  O_11
REMARK    6  A    between atoms: O_11  and  C_12
REMARK    7  A    between atoms: C_13  and  O_84
REMARK    8  A    between atoms: C_15  and  O_83
REMARK    9  A    between atoms: C_17  and  C_43
REMARK   10  A    between atoms: C_19  and  O_21
REMARK   11  A    between atoms: O_21  and  C_22
REMARK   12  A    between atoms: C_23  and  C_35
REMARK   13  A    between atoms: C_27  and  O_34
REMARK   14  A    between atoms: C_29  and  O_33
REMARK   15  A    between atoms: C_37  and  O_42
REMARK   16  A    between atoms: C_38  and  O_41
REMARK   17  A    between atoms: C_43  and  O_44
REMARK   18  A    between atoms: O_44  and  C_45
REMARK   19  A    between atoms: C_47  and  O_82
REMARK   20  A    between atoms: C_49  and  O_67
REMARK   21  A    between atoms: C_50  and  O_55
REMARK   22  A    between atoms: C_52  and  C_54
REMARK   23  A    between atoms: O_55  and  C_56
REMARK   24  A    between atoms: C_56  and  C_58
REMARK   25  A    between atoms: C_59  and  C_60
REMARK   26  A    between atoms: C_63  and  O_66
REMARK   27  A    between atoms: O_67  and  C_68
REMARK   28  A    between atoms: C_70  and  O_81
REMARK   29  A    between atoms: C_71  and  O_80
REMARK   30  A    between atoms: C_73  and  O_79
REMARK   31  A    between atoms: C_75  and  C_77
REMARK   32  A    between atoms: C_77  and  O_78
REMARK                            x       y       z     vdW  Elec       q    Type
REMARK                         _______ _______ _______ _____ _____    ______ ____
ROOT
ATOM      1  C   UNL     1       4.872  -5.327  23.391  0.00  0.00    +0.221 C 
ATOM      2  C   UNL     1       4.966  -3.911  24.045  0.00  0.00    +0.340 C 
ATOM      3  O   UNL     1       5.318  -2.950  23.019  0.00  0.00    -0.331 OA
ATOM      4  C   UNL     1       6.609  -3.233  22.392  0.00  0.00    +0.179 C 
ATOM      5  C   UNL     1       6.627  -4.606  21.711  0.00  0.00    +0.177 C 
ATOM      6  C   UNL     1       6.254  -5.662  22.763  0.00  0.00    +0.180 C 
ENDROOT
BRANCH   5   7
ATOM      7  O   UNL     1       5.741  -4.599  20.587  0.00  0.00    -0.386 OA
ATOM      8  H   UNL     1       5.408  -3.685  20.487  0.00  0.00    +0.210 HD
ENDBRANCH   5   7
BRANCH   6   9
ATOM      9  O   UNL     1       6.366  -6.981  22.216  0.00  0.00    -0.386 OA
ATOM     10  H   UNL     1       7.041  -7.455  22.728  0.00  0.00    +0.210 HD
ENDBRANCH   6   9
BRANCH   4  11
ATOM     11  C   UNL     1       7.787  -3.154  23.369  0.00  0.00    +0.197 C 
BRANCH  11  12
ATOM     12  O   UNL     1       8.087  -1.845  23.827  0.00  0.00    -0.346 OA
BRANCH  12  13
ATOM     13  C   UNL     1       8.479  -0.878  22.854  0.00  0.00    +0.282 C 
ATOM     14  O   UNL     1       9.712  -0.283  23.286  0.00  0.00    -0.342 OA
ATOM     15  C   UNL     1       9.565   0.358  24.566  0.00  0.00    +0.162 C 
ATOM     16  C   UNL     1      10.943   0.856  25.002  0.00  0.00    +0.042 C 
ATOM     17  C   UNL     1       8.479   1.467  24.493  0.00  0.00    +0.236 C 
ATOM     18  C   UNL     1       7.110   0.886  23.992  0.00  0.00    +0.198 C 
ATOM     19  C   UNL     1       7.459   0.261  22.606  0.00  0.00    +0.203 C 
BRANCH  19  20
ATOM     20  O   UNL     1       6.339  -0.203  21.851  0.00  0.00    -0.384 OA
ATOM     21  H   UNL     1       5.595   0.407  21.992  0.00  0.00    +0.210 HD
ENDBRANCH  19  20
BRANCH  18  22
ATOM     22  O   UNL     1       6.088   1.894  23.956  0.00  0.00    -0.339 OA
BRANCH  22  23
ATOM     23  C   UNL     1       5.741   2.497  22.687  0.00  0.00    +0.282 C 
ATOM     24  O   UNL     1       6.812   3.414  22.358  0.00  0.00    -0.341 OA
ATOM     25  C   UNL     1       6.902   4.465  23.334  0.00  0.00    +0.178 C 
ATOM     26  C   UNL     1       5.664   5.390  23.302  0.00  0.00    +0.177 C 
ATOM     27  C   UNL     1       4.369   4.567  23.382  0.00  0.00    +0.179 C 
ATOM     28  C   UNL     1       4.413   3.307  22.513  0.00  0.00    +0.201 C 
BRANCH  26  29
ATOM     29  O   UNL     1       5.608   6.183  22.121  0.00  0.00    -0.386 OA
ATOM     30  H   UNL     1       4.697   6.525  22.024  0.00  0.00    +0.210 HD
ENDBRANCH  26  29
BRANCH  27  31
ATOM     31  O   UNL     1       4.029   4.135  24.713  0.00  0.00    -0.386 OA
ATOM     32  H   UNL     1       4.012   4.899  25.307  0.00  0.00    +0.210 HD
ENDBRANCH  27  31
BRANCH  28  33
ATOM     33  O   UNL     1       3.198   2.601  22.769  0.00  0.00    -0.384 OA
ATOM     34  H   UNL     1       2.908   2.279  21.887  0.00  0.00    +0.210 HD
ENDBRANCH  28  33
BRANCH  25  35
ATOM     35  C   UNL     1       8.273   5.136  23.180  0.00  0.00    +0.190 C 
BRANCH  35  36
ATOM     36  O   UNL     1       8.277   6.381  22.500  0.00  0.00    -0.392 OA
ATOM     37  H   UNL     1       8.690   6.224  21.632  0.00  0.00    +0.210 HD
ENDBRANCH  35  36
ENDBRANCH  25  35
ENDBRANCH  22  23
ENDBRANCH  18  22
BRANCH  17  38
ATOM     38  O   UNL     1       8.384   2.277  25.673  0.00  0.00    -0.453 OA
BRANCH  38  39
ATOM     39  C   UNL     1       7.754   1.859  26.787  0.00  0.00    +0.332 C 
ATOM     40  O   UNL     1       7.598   0.712  27.160  0.00  0.00    -0.246 OA
BRANCH  39  41
ATOM     41  C   UNL     1       7.257   3.036  27.535  0.00  0.00    +0.092 C 
ATOM     42  C   UNL     1       6.239   3.775  27.066  0.00  0.00    +0.015 C 
BRANCH  42  43
ATOM     43  C   UNL     1       5.511   4.710  27.908  0.00  0.00    -0.025 A 
ATOM     44  C   UNL     1       5.165   4.267  29.190  0.00  0.00    +0.011 A 
ATOM     45  C   UNL     1       4.426   5.082  30.037  0.00  0.00    +0.046 A 
ATOM     46  C   UNL     1       4.043   6.343  29.600  0.00  0.00    +0.117 A 
ATOM     47  C   UNL     1       4.365   6.792  28.320  0.00  0.00    +0.046 A 
ATOM     48  C   UNL     1       5.106   5.970  27.467  0.00  0.00    +0.011 A 
BRANCH  46  49
ATOM     49  O   UNL     1       3.326   7.106  30.469  0.00  0.00    -0.507 OA
ATOM     50  H   UNL     1       2.801   7.750  29.961  0.00  0.00    +0.292 HD
ENDBRANCH  46  49
ENDBRANCH  42  43
ENDBRANCH  39  41
ENDBRANCH  38  39
ENDBRANCH  17  38
ENDBRANCH  12  13
ENDBRANCH  11  12
ENDBRANCH   4  11
BRANCH   2  51
ATOM     51  O   UNL     1       3.770  -3.573  24.824  0.00  0.00    -0.453 OA
BRANCH  51  52
ATOM     52  C   UNL     1       3.996  -2.788  25.979  0.00  0.00    +0.214 A 
ATOM     53  C   UNL     1       4.243  -1.286  25.877  0.00  0.00    +0.238 A 
ATOM     54  O   UNL     1       4.678  -0.747  24.855  0.00  0.00    -0.283 OA
ATOM     55  C   UNL     1       3.998  -0.457  27.035  0.00  0.00    +0.109 A 
ATOM     56  C   UNL     1       4.095  -1.084  28.256  0.00  0.00    +0.147 A 
ATOM     57  C   UNL     1       4.012  -0.341  29.436  0.00  0.00    +0.092 A 
ATOM     58  C   UNL     1       3.826   1.036  29.358  0.00  0.00    +0.124 A 
ATOM     59  C   UNL     1       3.688   1.673  28.128  0.00  0.00    +0.091 A 
ATOM     60  O   UNL     1       4.310  -2.427  28.355  0.00  0.00    -0.451 OA
ATOM     61  C   UNL     1       3.765   0.922  26.961  0.00  0.00    +0.135 A 
ATOM     62  C   UNL     1       4.022  -3.267  27.257  0.00  0.00    +0.181 A 
BRANCH  62  63
ATOM     63  C   UNL     1       3.816  -4.668  27.778  0.00  0.00    +0.025 A 
ATOM     64  C   UNL     1       2.538  -4.978  28.327  0.00  0.00    +0.015 A 
ATOM     65  C   UNL     1       2.262  -6.180  28.989  0.00  0.00    +0.050 A 
ATOM     66  C   UNL     1       3.255  -7.130  29.074  0.00  0.00    +0.158 A 
ATOM     67  C   UNL     1       4.503  -6.885  28.506  0.00  0.00    +0.159 A 
ATOM     68  C   UNL     1       4.802  -5.661  27.879  0.00  0.00    +0.060 A 
BRANCH  67  69
ATOM     69  O   UNL     1       5.421  -7.901  28.601  0.00  0.00    -0.503 OA
ATOM     70  H   UNL     1       5.062  -8.571  29.207  0.00  0.00    +0.292 HD
ENDBRANCH  67  69
BRANCH  66  71
ATOM     71  O   UNL     1       2.983  -8.309  29.708  0.00  0.00    -0.503 OA
ATOM     72  H   UNL     1       3.796  -8.518  30.208  0.00  0.00    +0.292 HD
ENDBRANCH  66  71
ENDBRANCH  62  63
BRANCH  61  73
ATOM     73  O   UNL     1       3.601   1.536  25.753  0.00  0.00    -0.506 OA
ATOM     74  H   UNL     1       2.657   1.642  25.550  0.00  0.00    +0.292 HD
ENDBRANCH  61  73
BRANCH  58  75
ATOM     75  O   UNL     1       3.767   1.820  30.471  0.00  0.00    -0.507 OA
ATOM     76  H   UNL     1       3.687   2.753  30.208  0.00  0.00    +0.292 HD
ENDBRANCH  58  75
ENDBRANCH  51  52
ENDBRANCH   2  51
BRANCH   1  77
ATOM     77  O   UNL     1       3.769  -5.434  22.454  0.00  0.00    -0.337 OA
BRANCH  77  81
ATOM     78  C   UNL     1       0.761  -8.236  21.565  0.00  0.00    +0.041 C 
ATOM     79  C   UNL     1       0.637  -7.314  22.787  0.00  0.00    +0.149 C 
ATOM     80  O   UNL     1       1.520  -6.171  22.716  0.00  0.00    -0.343 OA
ATOM     81  C   UNL     1       2.905  -6.545  22.768  0.00  0.00    +0.282 C 
ATOM     82  C   UNL     1       3.223  -7.238  24.125  0.00  0.00    +0.201 C 
ATOM     83  C   UNL     1       2.315  -8.450  24.311  0.00  0.00    +0.179 C 
ATOM     84  C   UNL     1       0.846  -8.070  24.112  0.00  0.00    +0.174 C 
BRANCH  82  85
ATOM     85  O   UNL     1       3.057  -6.321  25.225  0.00  0.00    -0.384 OA
ATOM     86  H   UNL     1       3.948  -5.963  25.403  0.00  0.00    +0.210 HD
ENDBRANCH  82  85
BRANCH  83  87
ATOM     87  O   UNL     1       2.520  -8.980  25.630  0.00  0.00    -0.386 OA
ATOM     88  H   UNL     1       1.945  -9.772  25.680  0.00  0.00    +0.210 HD
ENDBRANCH  83  87
BRANCH  84  89
ATOM     89  O   UNL     1       0.452  -7.237  25.216  0.00  0.00    -0.387 OA
ATOM     90  H   UNL     1      -0.380  -6.791  24.936  0.00  0.00    +0.210 HD
ENDBRANCH  84  89
ENDBRANCH  77  81
ENDBRANCH   1  77
TORSDOF 30
ENDMDL
MODEL 2
REMARK VINA RESULT:      -5.1      2.315      6.679
REMARK  Name = 
REMARK  32 active torsions:
REMARK  status: ('A' for Active; 'I' for Inactive)
REMARK    1  A    between atoms: C_1  and  C_2
REMARK    2  A    between atoms: C_3  and  O_87
REMARK    3  A    between atoms: C_5  and  O_86
REMARK    4  A    between atoms: C_6  and  O_85
REMARK    5  A    between atoms: C_8  and  O_11
REMARK    6  A    between atoms: O_11  and  C_12
REMARK    7  A    between atoms: C_13  and  O_84
REMARK    8  A    between atoms: C_15  and  O_83
REMARK    9  A    between atoms: C_17  and  C_43
REMARK   10  A    between atoms: C_19  and  O_21
REMARK   11  A    between atoms: O_21  and  C_22
REMARK   12  A    between atoms: C_23  and  C_35
REMARK   13  A    between atoms: C_27  and  O_34
REMARK   14  A    between atoms: C_29  and  O_33
REMARK   15  A    between atoms: C_37  and  O_42
REMARK   16  A    between atoms: C_38  and  O_41
REMARK   17  A    between atoms: C_43  and  O_44
REMARK   18  A    between atoms: O_44  and  C_45
REMARK   19  A    between atoms: C_47  and  O_82
REMARK   20  A    between atoms: C_49  and  O_67
REMARK   21  A    between atoms: C_50  and  O_55
REMARK   22  A    between atoms: C_52  and  C_54
REMARK   23  A    between atoms: O_55  and  C_56
REMARK   24  A    between atoms: C_56  and  C_58
REMARK   25  A    between atoms: C_59  and  C_60
REMARK   26  A    between atoms: C_63  and  O_66
REMARK   27  A    between atoms: O_67  and  C_68
REMARK   28  A    between atoms: C_70  and  O_81
REMARK   29  A    between atoms: C_71  and  O_80
REMARK   30  A    between atoms: C_73  and  O_79
REMARK   31  A    between atoms: C_75  and  C_77
REMARK   32  A    between atoms: C_77  and  O_78
REMARK                            x       y       z     vdW  Elec       q    Type
REMARK                         _______ _______ _______ _____ _____    ______ ____
ROOT
ATOM      1  C   UNL     1       4.621  -1.747  25.565  0.00  0.00    +0.221 C 
ATOM      2  C   UNL     1       5.379  -0.388  25.425  0.00  0.00    +0.340 C 
ATOM      3  O   UNL     1       6.655  -0.499  26.102  0.00  0.00    -0.331 OA
ATOM      4  C   UNL     1       6.519  -0.781  27.531  0.00  0.00    +0.179 C 
ATOM      5  C   UNL     1       5.787  -2.104  27.787  0.00  0.00    +0.177 C 
ATOM      6  C   UNL     1       4.425  -2.037  27.080  0.00  0.00    +0.180 C 
ENDROOT
BRANCH   5   7
ATOM      7  O   UNL     1       6.596  -3.197  27.338  0.00  0.00    -0.386 OA
ATOM      8  H   UNL     1       6.001  -3.964  27.213  0.00  0.00    +0.210 HD
ENDBRANCH   5   7
BRANCH   6   9
ATOM      9  O   UNL     1       3.643  -3.200  27.377  0.00  0.00    -0.386 OA
ATOM     10  H   UNL     1       2.734  -3.025  27.085  0.00  0.00    +0.210 HD
ENDBRANCH   6   9
BRANCH   4  11
ATOM     11  C   UNL     1       5.803   0.332  28.304  0.00  0.00    +0.197 C 
BRANCH  11  12
ATOM     12  O   UNL     1       4.518  -0.022  28.793  0.00  0.00    -0.346 OA
BRANCH  12  13
ATOM     13  C   UNL     1       4.002   0.725  29.893  0.00  0.00    +0.282 C 
ATOM     14  O   UNL     1       2.651   0.300  30.128  0.00  0.00    -0.342 OA
ATOM     15  C   UNL     1       1.824   0.519  28.970  0.00  0.00    +0.162 C 
ATOM     16  C   UNL     1       0.443  -0.067  29.264  0.00  0.00    +0.042 C 
ATOM     17  C   UNL     1       1.812   2.027  28.592  0.00  0.00    +0.236 C 
ATOM     18  C   UNL     1       3.267   2.563  28.356  0.00  0.00    +0.198 C 
ATOM     19  C   UNL     1       3.995   2.263  29.703  0.00  0.00    +0.203 C 
BRANCH  19  20
ATOM     20  O   UNL     1       5.311   2.803  29.814  0.00  0.00    -0.384 OA
ATOM     21  H   UNL     1       5.311   3.702  29.441  0.00  0.00    +0.210 HD
ENDBRANCH  19  20
BRANCH  18  22
ATOM     22  O   UNL     1       3.266   3.946  27.970  0.00  0.00    -0.339 OA
BRANCH  22  23
ATOM     23  C   UNL     1       3.724   4.306  26.646  0.00  0.00    +0.282 C 
ATOM     24  O   UNL     1       5.169   4.225  26.671  0.00  0.00    -0.341 OA
ATOM     25  C   UNL     1       5.717   5.176  27.600  0.00  0.00    +0.178 C 
ATOM     26  C   UNL     1       5.484   6.632  27.139  0.00  0.00    +0.177 C 
ATOM     27  C   UNL     1       4.003   6.865  26.802  0.00  0.00    +0.179 C 
ATOM     28  C   UNL     1       3.383   5.701  26.023  0.00  0.00    +0.201 C 
BRANCH  26  29
ATOM     29  O   UNL     1       6.254   6.970  25.989  0.00  0.00    -0.386 OA
ATOM     30  H   UNL     1       7.055   6.410  25.981  0.00  0.00    +0.210 HD
ENDBRANCH  26  29
BRANCH  27  31
ATOM     31  O   UNL     1       3.165   7.080  27.952  0.00  0.00    -0.386 OA
ATOM     32  H   UNL     1       2.712   7.933  27.869  0.00  0.00    +0.210 HD
ENDBRANCH  27  31
BRANCH  28  33
ATOM     33  O   UNL     1       1.996   6.011  25.876  0.00  0.00    -0.384 OA
ATOM     34  H   UNL     1       1.819   5.907  24.916  0.00  0.00    +0.210 HD
ENDBRANCH  28  33
BRANCH  25  35
ATOM     35  C   UNL     1       7.166   4.766  27.896  0.00  0.00    +0.190 C 
BRANCH  35  36
ATOM     36  O   UNL     1       7.539   3.468  27.462  0.00  0.00    -0.392 OA
ATOM     37  H   UNL     1       6.764   3.092  27.006  0.00  0.00    +0.210 HD
ENDBRANCH  35  36
ENDBRANCH  25  35
ENDBRANCH  22  23
ENDBRANCH  18  22
BRANCH  17  38
ATOM     38  O   UNL     1       0.878   2.367  27.558  0.00  0.00    -0.453 OA
BRANCH  38  39
ATOM     39  C   UNL     1       0.892   1.775  26.349  0.00  0.00    +0.332 C 
ATOM     40  O   UNL     1       0.956   0.584  26.112  0.00  0.00    -0.246 OA
BRANCH  39  41
ATOM     41  C   UNL     1       0.813   2.814  25.298  0.00  0.00    +0.092 C 
ATOM     42  C   UNL     1       1.687   2.838  24.280  0.00  0.00    +0.015 C 
BRANCH  42  43
ATOM     43  C   UNL     1       1.447   3.611  23.073  0.00  0.00    -0.025 A 
ATOM     44  C   UNL     1       2.175   3.245  21.934  0.00  0.00    +0.011 A 
ATOM     45  C   UNL     1       2.040   3.966  20.755  0.00  0.00    +0.046 A 
ATOM     46  C   UNL     1       1.168   5.045  20.717  0.00  0.00    +0.117 A 
ATOM     47  C   UNL     1       0.449   5.433  21.846  0.00  0.00    +0.046 A 
ATOM     48  C   UNL     1       0.588   4.710  23.035  0.00  0.00    +0.011 A 
BRANCH  46  49
ATOM     49  O   UNL     1       1.066   5.715  19.537  0.00  0.00    -0.507 OA
ATOM     50  H   UNL     1       0.219   5.482  19.116  0.00  0.00    +0.292 HD
ENDBRANCH  46  49
ENDBRANCH  42  43
ENDBRANCH  39  41
ENDBRANCH  38  39
ENDBRANCH  17  38
ENDBRANCH  12  13
ENDBRANCH  11  12
ENDBRANCH   4  11
BRANCH   2  51
ATOM     51  O   UNL     1       5.456   0.069  24.033  0.00  0.00    -0.453 OA
BRANCH  51  52
ATOM     52  C   UNL     1       6.689   0.647  23.648  0.00  0.00    +0.214 A 
ATOM     53  C   UNL     1       6.863   2.162  23.584  0.00  0.00    +0.238 A 
ATOM     54  O   UNL     1       5.916   2.940  23.434  0.00  0.00    -0.283 OA
ATOM     55  C   UNL     1       8.196   2.716  23.662  0.00  0.00    +0.109 A 
ATOM     56  C   UNL     1       9.215   1.892  23.243  0.00  0.00    +0.147 A 
ATOM     57  C   UNL     1      10.520   2.381  23.149  0.00  0.00    +0.092 A 
ATOM     58  C   UNL     1      10.773   3.707  23.488  0.00  0.00    +0.124 A 
ATOM     59  C   UNL     1       9.754   4.536  23.950  0.00  0.00    +0.091 A 
ATOM     60  O   UNL     1       8.985   0.599  22.875  0.00  0.00    -0.451 OA
ATOM     61  C   UNL     1       8.462   4.036  24.045  0.00  0.00    +0.135 A 
ATOM     62  C   UNL     1       7.808  -0.053  23.301  0.00  0.00    +0.181 A 
BRANCH  62  63
ATOM     63  C   UNL     1       8.049  -1.541  23.247  0.00  0.00    +0.025 A 
ATOM     64  C   UNL     1       7.288  -2.291  22.303  0.00  0.00    +0.015 A 
ATOM     65  C   UNL     1       7.291  -3.690  22.258  0.00  0.00    +0.050 A 
ATOM     66  C   UNL     1       8.103  -4.377  23.133  0.00  0.00    +0.158 A 
ATOM     67  C   UNL     1       8.901  -3.679  24.037  0.00  0.00    +0.159 A 
ATOM     68  C   UNL     1       8.868  -2.274  24.119  0.00  0.00    +0.060 A 
BRANCH  67  69
ATOM     69  O   UNL     1       9.709  -4.439  24.844  0.00  0.00    -0.503 OA
ATOM     70  H   UNL     1      10.588  -4.023  24.862  0.00  0.00    +0.292 HD
ENDBRANCH  67  69
BRANCH  66  71
ATOM     71  O   UNL     1       8.117  -5.742  23.081  0.00  0.00    -0.503 OA
ATOM     72  H   UNL     1       7.923  -6.029  23.994  0.00  0.00    +0.292 HD
ENDBRANCH  66  71
ENDBRANCH  62  63
BRANCH  61  73
ATOM     73  O   UNL     1       7.463   4.836  24.524  0.00  0.00    -0.506 OA
ATOM     74  H   UNL     1       7.018   4.411  25.276  0.00  0.00    +0.292 HD
ENDBRANCH  61  73
BRANCH  58  75
ATOM     75  O   UNL     1      12.018   4.253  23.389  0.00  0.00    -0.507 OA
ATOM     76  H   UNL     1      12.685   3.590  23.639  0.00  0.00    +0.292 HD
ENDBRANCH  58  75
ENDBRANCH  51  52
ENDBRANCH   2  51
BRANCH   1  77
ATOM     77  O   UNL     1       5.276  -2.826  24.849  0.00  0.00    -0.337 OA
BRANCH  77  81
ATOM     78  C   UNL     1       4.605  -6.258  27.186  0.00  0.00    +0.041 C 
ATOM     79  C   UNL     1       5.077  -6.381  25.730  0.00  0.00    +0.149 C 
ATOM     80  O   UNL     1       5.638  -5.150  25.219  0.00  0.00    -0.343 OA
ATOM     81  C   UNL     1       4.662  -4.102  25.125  0.00  0.00    +0.282 C 
ATOM     82  C   UNL     1       3.540  -4.500  24.122  0.00  0.00    +0.201 C 
ATOM     83  C   UNL     1       2.900  -5.814  24.560  0.00  0.00    +0.179 C 
ATOM     84  C   UNL     1       3.962  -6.890  24.797  0.00  0.00    +0.174 C 
BRANCH  82  85
ATOM     85  O   UNL     1       4.063  -4.625  22.785  0.00  0.00    -0.384 OA
ATOM     86  H   UNL     1       4.950  -4.217  22.812  0.00  0.00    +0.210 HD
ENDBRANCH  82  85
BRANCH  83  87
ATOM     87  O   UNL     1       1.978  -6.237  23.543  0.00  0.00    -0.386 OA
ATOM     88  H   UNL     1       2.021  -5.541  22.854  0.00  0.00    +0.210 HD
ENDBRANCH  83  87
BRANCH  84  89
ATOM     89  O   UNL     1       4.521  -7.247  23.521  0.00  0.00    -0.387 OA
ATOM     90  H   UNL     1       4.129  -8.120  23.288  0.00  0.00    +0.210 HD
ENDBRANCH  84  89
ENDBRANCH  77  81
ENDBRANCH   1  77
TORSDOF 30
ENDMDL
MODEL 3
REMARK VINA RESULT:      -5.0      2.394      7.179
REMARK  Name = 
REMARK  32 active torsions:
REMARK  status: ('A' for Active; 'I' for Inactive)
REMARK    1  A    between atoms: C_1  and  C_2
REMARK    2  A    between atoms: C_3  and  O_87
REMARK    3  A    between atoms: C_5  and  O_86
REMARK    4  A    between atoms: C_6  and  O_85
REMARK    5  A    between atoms: C_8  and  O_11
REMARK    6  A    between atoms: O_11  and  C_12
REMARK    7  A    between atoms: C_13  and  O_84
REMARK    8  A    between atoms: C_15  and  O_83
REMARK    9  A    between atoms: C_17  and  C_43
REMARK   10  A    between atoms: C_19  and  O_21
REMARK   11  A    between atoms: O_21  and  C_22
REMARK   12  A    between atoms: C_23  and  C_35
REMARK   13  A    between atoms: C_27  and  O_34
REMARK   14  A    between atoms: C_29  and  O_33
REMARK   15  A    between atoms: C_37  and  O_42
REMARK   16  A    between atoms: C_38  and  O_41
REMARK   17  A    between atoms: C_43  and  O_44
REMARK   18  A    between atoms: O_44  and  C_45
REMARK   19  A    between atoms: C_47  and  O_82
REMARK   20  A    between atoms: C_49  and  O_67
REMARK   21  A    between atoms: C_50  and  O_55
REMARK   22  A    between atoms: C_52  and  C_54
REMARK   23  A    between atoms: O_55  and  C_56
REMARK   24  A    between atoms: C_56  and  C_58
REMARK   25  A    between atoms: C_59  and  C_60
REMARK   26  A    between atoms: C_63  and  O_66
REMARK   27  A    between atoms: O_67  and  C_68
REMARK   28  A    between atoms: C_70  and  O_81
REMARK   29  A    between atoms: C_71  and  O_80
REMARK   30  A    between atoms: C_73  and  O_79
REMARK   31  A    between atoms: C_75  and  C_77
REMARK   32  A    between atoms: C_77  and  O_78
REMARK                            x       y       z     vdW  Elec       q    Type
REMARK                         _______ _______ _______ _____ _____    ______ ____
ROOT
ATOM      1  C   UNL     1       3.130  -3.363  27.374  0.00  0.00    +0.221 C 
ATOM      2  C   UNL     1       4.437  -2.507  27.380  0.00  0.00    +0.340 C 
ATOM      3  O   UNL     1       4.384  -1.590  28.500  0.00  0.00    -0.331 OA
ATOM      4  C   UNL     1       3.253  -0.665  28.425  0.00  0.00    +0.179 C 
ATOM      5  C   UNL     1       1.909  -1.403  28.418  0.00  0.00    +0.177 C 
ATOM      6  C   UNL     1       1.920  -2.396  27.245  0.00  0.00    +0.180 C 
ENDROOT
BRANCH   5   7
ATOM      7  O   UNL     1       1.699  -2.036  29.684  0.00  0.00    -0.386 OA
ATOM      8  H   UNL     1       1.028  -2.735  29.550  0.00  0.00    +0.210 HD
ENDBRANCH   5   7
BRANCH   6   9
ATOM      9  O   UNL     1       0.645  -3.035  27.114  0.00  0.00    -0.386 OA
ATOM     10  H   UNL     1       0.420  -3.051  26.169  0.00  0.00    +0.210 HD
ENDBRANCH   6   9
BRANCH   4  11
ATOM     11  C   UNL     1       3.309   0.264  27.208  0.00  0.00    +0.197 C 
BRANCH  11  12
ATOM     12  O   UNL     1       3.405   1.645  27.524  0.00  0.00    -0.346 OA
BRANCH  12  13
ATOM     13  C   UNL     1       2.581   2.549  26.791  0.00  0.00    +0.282 C 
ATOM     14  O   UNL     1       2.958   2.476  25.408  0.00  0.00    -0.342 OA
ATOM     15  C   UNL     1       4.340   2.829  25.221  0.00  0.00    +0.162 C 
ATOM     16  C   UNL     1       4.685   2.610  23.748  0.00  0.00    +0.042 C 
ATOM     17  C   UNL     1       4.602   4.274  25.731  0.00  0.00    +0.236 C 
ATOM     18  C   UNL     1       4.178   4.430  27.233  0.00  0.00    +0.198 C 
ATOM     19  C   UNL     1       2.670   4.031  27.234  0.00  0.00    +0.203 C 
BRANCH  19  20
ATOM     20  O   UNL     1       1.988   4.243  28.470  0.00  0.00    -0.384 OA
ATOM     21  H   UNL     1       1.480   5.070  28.408  0.00  0.00    +0.210 HD
ENDBRANCH  19  20
BRANCH  18  22
ATOM     22  O   UNL     1       4.449   5.751  27.726  0.00  0.00    -0.339 OA
BRANCH  22  23
ATOM     23  C   UNL     1       4.815   5.921  29.115  0.00  0.00    +0.282 C 
ATOM     24  O   UNL     1       6.013   6.734  29.132  0.00  0.00    -0.341 OA
ATOM     25  C   UNL     1       7.097   6.060  28.471  0.00  0.00    +0.178 C 
ATOM     26  C   UNL     1       7.550   4.801  29.246  0.00  0.00    +0.177 C 
ATOM     27  C   UNL     1       6.349   3.898  29.565  0.00  0.00    +0.179 C 
ATOM     28  C   UNL     1       5.121   4.687  30.028  0.00  0.00    +0.201 C 
BRANCH  26  29
ATOM     29  O   UNL     1       8.198   5.121  30.473  0.00  0.00    -0.386 OA
ATOM     30  H   UNL     1       9.030   4.611  30.522  0.00  0.00    +0.210 HD
ENDBRANCH  26  29
BRANCH  27  31
ATOM     31  O   UNL     1       5.919   3.080  28.461  0.00  0.00    -0.386 OA
ATOM     32  H   UNL     1       6.323   3.402  27.642  0.00  0.00    +0.210 HD
ENDBRANCH  27  31
BRANCH  28  33
ATOM     33  O   UNL     1       4.068   3.734  30.185  0.00  0.00    -0.384 OA
ATOM     34  H   UNL     1       3.614   3.721  29.315  0.00  0.00    +0.210 HD
ENDBRANCH  28  33
BRANCH  25  35
ATOM     35  C   UNL     1       8.175   7.102  28.149  0.00  0.00    +0.190 C 
BRANCH  35  36
ATOM     36  O   UNL     1       9.439   6.889  28.758  0.00  0.00    -0.392 OA
ATOM     37  H   UNL     1       9.926   6.272  28.183  0.00  0.00    +0.210 HD
ENDBRANCH  35  36
ENDBRANCH  25  35
ENDBRANCH  22  23
ENDBRANCH  18  22
BRANCH  17  38
ATOM     38  O   UNL     1       5.911   4.777  25.428  0.00  0.00    -0.453 OA
BRANCH  38  39
ATOM     39  C   UNL     1       6.105   5.935  24.770  0.00  0.00    +0.332 C 
ATOM     40  O   UNL     1       5.307   6.842  24.622  0.00  0.00    -0.246 OA
BRANCH  39  41
ATOM     41  C   UNL     1       7.482   5.961  24.228  0.00  0.00    +0.092 C 
ATOM     42  C   UNL     1       8.544   6.077  25.041  0.00  0.00    +0.015 C 
BRANCH  42  43
ATOM     43  C   UNL     1       9.894   5.771  24.597  0.00  0.00    -0.025 A 
ATOM     44  C   UNL     1      10.926   6.548  25.137  0.00  0.00    +0.011 A 
ATOM     45  C   UNL     1      12.238   6.352  24.726  0.00  0.00    +0.046 A 
ATOM     46  C   UNL     1      12.513   5.372  23.783  0.00  0.00    +0.117 A 
ATOM     47  C   UNL     1      11.495   4.601  23.223  0.00  0.00    +0.046 A 
ATOM     48  C   UNL     1      10.174   4.801  23.634  0.00  0.00    +0.011 A 
BRANCH  46  49
ATOM     49  O   UNL     1      13.815   5.213  23.418  0.00  0.00    -0.507 OA
ATOM     50  H   UNL     1      13.954   4.289  23.145  0.00  0.00    +0.292 HD
ENDBRANCH  46  49
ENDBRANCH  42  43
ENDBRANCH  39  41
ENDBRANCH  38  39
ENDBRANCH  17  38
ENDBRANCH  12  13
ENDBRANCH  11  12
ENDBRANCH   4  11
BRANCH   2  51
ATOM     51  O   UNL     1       5.648  -3.334  27.315  0.00  0.00    -0.453 OA
BRANCH  51  52
ATOM     52  C   UNL     1       6.068  -3.701  26.015  0.00  0.00    +0.214 A 
ATOM     53  C   UNL     1       5.804  -5.100  25.467  0.00  0.00    +0.238 A 
ATOM     54  O   UNL     1       5.625  -6.082  26.194  0.00  0.00    -0.283 OA
ATOM     55  C   UNL     1       5.800  -5.301  24.036  0.00  0.00    +0.109 A 
ATOM     56  C   UNL     1       6.547  -4.408  23.301  0.00  0.00    +0.147 A 
ATOM     57  C   UNL     1       6.719  -4.599  21.928  0.00  0.00    +0.092 A 
ATOM     58  C   UNL     1       6.123  -5.698  21.317  0.00  0.00    +0.124 A 
ATOM     59  C   UNL     1       5.334  -6.584  22.045  0.00  0.00    +0.091 A 
ATOM     60  O   UNL     1       7.166  -3.343  23.885  0.00  0.00    -0.451 OA
ATOM     61  C   UNL     1       5.165  -6.380  23.409  0.00  0.00    +0.135 A 
ATOM     62  C   UNL     1       6.731  -2.884  25.147  0.00  0.00    +0.181 A 
BRANCH  62  63
ATOM     63  C   UNL     1       7.166  -1.447  25.300  0.00  0.00    +0.025 A 
ATOM     64  C   UNL     1       7.205  -0.914  26.621  0.00  0.00    +0.015 A 
ATOM     65  C   UNL     1       7.429   0.440  26.892  0.00  0.00    +0.050 A 
ATOM     66  C   UNL     1       7.674   1.293  25.839  0.00  0.00    +0.158 A 
ATOM     67  C   UNL     1       7.695   0.802  24.536  0.00  0.00    +0.159 A 
ATOM     68  C   UNL     1       7.424  -0.550  24.251  0.00  0.00    +0.060 A 
BRANCH  67  69
ATOM     69  O   UNL     1       7.986   1.711  23.550  0.00  0.00    -0.503 OA
ATOM     70  H   UNL     1       7.145   2.012  23.164  0.00  0.00    +0.292 HD
ENDBRANCH  67  69
BRANCH  66  71
ATOM     71  O   UNL     1       7.907   2.613  26.103  0.00  0.00    -0.503 OA
ATOM     72  H   UNL     1       7.840   3.058  25.236  0.00  0.00    +0.292 HD
ENDBRANCH  66  71
ENDBRANCH  62  63
BRANCH  61  73
ATOM     73  O   UNL     1       4.369  -7.229  24.124  0.00  0.00    -0.506 OA
ATOM     74  H   UNL     1       4.830  -7.537  24.922  0.00  0.00    +0.292 HD
ENDBRANCH  61  73
BRANCH  58  75
ATOM     75  O   UNL     1       6.278  -5.957  19.988  0.00  0.00    -0.507 OA
ATOM     76  H   UNL     1       5.973  -5.193  19.470  0.00  0.00    +0.292 HD
ENDBRANCH  58  75
ENDBRANCH  51  52
ENDBRANCH   2  51
BRANCH   1  77
ATOM     77  O   UNL     1       3.041  -4.252  28.518  0.00  0.00    -0.337 OA
BRANCH  77  81
ATOM     78  C   UNL     1       0.943  -7.735  29.590  0.00  0.00    +0.041 C 
ATOM     79  C   UNL     1       2.048  -7.782  28.525  0.00  0.00    +0.149 C 
ATOM     80  O   UNL     1       2.919  -6.628  28.572  0.00  0.00    -0.343 OA
ATOM     81  C   UNL     1       2.235  -5.413  28.234  0.00  0.00    +0.282 C 
ATOM     82  C   UNL     1       1.707  -5.481  26.771  0.00  0.00    +0.201 C 
ATOM     83  C   UNL     1       0.794  -6.693  26.608  0.00  0.00    +0.179 C 
ATOM     84  C   UNL     1       1.481  -7.967  27.105  0.00  0.00    +0.174 C 
BRANCH  82  85
ATOM     85  O   UNL     1       2.798  -5.553  25.832  0.00  0.00    -0.384 OA
ATOM     86  H   UNL     1       3.161  -6.456  25.921  0.00  0.00    +0.210 HD
ENDBRANCH  82  85
BRANCH  83  87
ATOM     87  O   UNL     1       0.444  -6.822  25.221  0.00  0.00    -0.386 OA
ATOM     88  H   UNL     1      -0.345  -6.251  25.103  0.00  0.00    +0.210 HD
ENDBRANCH  83  87
BRANCH  84  89
ATOM     89  O   UNL     1       2.547  -8.280  26.191  0.00  0.00    -0.387 OA
ATOM     90  H   UNL     1       2.888  -9.162  26.464  0.00  0.00    +0.210 HD
ENDBRANCH  84  89
ENDBRANCH  77  81
ENDBRANCH   1  77
TORSDOF 30
ENDMDL
MODEL 4
REMARK VINA RESULT:      -4.9      1.806      4.353
REMARK  Name = 
REMARK  32 active torsions:
REMARK  status: ('A' for Active; 'I' for Inactive)
REMARK    1  A    between atoms: C_1  and  C_2
REMARK    2  A    between atoms: C_3  and  O_87
REMARK    3  A    between atoms: C_5  and  O_86
REMARK    4  A    between atoms: C_6  and  O_85
REMARK    5  A    between atoms: C_8  and  O_11
REMARK    6  A    between atoms: O_11  and  C_12
REMARK    7  A    between atoms: C_13  and  O_84
REMARK    8  A    between atoms: C_15  and  O_83
REMARK    9  A    between atoms: C_17  and  C_43
REMARK   10  A    between atoms: C_19  and  O_21
REMARK   11  A    between atoms: O_21  and  C_22
REMARK   12  A    between atoms: C_23  and  C_35
REMARK   13  A    between atoms: C_27  and  O_34
REMARK   14  A    between atoms: C_29  and  O_33
REMARK   15  A    between atoms: C_37  and  O_42
REMARK   16  A    between atoms: C_38  and  O_41
REMARK   17  A    between atoms: C_43  and  O_44
REMARK   18  A    between atoms: O_44  and  C_45
REMARK   19  A    between atoms: C_47  and  O_82
REMARK   20  A    between atoms: C_49  and  O_67
REMARK   21  A    between atoms: C_50  and  O_55
REMARK   22  A    between atoms: C_52  and  C_54
REMARK   23  A    between atoms: O_55  and  C_56
REMARK   24  A    between atoms: C_56  and  C_58
REMARK   25  A    between atoms: C_59  and  C_60
REMARK   26  A    between atoms: C_63  and  O_66
REMARK   27  A    between atoms: O_67  and  C_68
REMARK   28  A    between atoms: C_70  and  O_81
REMARK   29  A    between atoms: C_71  and  O_80
REMARK   30  A    between atoms: C_73  and  O_79
REMARK   31  A    between atoms: C_75  and  C_77
REMARK   32  A    between atoms: C_77  and  O_78
REMARK                            x       y       z     vdW  Elec       q    Type
REMARK                         _______ _______ _______ _____ _____    ______ ____
ROOT
ATOM      1  C   UNL     1       5.961  -4.840  23.544  0.00  0.00    +0.221 C 
ATOM      2  C   UNL     1       5.445  -3.412  23.916  0.00  0.00    +0.340 C 
ATOM      3  O   UNL     1       5.032  -2.739  22.701  0.00  0.00    -0.331 OA
ATOM      4  C   UNL     1       6.124  -2.576  21.741  0.00  0.00    +0.179 C 
ATOM      5  C   UNL     1       6.706  -3.925  21.301  0.00  0.00    +0.177 C 
ATOM      6  C   UNL     1       7.155  -4.681  22.561  0.00  0.00    +0.180 C 
ENDROOT
BRANCH   5   7
ATOM      7  O   UNL     1       5.734  -4.643  20.534  0.00  0.00    -0.386 OA
ATOM      8  H   UNL     1       5.739  -5.567  20.855  0.00  0.00    +0.210 HD
ENDBRANCH   5   7
BRANCH   6   9
ATOM      9  O   UNL     1       7.815  -5.902  22.208  0.00  0.00    -0.386 OA
ATOM     10  H   UNL     1       7.131  -6.545  21.962  0.00  0.00    +0.210 HD
ENDBRANCH   6   9
BRANCH   4  11
ATOM     11  C   UNL     1       7.264  -1.696  22.263  0.00  0.00    +0.197 C 
BRANCH  11  12
ATOM     12  O   UNL     1       7.027  -0.300  22.159  0.00  0.00    -0.346 OA
BRANCH  12  13
ATOM     13  C   UNL     1       8.089   0.515  21.669  0.00  0.00    +0.282 C 
ATOM     14  O   UNL     1       9.333  -0.102  22.035  0.00  0.00    -0.342 OA
ATOM     15  C   UNL     1       9.452  -0.235  23.463  0.00  0.00    +0.162 C 
ATOM     16  C   UNL     1      10.740  -1.003  23.756  0.00  0.00    +0.042 C 
ATOM     17  C   UNL     1       9.370   1.160  24.144  0.00  0.00    +0.236 C 
ATOM     18  C   UNL     1       8.045   1.903  23.754  0.00  0.00    +0.198 C 
ATOM     19  C   UNL     1       8.103   1.971  22.197  0.00  0.00    +0.203 C 
BRANCH  19  20
ATOM     20  O   UNL     1       7.076   2.753  21.586  0.00  0.00    -0.384 OA
ATOM     21  H   UNL     1       6.556   3.185  22.285  0.00  0.00    +0.210 HD
ENDBRANCH  19  20
BRANCH  18  22
ATOM     22  O   UNL     1       7.941   3.178  24.407  0.00  0.00    -0.339 OA
BRANCH  22  23
ATOM     23  C   UNL     1       6.673   3.572  24.982  0.00  0.00    +0.282 C 
ATOM     24  O   UNL     1       5.990   4.360  23.977  0.00  0.00    -0.341 OA
ATOM     25  C   UNL     1       6.728   5.557  23.679  0.00  0.00    +0.178 C 
ATOM     26  C   UNL     1       6.763   6.527  24.881  0.00  0.00    +0.177 C 
ATOM     27  C   UNL     1       7.230   5.801  26.152  0.00  0.00    +0.179 C 
ATOM     28  C   UNL     1       6.607   4.410  26.302  0.00  0.00    +0.201 C 
BRANCH  26  29
ATOM     29  O   UNL     1       5.491   7.108  25.150  0.00  0.00    -0.386 OA
ATOM     30  H   UNL     1       5.008   7.195  24.304  0.00  0.00    +0.210 HD
ENDBRANCH  26  29
BRANCH  27  31
ATOM     31  O   UNL     1       8.656   5.623  26.237  0.00  0.00    -0.386 OA
ATOM     32  H   UNL     1       8.905   5.427  27.152  0.00  0.00    +0.210 HD
ENDBRANCH  27  31
BRANCH  28  33
ATOM     33  O   UNL     1       7.209   3.825  27.458  0.00  0.00    -0.384 OA
ATOM     34  H   UNL     1       8.173   3.953  27.328  0.00  0.00    +0.210 HD
ENDBRANCH  28  33
BRANCH  25  35
ATOM     35  C   UNL     1       6.202   6.116  22.351  0.00  0.00    +0.190 C 
BRANCH  35  36
ATOM     36  O   UNL     1       7.191   6.460  21.393  0.00  0.00    -0.392 OA
ATOM     37  H   UNL     1       6.722   6.635  20.557  0.00  0.00    +0.210 HD
ENDBRANCH  35  36
ENDBRANCH  25  35
ENDBRANCH  22  23
ENDBRANCH  18  22
BRANCH  17  38
ATOM     38  O   UNL     1       9.652   1.146  25.550  0.00  0.00    -0.453 OA
BRANCH  38  39
ATOM     39  C   UNL     1       8.798   0.630  26.453  0.00  0.00    +0.332 C 
ATOM     40  O   UNL     1       7.944   1.224  27.085  0.00  0.00    -0.246 OA
BRANCH  39  41
ATOM     41  C   UNL     1       9.043  -0.824  26.578  0.00  0.00    +0.092 C 
ATOM     42  C   UNL     1       8.204  -1.717  26.029  0.00  0.00    +0.015 C 
BRANCH  42  43
ATOM     43  C   UNL     1       8.575  -3.110  25.837  0.00  0.00    -0.025 A 
ATOM     44  C   UNL     1       8.010  -4.041  26.716  0.00  0.00    +0.011 A 
ATOM     45  C   UNL     1       8.353  -5.383  26.630  0.00  0.00    +0.046 A 
ATOM     46  C   UNL     1       9.254  -5.791  25.657  0.00  0.00    +0.117 A 
ATOM     47  C   UNL     1       9.839  -4.875  24.785  0.00  0.00    +0.046 A 
ATOM     48  C   UNL     1       9.496  -3.522  24.873  0.00  0.00    +0.011 A 
BRANCH  46  49
ATOM     49  O   UNL     1       9.553  -7.118  25.608  0.00  0.00    -0.507 OA
ATOM     50  H   UNL     1      10.406  -7.264  26.053  0.00  0.00    +0.292 HD
ENDBRANCH  46  49
ENDBRANCH  42  43
ENDBRANCH  39  41
ENDBRANCH  38  39
ENDBRANCH  17  38
ENDBRANCH  12  13
ENDBRANCH  11  12
ENDBRANCH   4  11
BRANCH   2  51
ATOM     51  O   UNL     1       4.435  -3.442  24.980  0.00  0.00    -0.453 OA
BRANCH  51  52
ATOM     52  C   UNL     1       4.610  -2.492  26.013  0.00  0.00    +0.214 A 
ATOM     53  C   UNL     1       4.801  -1.011  25.700  0.00  0.00    +0.238 A 
ATOM     54  O   UNL     1       5.232  -0.606  24.617  0.00  0.00    -0.283 OA
ATOM     55  C   UNL     1       4.503  -0.036  26.724  0.00  0.00    +0.109 A 
ATOM     56  C   UNL     1       4.603  -0.478  28.023  0.00  0.00    +0.147 A 
ATOM     57  C   UNL     1       4.471   0.422  29.083  0.00  0.00    +0.092 A 
ATOM     58  C   UNL     1       4.233   1.765  28.807  0.00  0.00    +0.124 A 
ATOM     59  C   UNL     1       4.092   2.213  27.497  0.00  0.00    +0.091 A 
ATOM     60  O   UNL     1       4.868  -1.783  28.316  0.00  0.00    -0.451 OA
ATOM     61  C   UNL     1       4.219   1.308  26.451  0.00  0.00    +0.135 A 
ATOM     62  C   UNL     1       4.632  -2.782  27.347  0.00  0.00    +0.181 A 
BRANCH  62  63
ATOM     63  C   UNL     1       4.471  -4.101  28.061  0.00  0.00    +0.025 A 
ATOM     64  C   UNL     1       3.153  -4.472  28.458  0.00  0.00    +0.015 A 
ATOM     65  C   UNL     1       2.882  -5.582  29.266  0.00  0.00    +0.050 A 
ATOM     66  C   UNL     1       3.930  -6.385  29.656  0.00  0.00    +0.158 A 
ATOM     67  C   UNL     1       5.227  -6.087  29.246  0.00  0.00    +0.159 A 
ATOM     68  C   UNL     1       5.514  -4.946  28.473  0.00  0.00    +0.060 A 
BRANCH  67  69
ATOM     69  O   UNL     1       6.206  -6.962  29.646  0.00  0.00    -0.503 OA
ATOM     70  H   UNL     1       7.066  -6.576  29.409  0.00  0.00    +0.292 HD
ENDBRANCH  67  69
BRANCH  66  71
ATOM     71  O   UNL     1       3.666  -7.477  30.433  0.00  0.00    -0.503 OA
ATOM     72  H   UNL     1       2.762  -7.330  30.774  0.00  0.00    +0.292 HD
ENDBRANCH  66  71
ENDBRANCH  62  63
BRANCH  61  73
ATOM     73  O   UNL     1       4.053   1.736  25.164  0.00  0.00    -0.506 OA
ATOM     74  H   UNL     1       3.153   1.541  24.854  0.00  0.00    +0.292 HD
ENDBRANCH  61  73
BRANCH  58  75
ATOM     75  O   UNL     1       4.125   2.697  29.795  0.00  0.00    -0.507 OA
ATOM     76  H   UNL     1       4.953   3.202  29.859  0.00  0.00    +0.292 HD
ENDBRANCH  58  75
ENDBRANCH  51  52
ENDBRANCH   2  51
BRANCH   1  77
ATOM     77  O   UNL     1       4.906  -5.699  23.039  0.00  0.00    -0.337 OA
BRANCH  77  81
ATOM     78  C   UNL     1       3.712  -7.630  26.578  0.00  0.00    +0.041 C 
ATOM     79  C   UNL     1       2.936  -7.841  25.270  0.00  0.00    +0.149 C 
ATOM     80  O   UNL     1       3.693  -7.450  24.102  0.00  0.00    -0.343 OA
ATOM     81  C   UNL     1       3.954  -6.039  24.066  0.00  0.00    +0.282 C 
ATOM     82  C   UNL     1       2.616  -5.247  23.984  0.00  0.00    +0.201 C 
ATOM     83  C   UNL     1       1.725  -5.616  25.167  0.00  0.00    +0.179 C 
ATOM     84  C   UNL     1       1.569  -7.133  25.284  0.00  0.00    +0.174 C 
BRANCH  82  85
ATOM     85  O   UNL     1       1.931  -5.518  22.745  0.00  0.00    -0.384 OA
ATOM     86  H   UNL     1       2.351  -4.936  22.082  0.00  0.00    +0.210 HD
ENDBRANCH  82  85
BRANCH  83  87
ATOM     87  O   UNL     1       0.443  -4.993  24.988  0.00  0.00    -0.386 OA
ATOM     88  H   UNL     1       0.003  -5.059  25.862  0.00  0.00    +0.210 HD
ENDBRANCH  83  87
BRANCH  84  89
ATOM     89  O   UNL     1       0.777  -7.582  24.170  0.00  0.00    -0.387 OA
ATOM     90  H   UNL     1       0.029  -6.946  24.095  0.00  0.00    +0.210 HD
ENDBRANCH  84  89
ENDBRANCH  77  81
ENDBRANCH   1  77
TORSDOF 30
ENDMDL
MODEL 5
REMARK VINA RESULT:      -4.8      1.417      3.377
REMARK  Name = 
REMARK  32 active torsions:
REMARK  status: ('A' for Active; 'I' for Inactive)
REMARK    1  A    between atoms: C_1  and  C_2
REMARK    2  A    between atoms: C_3  and  O_87
REMARK    3  A    between atoms: C_5  and  O_86
REMARK    4  A    between atoms: C_6  and  O_85
REMARK    5  A    between atoms: C_8  and  O_11
REMARK    6  A    between atoms: O_11  and  C_12
REMARK    7  A    between atoms: C_13  and  O_84
REMARK    8  A    between atoms: C_15  and  O_83
REMARK    9  A    between atoms: C_17  and  C_43
REMARK   10  A    between atoms: C_19  and  O_21
REMARK   11  A    between atoms: O_21  and  C_22
REMARK   12  A    between atoms: C_23  and  C_35
REMARK   13  A    between atoms: C_27  and  O_34
REMARK   14  A    between atoms: C_29  and  O_33
REMARK   15  A    between atoms: C_37  and  O_42
REMARK   16  A    between atoms: C_38  and  O_41
REMARK   17  A    between atoms: C_43  and  O_44
REMARK   18  A    between atoms: O_44  and  C_45
REMARK   19  A    between atoms: C_47  and  O_82
REMARK   20  A    between atoms: C_49  and  O_67
REMARK   21  A    between atoms: C_50  and  O_55
REMARK   22  A    between atoms: C_52  and  C_54
REMARK   23  A    between atoms: O_55  and  C_56
REMARK   24  A    between atoms: C_56  and  C_58
REMARK   25  A    between atoms: C_59  and  C_60
REMARK   26  A    between atoms: C_63  and  O_66
REMARK   27  A    between atoms: O_67  and  C_68
REMARK   28  A    between atoms: C_70  and  O_81
REMARK   29  A    between atoms: C_71  and  O_80
REMARK   30  A    between atoms: C_73  and  O_79
REMARK   31  A    between atoms: C_75  and  C_77
REMARK   32  A    between atoms: C_77  and  O_78
REMARK                            x       y       z     vdW  Elec       q    Type
REMARK                         _______ _______ _______ _____ _____    ______ ____
ROOT
ATOM      1  C   UNL     1       4.922  -5.247  23.218  0.00  0.00    +0.221 C 
ATOM      2  C   UNL     1       4.994  -3.801  23.805  0.00  0.00    +0.340 C 
ATOM      3  O   UNL     1       5.292  -2.879  22.727  0.00  0.00    -0.331 OA
ATOM      4  C   UNL     1       6.575  -3.156  22.080  0.00  0.00    +0.179 C 
ATOM      5  C   UNL     1       6.614  -4.559  21.461  0.00  0.00    +0.177 C 
ATOM      6  C   UNL     1       6.296  -5.574  22.570  0.00  0.00    +0.180 C 
ENDROOT
BRANCH   5   7
ATOM      7  O   UNL     1       5.699  -4.627  20.362  0.00  0.00    -0.386 OA
ATOM      8  H   UNL     1       4.803  -4.738  20.738  0.00  0.00    +0.210 HD
ENDBRANCH   5   7
BRANCH   6   9
ATOM      9  O   UNL     1       6.431  -6.914  22.080  0.00  0.00    -0.386 OA
ATOM     10  H   UNL     1       7.343  -7.200  22.254  0.00  0.00    +0.210 HD
ENDBRANCH   6   9
BRANCH   4  11
ATOM     11  C   UNL     1       7.775  -3.002  23.020  0.00  0.00    +0.197 C 
BRANCH  11  12
ATOM     12  O   UNL     1       7.963  -1.689  23.526  0.00  0.00    -0.346 OA
BRANCH  12  13
ATOM     13  C   UNL     1       8.378  -0.680  22.607  0.00  0.00    +0.282 C 
ATOM     14  O   UNL     1       9.632  -0.149  23.061  0.00  0.00    -0.342 OA
ATOM     15  C   UNL     1       9.513   0.422  24.377  0.00  0.00    +0.162 C 
ATOM     16  C   UNL     1      10.908   0.852  24.829  0.00  0.00    +0.042 C 
ATOM     17  C   UNL     1       8.460   1.565  24.377  0.00  0.00    +0.236 C 
ATOM     18  C   UNL     1       7.072   1.056  23.855  0.00  0.00    +0.198 C 
ATOM     19  C   UNL     1       7.392   0.502  22.432  0.00  0.00    +0.203 C 
BRANCH  19  20
ATOM     20  O   UNL     1       6.253   0.116  21.661  0.00  0.00    -0.384 OA
ATOM     21  H   UNL     1       5.449   0.366  22.148  0.00  0.00    +0.210 HD
ENDBRANCH  19  20
BRANCH  18  22
ATOM     22  O   UNL     1       6.081   2.096  23.884  0.00  0.00    -0.339 OA
BRANCH  22  23
ATOM     23  C   UNL     1       5.619   2.661  22.635  0.00  0.00    +0.282 C 
ATOM     24  O   UNL     1       6.616   3.626  22.224  0.00  0.00    -0.341 OA
ATOM     25  C   UNL     1       6.718   4.695  23.180  0.00  0.00    +0.178 C 
ATOM     26  C   UNL     1       5.434   5.555  23.221  0.00  0.00    +0.177 C 
ATOM     27  C   UNL     1       4.192   4.669  23.398  0.00  0.00    +0.179 C 
ATOM     28  C   UNL     1       4.242   3.400  22.542  0.00  0.00    +0.201 C 
BRANCH  26  29
ATOM     29  O   UNL     1       5.258   6.327  22.038  0.00  0.00    -0.386 OA
ATOM     30  H   UNL     1       6.141   6.566  21.693  0.00  0.00    +0.210 HD
ENDBRANCH  26  29
BRANCH  27  31
ATOM     31  O   UNL     1       3.964   4.240  24.753  0.00  0.00    -0.386 OA
ATOM     32  H   UNL     1       4.493   3.449  24.936  0.00  0.00    +0.210 HD
ENDBRANCH  27  31
BRANCH  28  33
ATOM     33  O   UNL     1       3.085   2.637  22.887  0.00  0.00    -0.384 OA
ATOM     34  H   UNL     1       2.964   2.792  23.849  0.00  0.00    +0.210 HD
ENDBRANCH  28  33
BRANCH  25  35
ATOM     35  C   UNL     1       8.039   5.432  22.926  0.00  0.00    +0.190 C 
BRANCH  35  36
ATOM     36  O   UNL     1       8.037   6.343  21.838  0.00  0.00    -0.392 OA
ATOM     37  H   UNL     1       8.069   7.238  22.223  0.00  0.00    +0.210 HD
ENDBRANCH  35  36
ENDBRANCH  25  35
ENDBRANCH  22  23
ENDBRANCH  18  22
BRANCH  17  38
ATOM     38  O   UNL     1       8.398   2.309  25.601  0.00  0.00    -0.453 OA
BRANCH  38  39
ATOM     39  C   UNL     1       7.874   1.798  26.731  0.00  0.00    +0.332 C 
ATOM     40  O   UNL     1       7.612   2.394  27.758  0.00  0.00    -0.246 OA
BRANCH  39  41
ATOM     41  C   UNL     1       7.644   0.348  26.547  0.00  0.00    +0.092 C 
ATOM     42  C   UNL     1       8.670  -0.517  26.513  0.00  0.00    +0.015 C 
BRANCH  42  43
ATOM     43  C   UNL     1       8.480  -1.949  26.674  0.00  0.00    -0.025 A 
ATOM     44  C   UNL     1       9.548  -2.774  26.300  0.00  0.00    +0.011 A 
ATOM     45  C   UNL     1       9.426  -4.155  26.376  0.00  0.00    +0.046 A 
ATOM     46  C   UNL     1       8.239  -4.706  26.836  0.00  0.00    +0.117 A 
ATOM     47  C   UNL     1       7.160  -3.900  27.196  0.00  0.00    +0.046 A 
ATOM     48  C   UNL     1       7.281  -2.510  27.117  0.00  0.00    +0.011 A 
BRANCH  46  49
ATOM     49  O   UNL     1       8.171  -6.064  26.898  0.00  0.00    -0.507 OA
ATOM     50  H   UNL     1       7.259  -6.342  26.700  0.00  0.00    +0.292 HD
ENDBRANCH  46  49
ENDBRANCH  42  43
ENDBRANCH  39  41
ENDBRANCH  38  39
ENDBRANCH  17  38
ENDBRANCH  12  13
ENDBRANCH  11  12
ENDBRANCH   4  11
BRANCH   2  51
ATOM     51  O   UNL     1       3.809  -3.459  24.599  0.00  0.00    -0.453 OA
BRANCH  51  52
ATOM     52  C   UNL     1       4.056  -2.708  25.772  0.00  0.00    +0.214 A 
ATOM     53  C   UNL     1       4.425  -1.229  25.699  0.00  0.00    +0.238 A 
ATOM     54  O   UNL     1       4.935  -0.715  24.700  0.00  0.00    -0.283 OA
ATOM     55  C   UNL     1       4.207  -0.396  26.860  0.00  0.00    +0.109 A 
ATOM     56  C   UNL     1       4.212  -1.043  28.074  0.00  0.00    +0.147 A 
ATOM     57  C   UNL     1       4.148  -0.309  29.261  0.00  0.00    +0.092 A 
ATOM     58  C   UNL     1       4.075   1.079  29.197  0.00  0.00    +0.124 A 
ATOM     59  C   UNL     1       4.029   1.739  27.971  0.00  0.00    +0.091 A 
ATOM     60  O   UNL     1       4.317  -2.400  28.162  0.00  0.00    -0.451 OA
ATOM     61  C   UNL     1       4.086   0.998  26.798  0.00  0.00    +0.135 A 
ATOM     62  C   UNL     1       4.001  -3.201  27.044  0.00  0.00    +0.181 A 
BRANCH  62  63
ATOM     63  C   UNL     1       3.667  -4.587  27.538  0.00  0.00    +0.025 A 
ATOM     64  C   UNL     1       2.310  -4.846  27.888  0.00  0.00    +0.015 A 
ATOM     65  C   UNL     1       1.893  -6.028  28.510  0.00  0.00    +0.050 A 
ATOM     66  C   UNL     1       2.826  -7.011  28.753  0.00  0.00    +0.158 A 
ATOM     67  C   UNL     1       4.155  -6.818  28.379  0.00  0.00    +0.159 A 
ATOM     68  C   UNL     1       4.590  -5.613  27.795  0.00  0.00    +0.060 A 
BRANCH  67  69
ATOM     69  O   UNL     1       5.010  -7.863  28.620  0.00  0.00    -0.503 OA
ATOM     70  H   UNL     1       5.896  -7.494  28.774  0.00  0.00    +0.292 HD
ENDBRANCH  67  69
BRANCH  66  71
ATOM     71  O   UNL     1       2.419  -8.171  29.347  0.00  0.00    -0.503 OA
ATOM     72  H   UNL     1       2.837  -8.882  28.823  0.00  0.00    +0.292 HD
ENDBRANCH  66  71
ENDBRANCH  62  63
BRANCH  61  73
ATOM     73  O   UNL     1       4.013   1.637  25.593  0.00  0.00    -0.506 OA
ATOM     74  H   UNL     1       4.563   1.183  24.933  0.00  0.00    +0.292 HD
ENDBRANCH  61  73
BRANCH  58  75
ATOM     75  O   UNL     1       4.040   1.853  30.317  0.00  0.00    -0.507 OA
ATOM     76  H   UNL     1       4.728   2.538  30.262  0.00  0.00    +0.292 HD
ENDBRANCH  58  75
ENDBRANCH  51  52
ENDBRANCH   2  51
BRANCH   1  77
ATOM     77  O   UNL     1       3.799  -5.427  22.317  0.00  0.00    -0.337 OA
BRANCH  77  81
ATOM     78  C   UNL     1       1.013  -8.483  21.554  0.00  0.00    +0.041 C 
ATOM     79  C   UNL     1       0.768  -7.461  22.674  0.00  0.00    +0.149 C 
ATOM     80  O   UNL     1       1.586  -6.276  22.537  0.00  0.00    -0.343 OA
ATOM     81  C   UNL     1       2.985  -6.556  22.693  0.00  0.00    +0.282 C 
ATOM     82  C   UNL     1       3.268  -7.099  24.124  0.00  0.00    +0.201 C 
ATOM     83  C   UNL     1       2.422  -8.343  24.381  0.00  0.00    +0.179 C 
ATOM     84  C   UNL     1       0.947  -8.076  24.074  0.00  0.00    +0.174 C 
BRANCH  82  85
ATOM     85  O   UNL     1       2.988  -6.096  25.121  0.00  0.00    -0.384 OA
ATOM     86  H   UNL     1       2.018  -6.099  25.230  0.00  0.00    +0.210 HD
ENDBRANCH  82  85
BRANCH  83  87
ATOM     87  O   UNL     1       2.585  -8.734  25.753  0.00  0.00    -0.386 OA
ATOM     88  H   UNL     1       3.358  -8.223  26.075  0.00  0.00    +0.210 HD
ENDBRANCH  83  87
BRANCH  84  89
ATOM     89  O   UNL     1       0.445  -7.171  25.072  0.00  0.00    -0.387 OA
ATOM     90  H   UNL     1       0.230  -6.336  24.597  0.00  0.00    +0.210 HD
ENDBRANCH  84  89
ENDBRANCH  77  81
ENDBRANCH   1  77
TORSDOF 30
ENDMDL
MODEL 6
REMARK VINA RESULT:      -4.8      2.029     10.003
REMARK  Name = 
REMARK  32 active torsions:
REMARK  status: ('A' for Active; 'I' for Inactive)
REMARK    1  A    between atoms: C_1  and  C_2
REMARK    2  A    between atoms: C_3  and  O_87
REMARK    3  A    between atoms: C_5  and  O_86
REMARK    4  A    between atoms: C_6  and  O_85
REMARK    5  A    between atoms: C_8  and  O_11
REMARK    6  A    between atoms: O_11  and  C_12
REMARK    7  A    between atoms: C_13  and  O_84
REMARK    8  A    between atoms: C_15  and  O_83
REMARK    9  A    between atoms: C_17  and  C_43
REMARK   10  A    between atoms: C_19  and  O_21
REMARK   11  A    between atoms: O_21  and  C_22
REMARK   12  A    between atoms: C_23  and  C_35
REMARK   13  A    between atoms: C_27  and  O_34
REMARK   14  A    between atoms: C_29  and  O_33
REMARK   15  A    between atoms: C_37  and  O_42
REMARK   16  A    between atoms: C_38  and  O_41
REMARK   17  A    between atoms: C_43  and  O_44
REMARK   18  A    between atoms: O_44  and  C_45
REMARK   19  A    between atoms: C_47  and  O_82
REMARK   20  A    between atoms: C_49  and  O_67
REMARK   21  A    between atoms: C_50  and  O_55
REMARK   22  A    between atoms: C_52  and  C_54
REMARK   23  A    between atoms: O_55  and  C_56
REMARK   24  A    between atoms: C_56  and  C_58
REMARK   25  A    between atoms: C_59  and  C_60
REMARK   26  A    between atoms: C_63  and  O_66
REMARK   27  A    between atoms: O_67  and  C_68
REMARK   28  A    between atoms: C_70  and  O_81
REMARK   29  A    between atoms: C_71  and  O_80
REMARK   30  A    between atoms: C_73  and  O_79
REMARK   31  A    between atoms: C_75  and  C_77
REMARK   32  A    between atoms: C_77  and  O_78
REMARK                            x       y       z     vdW  Elec       q    Type
REMARK                         _______ _______ _______ _____ _____    ______ ____
ROOT
ATOM      1  C   UNL     1       6.128   0.487  25.767  0.00  0.00    +0.221 C 
ATOM      2  C   UNL     1       5.565   1.177  27.051  0.00  0.00    +0.340 C 
ATOM      3  O   UNL     1       5.531   0.203  28.123  0.00  0.00    -0.331 OA
ATOM      4  C   UNL     1       4.670  -0.942  27.825  0.00  0.00    +0.179 C 
ATOM      5  C   UNL     1       5.136  -1.701  26.577  0.00  0.00    +0.177 C 
ATOM      6  C   UNL     1       5.194  -0.703  25.410  0.00  0.00    +0.180 C 
ENDROOT
BRANCH   5   7
ATOM      7  O   UNL     1       6.396  -2.329  26.837  0.00  0.00    -0.386 OA
ATOM      8  H   UNL     1       7.093  -1.727  26.510  0.00  0.00    +0.210 HD
ENDBRANCH   5   7
BRANCH   6   9
ATOM      9  O   UNL     1       5.512  -1.377  24.186  0.00  0.00    -0.386 OA
ATOM     10  H   UNL     1       6.172  -0.838  23.718  0.00  0.00    +0.210 HD
ENDBRANCH   6   9
BRANCH   4  11
ATOM     11  C   UNL     1       3.196  -0.561  27.645  0.00  0.00    +0.197 C 
BRANCH  11  12
ATOM     12  O   UNL     1       2.489  -1.363  26.712  0.00  0.00    -0.346 OA
BRANCH  12  13
ATOM     13  C   UNL     1       1.294  -1.999  27.160  0.00  0.00    +0.282 C 
ATOM     14  O   UNL     1       1.395  -2.195  28.579  0.00  0.00    -0.342 OA
ATOM     15  C   UNL     1       2.529  -3.015  28.915  0.00  0.00    +0.162 C 
ATOM     16  C   UNL     1       2.630  -3.072  30.439  0.00  0.00    +0.042 C 
ATOM     17  C   UNL     1       2.412  -4.405  28.230  0.00  0.00    +0.236 C 
ATOM     18  C   UNL     1       2.262  -4.259  26.675  0.00  0.00    +0.198 C 
ATOM     19  C   UNL     1       0.990  -3.371  26.508  0.00  0.00    +0.203 C 
BRANCH  19  20
ATOM     20  O   UNL     1       0.532  -3.215  25.165  0.00  0.00    -0.384 OA
ATOM     21  H   UNL     1       0.910  -2.395  24.801  0.00  0.00    +0.210 HD
ENDBRANCH  19  20
BRANCH  18  22
ATOM     22  O   UNL     1       2.190  -5.538  26.027  0.00  0.00    -0.339 OA
BRANCH  22  23
ATOM     23  C   UNL     1       1.080  -5.816  25.141  0.00  0.00    +0.282 C 
ATOM     24  O   UNL     1       0.561  -7.113  25.520  0.00  0.00    -0.341 OA
ATOM     25  C   UNL     1       1.551  -8.136  25.319  0.00  0.00    +0.178 C 
ATOM     26  C   UNL     1       1.871  -8.342  23.821  0.00  0.00    +0.177 C 
ATOM     27  C   UNL     1       2.207  -7.002  23.148  0.00  0.00    +0.179 C 
ATOM     28  C   UNL     1       1.276  -5.868  23.589  0.00  0.00    +0.201 C 
BRANCH  26  29
ATOM     29  O   UNL     1       0.788  -8.931  23.108  0.00  0.00    -0.386 OA
ATOM     30  H   UNL     1       0.732  -8.507  22.230  0.00  0.00    +0.210 HD
ENDBRANCH  26  29
BRANCH  27  31
ATOM     31  O   UNL     1       3.551  -6.545  23.387  0.00  0.00    -0.386 OA
ATOM     32  H   UNL     1       3.690  -5.699  22.936  0.00  0.00    +0.210 HD
ENDBRANCH  27  31
BRANCH  28  33
ATOM     33  O   UNL     1       1.770  -4.680  22.969  0.00  0.00    -0.384 OA
ATOM     34  H   UNL     1       2.470  -4.993  22.356  0.00  0.00    +0.210 HD
ENDBRANCH  28  33
BRANCH  25  35
ATOM     35  C   UNL     1       1.116  -9.376  26.111  0.00  0.00    +0.190 C 
BRANCH  35  36
ATOM     36  O   UNL     1       1.678 -10.607  25.686  0.00  0.00    -0.392 OA
ATOM     37  H   UNL     1       2.600 -10.421  25.433  0.00  0.00    +0.210 HD
ENDBRANCH  35  36
ENDBRANCH  25  35
ENDBRANCH  22  23
ENDBRANCH  18  22
BRANCH  17  38
ATOM     38  O   UNL     1       3.406  -5.352  28.644  0.00  0.00    -0.453 OA
BRANCH  38  39
ATOM     39  C   UNL     1       3.783  -6.387  27.871  0.00  0.00    +0.332 C 
ATOM     40  O   UNL     1       3.139  -7.386  27.609  0.00  0.00    -0.246 OA
BRANCH  39  41
ATOM     41  C   UNL     1       5.147  -6.136  27.354  0.00  0.00    +0.092 C 
ATOM     42  C   UNL     1       5.372  -5.980  26.040  0.00  0.00    +0.015 C 
BRANCH  42  43
ATOM     43  C   UNL     1       6.606  -5.407  25.529  0.00  0.00    -0.025 A 
ATOM     44  C   UNL     1       7.663  -5.275  26.437  0.00  0.00    +0.011 A 
ATOM     45  C   UNL     1       8.859  -4.691  26.040  0.00  0.00    +0.046 A 
ATOM     46  C   UNL     1       8.995  -4.249  24.732  0.00  0.00    +0.117 A 
ATOM     47  C   UNL     1       7.947  -4.358  23.820  0.00  0.00    +0.046 A 
ATOM     48  C   UNL     1       6.742  -4.943  24.220  0.00  0.00    +0.011 A 
BRANCH  46  49
ATOM     49  O   UNL     1      10.188  -3.690  24.389  0.00  0.00    -0.507 OA
ATOM     50  H   UNL     1      10.865  -4.389  24.360  0.00  0.00    +0.292 HD
ENDBRANCH  46  49
ENDBRANCH  42  43
ENDBRANCH  39  41
ENDBRANCH  38  39
ENDBRANCH  17  38
ENDBRANCH  12  13
ENDBRANCH  11  12
ENDBRANCH   4  11
BRANCH   2  51
ATOM     51  O   UNL     1       6.270   2.424  27.371  0.00  0.00    -0.453 OA
BRANCH  51  52
ATOM     52  C   UNL     1       6.070   3.489  26.462  0.00  0.00    +0.214 A 
ATOM     53  C   UNL     1       7.151   3.883  25.460  0.00  0.00    +0.238 A 
ATOM     54  O   UNL     1       8.348   3.637  25.633  0.00  0.00    -0.283 OA
ATOM     55  C   UNL     1       6.770   4.611  24.270  0.00  0.00    +0.109 A 
ATOM     56  C   UNL     1       5.621   5.362  24.368  0.00  0.00    +0.147 A 
ATOM     57  C   UNL     1       5.244   6.208  23.322  0.00  0.00    +0.092 A 
ATOM     58  C   UNL     1       6.042   6.277  22.184  0.00  0.00    +0.124 A 
ATOM     59  C   UNL     1       7.186   5.492  22.062  0.00  0.00    +0.091 A 
ATOM     60  O   UNL     1       4.841   5.335  25.487  0.00  0.00    -0.451 OA
ATOM     61  C   UNL     1       7.546   4.649  23.106  0.00  0.00    +0.135 A 
ATOM     62  C   UNL     1       4.942   4.252  26.386  0.00  0.00    +0.181 A 
BRANCH  62  63
ATOM     63  C   UNL     1       3.661   4.179  27.180  0.00  0.00    +0.025 A 
ATOM     64  C   UNL     1       3.525   5.072  28.282  0.00  0.00    +0.015 A 
ATOM     65  C   UNL     1       2.468   5.002  29.197  0.00  0.00    +0.050 A 
ATOM     66  C   UNL     1       1.485   4.059  28.998  0.00  0.00    +0.158 A 
ATOM     67  C   UNL     1       1.554   3.201  27.903  0.00  0.00    +0.159 A 
ATOM     68  C   UNL     1       2.638   3.235  27.005  0.00  0.00    +0.060 A 
BRANCH  67  69
ATOM     69  O   UNL     1       0.512   2.319  27.758  0.00  0.00    -0.503 OA
ATOM     70  H   UNL     1      -0.106   2.465  28.494  0.00  0.00    +0.292 HD
ENDBRANCH  67  69
BRANCH  66  71
ATOM     71  O   UNL     1       0.445   3.998  29.882  0.00  0.00    -0.503 OA
ATOM     72  H   UNL     1       0.762   3.420  30.603  0.00  0.00    +0.292 HD
ENDBRANCH  66  71
ENDBRANCH  62  63
BRANCH  61  73
ATOM     73  O   UNL     1       8.650   3.855  22.980  0.00  0.00    -0.506 OA
ATOM     74  H   UNL     1       8.417   2.923  23.125  0.00  0.00    +0.292 HD
ENDBRANCH  61  73
BRANCH  58  75
ATOM     75  O   UNL     1       5.746   7.105  21.143  0.00  0.00    -0.507 OA
ATOM     76  H   UNL     1       6.205   7.954  21.262  0.00  0.00    +0.292 HD
ENDBRANCH  58  75
ENDBRANCH  51  52
ENDBRANCH   2  51
BRANCH   1  77
ATOM     77  O   UNL     1       7.522   0.107  25.905  0.00  0.00    -0.337 OA
BRANCH  77  81
ATOM     78  C   UNL     1       7.905   0.891  21.792  0.00  0.00    +0.041 C 
ATOM     79  C   UNL     1       8.667  -0.273  22.442  0.00  0.00    +0.149 C 
ATOM     80  O   UNL     1       8.123  -0.647  23.729  0.00  0.00    -0.343 OA
ATOM     81  C   UNL     1       8.276   0.390  24.709  0.00  0.00    +0.282 C 
ATOM     82  C   UNL     1       9.785   0.677  24.958  0.00  0.00    +0.201 C 
ATOM     83  C   UNL     1      10.462   1.054  23.644  0.00  0.00    +0.179 C 
ATOM     84  C   UNL     1      10.176   0.013  22.560  0.00  0.00    +0.174 C 
BRANCH  82  85
ATOM     85  O   UNL     1      10.439  -0.468  25.541  0.00  0.00    -0.384 OA
ATOM     86  H   UNL     1      11.058  -0.106  26.204  0.00  0.00    +0.210 HD
ENDBRANCH  82  85
BRANCH  83  87
ATOM     87  O   UNL     1      11.876   1.165  23.871  0.00  0.00    -0.386 OA
ATOM     88  H   UNL     1      12.165   0.264  24.129  0.00  0.00    +0.210 HD
ENDBRANCH  83  87
BRANCH  84  89
ATOM     89  O   UNL     1      10.874  -1.195  22.913  0.00  0.00    -0.387 OA
ATOM     90  H   UNL     1      10.658  -1.366  23.858  0.00  0.00    +0.210 HD
ENDBRANCH  84  89
ENDBRANCH  77  81
ENDBRANCH   1  77
TORSDOF 30
ENDMDL
MODEL 7
REMARK VINA RESULT:      -4.6      1.900      4.663
REMARK  Name = 
REMARK  32 active torsions:
REMARK  status: ('A' for Active; 'I' for Inactive)
REMARK    1  A    between atoms: C_1  and  C_2
REMARK    2  A    between atoms: C_3  and  O_87
REMARK    3  A    between atoms: C_5  and  O_86
REMARK    4  A    between atoms: C_6  and  O_85
REMARK    5  A    between atoms: C_8  and  O_11
REMARK    6  A    between atoms: O_11  and  C_12
REMARK    7  A    between atoms: C_13  and  O_84
REMARK    8  A    between atoms: C_15  and  O_83
REMARK    9  A    between atoms: C_17  and  C_43
REMARK   10  A    between atoms: C_19  and  O_21
REMARK   11  A    between atoms: O_21  and  C_22
REMARK   12  A    between atoms: C_23  and  C_35
REMARK   13  A    between atoms: C_27  and  O_34
REMARK   14  A    between atoms: C_29  and  O_33
REMARK   15  A    between atoms: C_37  and  O_42
REMARK   16  A    between atoms: C_38  and  O_41
REMARK   17  A    between atoms: C_43  and  O_44
REMARK   18  A    between atoms: O_44  and  C_45
REMARK   19  A    between atoms: C_47  and  O_82
REMARK   20  A    between atoms: C_49  and  O_67
REMARK   21  A    between atoms: C_50  and  O_55
REMARK   22  A    between atoms: C_52  and  C_54
REMARK   23  A    between atoms: O_55  and  C_56
REMARK   24  A    between atoms: C_56  and  C_58
REMARK   25  A    between atoms: C_59  and  C_60
REMARK   26  A    between atoms: C_63  and  O_66
REMARK   27  A    between atoms: O_67  and  C_68
REMARK   28  A    between atoms: C_70  and  O_81
REMARK   29  A    between atoms: C_71  and  O_80
REMARK   30  A    between atoms: C_73  and  O_79
REMARK   31  A    between atoms: C_75  and  C_77
REMARK   32  A    between atoms: C_77  and  O_78
REMARK                            x       y       z     vdW  Elec       q    Type
REMARK                         _______ _______ _______ _____ _____    ______ ____
ROOT
ATOM      1  C   UNL     1       5.979  -4.632  23.696  0.00  0.00    +0.221 C 
ATOM      2  C   UNL     1       5.378  -3.211  23.939  0.00  0.00    +0.340 C 
ATOM      3  O   UNL     1       4.968  -2.658  22.664  0.00  0.00    -0.331 OA
ATOM      4  C   UNL     1       6.080  -2.511  21.724  0.00  0.00    +0.179 C 
ATOM      5  C   UNL     1       6.745  -3.856  21.408  0.00  0.00    +0.177 C 
ATOM      6  C   UNL     1       7.193  -4.486  22.737  0.00  0.00    +0.180 C 
ENDROOT
BRANCH   5   7
ATOM      7  O   UNL     1       5.836  -4.685  20.676  0.00  0.00    -0.386 OA
ATOM      8  H   UNL     1       5.914  -5.590  21.038  0.00  0.00    +0.210 HD
ENDBRANCH   5   7
BRANCH   6   9
ATOM      9  O   UNL     1       7.926  -5.694  22.500  0.00  0.00    -0.386 OA
ATOM     10  H   UNL     1       8.832  -5.444  22.254  0.00  0.00    +0.210 HD
ENDBRANCH   6   9
BRANCH   4  11
ATOM     11  C   UNL     1       7.156  -1.533  22.205  0.00  0.00    +0.197 C 
BRANCH  11  12
ATOM     12  O   UNL     1       6.806  -0.163  22.078  0.00  0.00    -0.346 OA
BRANCH  12  13
ATOM     13  C   UNL     1       7.824   0.742  21.655  0.00  0.00    +0.282 C 
ATOM     14  O   UNL     1       9.095   0.200  22.045  0.00  0.00    -0.342 OA
ATOM     15  C   UNL     1       9.175   0.022  23.470  0.00  0.00    +0.162 C 
ATOM     16  C   UNL     1      10.504  -0.666  23.783  0.00  0.00    +0.042 C 
ATOM     17  C   UNL     1       8.972   1.381  24.197  0.00  0.00    +0.236 C 
ATOM     18  C   UNL     1       7.612   2.045  23.786  0.00  0.00    +0.198 C 
ATOM     19  C   UNL     1       7.717   2.175  22.235  0.00  0.00    +0.203 C 
BRANCH  19  20
ATOM     20  O   UNL     1       6.659   2.906  21.614  0.00  0.00    -0.384 OA
ATOM     21  H   UNL     1       7.044   3.650  21.120  0.00  0.00    +0.210 HD
ENDBRANCH  19  20
BRANCH  18  22
ATOM     22  O   UNL     1       7.396   3.284  24.479  0.00  0.00    -0.339 OA
BRANCH  22  23
ATOM     23  C   UNL     1       8.541   4.042  24.935  0.00  0.00    +0.282 C 
ATOM     24  O   UNL     1       8.416   4.157  26.372  0.00  0.00    -0.341 OA
ATOM     25  C   UNL     1       7.233   4.894  26.724  0.00  0.00    +0.178 C 
ATOM     26  C   UNL     1       7.324   6.374  26.289  0.00  0.00    +0.177 C 
ATOM     27  C   UNL     1       7.714   6.481  24.806  0.00  0.00    +0.179 C 
ATOM     28  C   UNL     1       8.813   5.491  24.410  0.00  0.00    +0.201 C 
BRANCH  26  29
ATOM     29  O   UNL     1       8.280   7.107  27.048  0.00  0.00    -0.386 OA
ATOM     30  H   UNL     1       8.176   8.056  26.838  0.00  0.00    +0.210 HD
ENDBRANCH  26  29
BRANCH  27  31
ATOM     31  O   UNL     1       6.621   6.266  23.894  0.00  0.00    -0.386 OA
ATOM     32  H   UNL     1       6.760   6.792  23.093  0.00  0.00    +0.210 HD
ENDBRANCH  27  31
BRANCH  28  33
ATOM     33  O   UNL     1       8.993   5.635  23.000  0.00  0.00    -0.384 OA
ATOM     34  H   UNL     1       9.142   6.596  22.865  0.00  0.00    +0.210 HD
ENDBRANCH  28  33
BRANCH  25  35
ATOM     35  C   UNL     1       6.931   4.624  28.204  0.00  0.00    +0.190 C 
BRANCH  35  36
ATOM     36  O   UNL     1       7.150   3.293  28.644  0.00  0.00    -0.392 OA
ATOM     37  H   UNL     1       7.885   3.327  29.283  0.00  0.00    +0.210 HD
ENDBRANCH  35  36
ENDBRANCH  25  35
ENDBRANCH  22  23
ENDBRANCH  18  22
BRANCH  17  38
ATOM     38  O   UNL     1       9.207   1.334  25.611  0.00  0.00    -0.453 OA
BRANCH  38  39
ATOM     39  C   UNL     1       8.395   0.672  26.456  0.00  0.00    +0.332 C 
ATOM     40  O   UNL     1       7.443   1.120  27.067  0.00  0.00    -0.246 OA
BRANCH  39  41
ATOM     41  C   UNL     1       8.831  -0.739  26.543  0.00  0.00    +0.092 C 
ATOM     42  C   UNL     1       7.936  -1.737  26.615  0.00  0.00    +0.015 C 
BRANCH  42  43
ATOM     43  C   UNL     1       8.300  -3.122  26.364  0.00  0.00    -0.025 A 
ATOM     44  C   UNL     1       9.424  -3.342  25.559  0.00  0.00    +0.011 A 
ATOM     45  C   UNL     1       9.808  -4.636  25.231  0.00  0.00    +0.046 A 
ATOM     46  C   UNL     1       9.070  -5.705  25.718  0.00  0.00    +0.117 A 
ATOM     47  C   UNL     1       7.938  -5.503  26.506  0.00  0.00    +0.046 A 
ATOM     48  C   UNL     1       7.550  -4.200  26.834  0.00  0.00    +0.011 A 
BRANCH  46  49
ATOM     49  O   UNL     1       9.490  -6.954  25.375  0.00  0.00    -0.507 OA
ATOM     50  H   UNL     1       9.276  -7.110  24.438  0.00  0.00    +0.292 HD
ENDBRANCH  46  49
ENDBRANCH  42  43
ENDBRANCH  39  41
ENDBRANCH  38  39
ENDBRANCH  17  38
ENDBRANCH  12  13
ENDBRANCH  11  12
ENDBRANCH   4  11
BRANCH   2  51
ATOM     51  O   UNL     1       4.338  -3.212  24.974  0.00  0.00    -0.453 OA
BRANCH  51  52
ATOM     52  C   UNL     1       4.358  -2.109  25.860  0.00  0.00    +0.214 A 
ATOM     53  C   UNL     1       4.816  -0.730  25.393  0.00  0.00    +0.238 A 
ATOM     54  O   UNL     1       5.564  -0.565  24.426  0.00  0.00    -0.283 OA
ATOM     55  C   UNL     1       4.389   0.436  26.134  0.00  0.00    +0.109 A 
ATOM     56  C   UNL     1       4.088   0.229  27.460  0.00  0.00    +0.147 A 
ATOM     57  C   UNL     1       3.801   1.313  28.292  0.00  0.00    +0.092 A 
ATOM     58  C   UNL     1       3.820   2.599  27.762  0.00  0.00    +0.124 A 
ATOM     59  C   UNL     1       4.087   2.814  26.412  0.00  0.00    +0.091 A 
ATOM     60  O   UNL     1       4.095  -1.020  28.009  0.00  0.00    -0.451 OA
ATOM     61  C   UNL     1       4.364   1.727  25.593  0.00  0.00    +0.135 A 
ATOM     62  C   UNL     1       3.993  -2.154  27.175  0.00  0.00    +0.181 A 
BRANCH  62  63
ATOM     63  C   UNL     1       3.480  -3.305  28.005  0.00  0.00    +0.025 A 
ATOM     64  C   UNL     1       4.324  -3.782  29.050  0.00  0.00    +0.015 A 
ATOM     65  C   UNL     1       4.048  -4.939  29.786  0.00  0.00    +0.050 A 
ATOM     66  C   UNL     1       2.883  -5.625  29.527  0.00  0.00    +0.158 A 
ATOM     67  C   UNL     1       2.006  -5.162  28.548  0.00  0.00    +0.159 A 
ATOM     68  C   UNL     1       2.299  -4.025  27.771  0.00  0.00    +0.060 A 
BRANCH  67  69
ATOM     69  O   UNL     1       0.849  -5.881  28.382  0.00  0.00    -0.503 OA
ATOM     70  H   UNL     1       1.096  -6.802  28.190  0.00  0.00    +0.292 HD
ENDBRANCH  67  69
BRANCH  66  71
ATOM     71  O   UNL     1       2.605  -6.747  30.254  0.00  0.00    -0.503 OA
ATOM     72  H   UNL     1       3.461  -7.013  30.642  0.00  0.00    +0.292 HD
ENDBRANCH  66  71
ENDBRANCH  62  63
BRANCH  61  73
ATOM     73  O   UNL     1       4.597   1.928  24.262  0.00  0.00    -0.506 OA
ATOM     74  H   UNL     1       4.505   1.095  23.770  0.00  0.00    +0.292 HD
ENDBRANCH  61  73
BRANCH  58  75
ATOM     75  O   UNL     1       3.579   3.700  28.528  0.00  0.00    -0.507 OA
ATOM     76  H   UNL     1       3.177   4.396  27.980  0.00  0.00    +0.292 HD
ENDBRANCH  58  75
ENDBRANCH  51  52
ENDBRANCH   2  51
BRANCH   1  77
ATOM     77  O   UNL     1       4.986  -5.585  23.233  0.00  0.00    -0.337 OA
BRANCH  77  81
ATOM     78  C   UNL     1       4.488  -6.964  27.174  0.00  0.00    +0.041 C 
ATOM     79  C   UNL     1       4.117  -7.855  25.979  0.00  0.00    +0.149 C 
ATOM     80  O   UNL     1       4.716  -7.406  24.741  0.00  0.00    -0.343 OA
ATOM     81  C   UNL     1       4.215  -6.128  24.323  0.00  0.00    +0.282 C 
ATOM     82  C   UNL     1       2.686  -6.215  24.044  0.00  0.00    +0.201 C 
ATOM     83  C   UNL     1       1.961  -6.713  25.290  0.00  0.00    +0.179 C 
ATOM     84  C   UNL     1       2.594  -8.004  25.814  0.00  0.00    +0.174 C 
BRANCH  82  85
ATOM     85  O   UNL     1       2.414  -7.089  22.930  0.00  0.00    -0.384 OA
ATOM     86  H   UNL     1       2.532  -7.995  23.275  0.00  0.00    +0.210 HD
ENDBRANCH  82  85
BRANCH  83  87
ATOM     87  O   UNL     1       0.579  -6.929  24.962  0.00  0.00    -0.386 OA
ATOM     88  H   UNL     1       0.493  -6.652  24.026  0.00  0.00    +0.210 HD
ENDBRANCH  83  87
BRANCH  84  89
ATOM     89  O   UNL     1       2.306  -9.051  24.871  0.00  0.00    -0.387 OA
ATOM     90  H   UNL     1       2.441  -8.657  23.979  0.00  0.00    +0.210 HD
ENDBRANCH  84  89
ENDBRANCH  77  81
ENDBRANCH   1  77
TORSDOF 30
ENDMDL
MODEL 8
REMARK VINA RESULT:      -4.5      2.776      4.551
REMARK  Name = 
REMARK  32 active torsions:
REMARK  status: ('A' for Active; 'I' for Inactive)
REMARK    1  A    between atoms: C_1  and  C_2
REMARK    2  A    between atoms: C_3  and  O_87
REMARK    3  A    between atoms: C_5  and  O_86
REMARK    4  A    between atoms: C_6  and  O_85
REMARK    5  A    between atoms: C_8  and  O_11
REMARK    6  A    between atoms: O_11  and  C_12
REMARK    7  A    between atoms: C_13  and  O_84
REMARK    8  A    between atoms: C_15  and  O_83
REMARK    9  A    between atoms: C_17  and  C_43
REMARK   10  A    between atoms: C_19  and  O_21
REMARK   11  A    between atoms: O_21  and  C_22
REMARK   12  A    between atoms: C_23  and  C_35
REMARK   13  A    between atoms: C_27  and  O_34
REMARK   14  A    between atoms: C_29  and  O_33
REMARK   15  A    between atoms: C_37  and  O_42
REMARK   16  A    between atoms: C_38  and  O_41
REMARK   17  A    between atoms: C_43  and  O_44
REMARK   18  A    between atoms: O_44  and  C_45
REMARK   19  A    between atoms: C_47  and  O_82
REMARK   20  A    between atoms: C_49  and  O_67
REMARK   21  A    between atoms: C_50  and  O_55
REMARK   22  A    between atoms: C_52  and  C_54
REMARK   23  A    between atoms: O_55  and  C_56
REMARK   24  A    between atoms: C_56  and  C_58
REMARK   25  A    between atoms: C_59  and  C_60
REMARK   26  A    between atoms: C_63  and  O_66
REMARK   27  A    between atoms: O_67  and  C_68
REMARK   28  A    between atoms: C_70  and  O_81
REMARK   29  A    between atoms: C_71  and  O_80
REMARK   30  A    between atoms: C_73  and  O_79
REMARK   31  A    between atoms: C_75  and  C_77
REMARK   32  A    between atoms: C_77  and  O_78
REMARK                            x       y       z     vdW  Elec       q    Type
REMARK                         _______ _______ _______ _____ _____    ______ ____
ROOT
ATOM      1  C   UNL     1       7.671  -3.429  25.188  0.00  0.00    +0.221 C 
ATOM      2  C   UNL     1       6.751  -2.171  25.303  0.00  0.00    +0.340 C 
ATOM      3  O   UNL     1       6.183  -1.893  24.000  0.00  0.00    -0.331 OA
ATOM      4  C   UNL     1       7.197  -1.605  22.986  0.00  0.00    +0.179 C 
ATOM      5  C   UNL     1       8.160  -2.782  22.786  0.00  0.00    +0.177 C 
ATOM      6  C   UNL     1       8.785  -3.118  24.149  0.00  0.00    +0.180 C 
ENDROOT
BRANCH   5   7
ATOM      7  O   UNL     1       7.457  -3.886  22.206  0.00  0.00    -0.386 OA
ATOM      8  H   UNL     1       7.885  -4.082  21.349  0.00  0.00    +0.210 HD
ENDBRANCH   5   7
BRANCH   6   9
ATOM      9  O   UNL     1       9.782  -4.137  24.008  0.00  0.00    -0.386 OA
ATOM     10  H   UNL     1       9.338  -4.942  23.694  0.00  0.00    +0.210 HD
ENDBRANCH   6   9
BRANCH   4  11
ATOM     11  C   UNL     1       8.017  -0.347  23.290  0.00  0.00    +0.197 C 
BRANCH  11  12
ATOM     12  O   UNL     1       7.387   0.871  22.925  0.00  0.00    -0.346 OA
BRANCH  12  13
ATOM     13  C   UNL     1       8.013   1.662  21.917  0.00  0.00    +0.282 C 
ATOM     14  O   UNL     1       9.308   2.056  22.397  0.00  0.00    -0.342 OA
ATOM     15  C   UNL     1       9.206   2.821  23.612  0.00  0.00    +0.162 C 
ATOM     16  C   UNL     1      10.624   3.093  24.114  0.00  0.00    +0.042 C 
ATOM     17  C   UNL     1       8.355   4.099  23.376  0.00  0.00    +0.236 C 
ATOM     18  C   UNL     1       6.935   3.738  22.816  0.00  0.00    +0.198 C 
ATOM     19  C   UNL     1       7.243   2.944  21.510  0.00  0.00    +0.203 C 
BRANCH  19  20
ATOM     20  O   UNL     1       6.105   2.630  20.708  0.00  0.00    -0.384 OA
ATOM     21  H   UNL     1       5.910   1.681  20.802  0.00  0.00    +0.210 HD
ENDBRANCH  19  20
BRANCH  18  22
ATOM     22  O   UNL     1       6.125   4.910  22.629  0.00  0.00    -0.339 OA
BRANCH  22  23
ATOM     23  C   UNL     1       5.209   5.305  23.676  0.00  0.00    +0.282 C 
ATOM     24  O   UNL     1       5.020   4.145  24.521  0.00  0.00    -0.341 OA
ATOM     25  C   UNL     1       4.410   3.071  23.785  0.00  0.00    +0.178 C 
ATOM     26  C   UNL     1       2.960   3.408  23.371  0.00  0.00    +0.177 C 
ATOM     27  C   UNL     1       2.899   4.770  22.662  0.00  0.00    +0.179 C 
ATOM     28  C   UNL     1       3.773   5.829  23.340  0.00  0.00    +0.201 C 
BRANCH  26  29
ATOM     29  O   UNL     1       2.072   3.452  24.483  0.00  0.00    -0.386 OA
ATOM     30  H   UNL     1       1.275   2.932  24.260  0.00  0.00    +0.210 HD
ENDBRANCH  26  29
BRANCH  27  31
ATOM     31  O   UNL     1       3.300   4.732  21.280  0.00  0.00    -0.386 OA
ATOM     32  H   UNL     1       4.105   4.201  21.190  0.00  0.00    +0.210 HD
ENDBRANCH  27  31
BRANCH  28  33
ATOM     33  O   UNL     1       3.697   6.996  22.519  0.00  0.00    -0.384 OA
ATOM     34  H   UNL     1       3.836   6.666  21.605  0.00  0.00    +0.210 HD
ENDBRANCH  28  33
BRANCH  25  35
ATOM     35  C   UNL     1       4.622   1.775  24.578  0.00  0.00    +0.190 C 
BRANCH  35  36
ATOM     36  O   UNL     1       3.975   1.712  25.839  0.00  0.00    -0.392 OA
ATOM     37  H   UNL     1       4.586   2.111  26.486  0.00  0.00    +0.210 HD
ENDBRANCH  35  36
ENDBRANCH  25  35
ENDBRANCH  22  23
ENDBRANCH  18  22
BRANCH  17  38
ATOM     38  O   UNL     1       8.342   5.012  24.483  0.00  0.00    -0.453 OA
BRANCH  38  39
ATOM     39  C   UNL     1       8.549   6.333  24.332  0.00  0.00    +0.332 C 
ATOM     40  O   UNL     1       7.902   7.108  23.652  0.00  0.00    -0.246 OA
BRANCH  39  41
ATOM     41  C   UNL     1       9.719   6.738  25.142  0.00  0.00    +0.092 C 
ATOM     42  C   UNL     1       9.596   6.999  26.453  0.00  0.00    +0.015 C 
BRANCH  42  43
ATOM     43  C   UNL     1      10.746   7.065  27.339  0.00  0.00    -0.025 A 
ATOM     44  C   UNL     1      12.010   7.033  26.736  0.00  0.00    +0.011 A 
ATOM     45  C   UNL     1      13.158   7.042  27.517  0.00  0.00    +0.046 A 
ATOM     46  C   UNL     1      13.039   7.093  28.898  0.00  0.00    +0.117 A 
ATOM     47  C   UNL     1      11.788   7.108  29.515  0.00  0.00    +0.046 A 
ATOM     48  C   UNL     1      10.632   7.096  28.730  0.00  0.00    +0.011 A 
BRANCH  46  49
ATOM     49  O   UNL     1      14.193   7.107  29.619  0.00  0.00    -0.507 OA
ATOM     50  H   UNL     1      14.311   7.992  30.006  0.00  0.00    +0.292 HD
ENDBRANCH  46  49
ENDBRANCH  42  43
ENDBRANCH  39  41
ENDBRANCH  38  39
ENDBRANCH  17  38
ENDBRANCH  12  13
ENDBRANCH  11  12
ENDBRANCH   4  11
BRANCH   2  51
ATOM     51  O   UNL     1       5.772  -2.291  26.390  0.00  0.00    -0.453 OA
BRANCH  51  52
ATOM     52  C   UNL     1       5.698  -1.185  27.268  0.00  0.00    +0.214 A 
ATOM     53  C   UNL     1       6.758  -0.088  27.247  0.00  0.00    +0.238 A 
ATOM     54  O   UNL     1       7.903  -0.271  26.824  0.00  0.00    -0.283 OA
ATOM     55  C   UNL     1       6.428   1.215  27.778  0.00  0.00    +0.109 A 
ATOM     56  C   UNL     1       5.436   1.242  28.732  0.00  0.00    +0.147 A 
ATOM     57  C   UNL     1       5.140   2.430  29.404  0.00  0.00    +0.092 A 
ATOM     58  C   UNL     1       5.857   3.581  29.094  0.00  0.00    +0.124 A 
ATOM     59  C   UNL     1       6.835   3.571  28.103  0.00  0.00    +0.091 A 
ATOM     60  O   UNL     1       4.743   0.118  29.075  0.00  0.00    -0.451 OA
ATOM     61  C   UNL     1       7.116   2.385  27.436  0.00  0.00    +0.135 A 
ATOM     62  C   UNL     1       4.716  -0.986  28.196  0.00  0.00    +0.181 A 
BRANCH  62  63
ATOM     63  C   UNL     1       3.500  -1.817  28.522  0.00  0.00    +0.025 A 
ATOM     64  C   UNL     1       3.417  -2.365  29.835  0.00  0.00    +0.015 A 
ATOM     65  C   UNL     1       2.434  -3.282  30.220  0.00  0.00    +0.050 A 
ATOM     66  C   UNL     1       1.470  -3.639  29.304  0.00  0.00    +0.158 A 
ATOM     67  C   UNL     1       1.486  -3.087  28.025  0.00  0.00    +0.159 A 
ATOM     68  C   UNL     1       2.499  -2.199  27.616  0.00  0.00    +0.060 A 
BRANCH  67  69
ATOM     69  O   UNL     1       0.466  -3.466  27.189  0.00  0.00    -0.503 OA
ATOM     70  H   UNL     1      -0.252  -3.826  27.738  0.00  0.00    +0.292 HD
ENDBRANCH  67  69
BRANCH  66  71
ATOM     71  O   UNL     1       0.500  -4.525  29.682  0.00  0.00    -0.503 OA
ATOM     72  H   UNL     1       0.911  -5.060  30.389  0.00  0.00    +0.292 HD
ENDBRANCH  66  71
ENDBRANCH  62  63
BRANCH  61  73
ATOM     73  O   UNL     1       8.054   2.376  26.444  0.00  0.00    -0.506 OA
ATOM     74  H   UNL     1       8.086   3.239  25.998  0.00  0.00    +0.292 HD
ENDBRANCH  61  73
BRANCH  58  75
ATOM     75  O   UNL     1       5.638   4.763  29.735  0.00  0.00    -0.507 OA
ATOM     76  H   UNL     1       6.384   5.365  29.574  0.00  0.00    +0.292 HD
ENDBRANCH  58  75
ENDBRANCH  51  52
ENDBRANCH   2  51
BRANCH   1  77
ATOM     77  O   UNL     1       6.926  -4.639  24.893  0.00  0.00    -0.337 OA
BRANCH  77  81
ATOM     78  C   UNL     1       5.605  -4.997  28.870  0.00  0.00    +0.041 C 
ATOM     79  C   UNL     1       5.478  -6.175  27.892  0.00  0.00    +0.149 C 
ATOM     80  O   UNL     1       6.326  -6.030  26.729  0.00  0.00    -0.343 OA
ATOM     81  C   UNL     1       5.939  -4.920  25.906  0.00  0.00    +0.282 C 
ATOM     82  C   UNL     1       4.500  -5.137  25.353  0.00  0.00    +0.201 C 
ATOM     83  C   UNL     1       3.526  -5.333  26.511  0.00  0.00    +0.179 C 
ATOM     84  C   UNL     1       4.020  -6.423  27.464  0.00  0.00    +0.174 C 
BRANCH  82  85
ATOM     85  O   UNL     1       4.453  -6.275  24.468  0.00  0.00    -0.384 OA
ATOM     86  H   UNL     1       3.535  -6.603  24.514  0.00  0.00    +0.210 HD
ENDBRANCH  82  85
BRANCH  83  87
ATOM     87  O   UNL     1       2.240  -5.681  25.975  0.00  0.00    -0.386 OA
ATOM     88  H   UNL     1       1.924  -6.425  26.532  0.00  0.00    +0.210 HD
ENDBRANCH  83  87
BRANCH  84  89
ATOM     89  O   UNL     1       3.920  -7.685  26.782  0.00  0.00    -0.387 OA
ATOM     90  H   UNL     1       4.845  -7.984  26.628  0.00  0.00    +0.210 HD
ENDBRANCH  84  89
ENDBRANCH  77  81
ENDBRANCH   1  77
TORSDOF 30
ENDMDL
MODEL 9
REMARK VINA RESULT:      -4.4      2.482      5.140
REMARK  Name = 
REMARK  32 active torsions:
REMARK  status: ('A' for Active; 'I' for Inactive)
REMARK    1  A    between atoms: C_1  and  C_2
REMARK    2  A    between atoms: C_3  and  O_87
REMARK    3  A    between atoms: C_5  and  O_86
REMARK    4  A    between atoms: C_6  and  O_85
REMARK    5  A    between atoms: C_8  and  O_11
REMARK    6  A    between atoms: O_11  and  C_12
REMARK    7  A    between atoms: C_13  and  O_84
REMARK    8  A    between atoms: C_15  and  O_83
REMARK    9  A    between atoms: C_17  and  C_43
REMARK   10  A    between atoms: C_19  and  O_21
REMARK   11  A    between atoms: O_21  and  C_22
REMARK   12  A    between atoms: C_23  and  C_35
REMARK   13  A    between atoms: C_27  and  O_34
REMARK   14  A    between atoms: C_29  and  O_33
REMARK   15  A    between atoms: C_37  and  O_42
REMARK   16  A    between atoms: C_38  and  O_41
REMARK   17  A    between atoms: C_43  and  O_44
REMARK   18  A    between atoms: O_44  and  C_45
REMARK   19  A    between atoms: C_47  and  O_82
REMARK   20  A    between atoms: C_49  and  O_67
REMARK   21  A    between atoms: C_50  and  O_55
REMARK   22  A    between atoms: C_52  and  C_54
REMARK   23  A    between atoms: O_55  and  C_56
REMARK   24  A    between atoms: C_56  and  C_58
REMARK   25  A    between atoms: C_59  and  C_60
REMARK   26  A    between atoms: C_63  and  O_66
REMARK   27  A    between atoms: O_67  and  C_68
REMARK   28  A    between atoms: C_70  and  O_81
REMARK   29  A    between atoms: C_71  and  O_80
REMARK   30  A    between atoms: C_73  and  O_79
REMARK   31  A    between atoms: C_75  and  C_77
REMARK   32  A    between atoms: C_77  and  O_78
REMARK                            x       y       z     vdW  Elec       q    Type
REMARK                         _______ _______ _______ _____ _____    ______ ____
ROOT
ATOM      1  C   UNL     1       7.760  -3.028  25.170  0.00  0.00    +0.221 C 
ATOM      2  C   UNL     1       6.501  -2.141  25.431  0.00  0.00    +0.340 C 
ATOM      3  O   UNL     1       5.724  -2.070  24.210  0.00  0.00    -0.331 OA
ATOM      4  C   UNL     1       6.463  -1.469  23.100  0.00  0.00    +0.179 C 
ATOM      5  C   UNL     1       7.725  -2.266  22.753  0.00  0.00    +0.177 C 
ATOM      6  C   UNL     1       8.582  -2.374  24.024  0.00  0.00    +0.180 C 
ENDROOT
BRANCH   5   7
ATOM      7  O   UNL     1       7.358  -3.542  22.217  0.00  0.00    -0.386 OA
ATOM      8  H   UNL     1       8.187  -4.035  22.051  0.00  0.00    +0.210 HD
ENDBRANCH   5   7
BRANCH   6   9
ATOM      9  O   UNL     1       9.833  -3.010  23.737  0.00  0.00    -0.386 OA
ATOM     10  H   UNL     1      10.456  -2.762  24.439  0.00  0.00    +0.210 HD
ENDBRANCH   6   9
BRANCH   4  11
ATOM     11  C   UNL     1       6.858  -0.010  23.354  0.00  0.00    +0.197 C 
BRANCH  11  12
ATOM     12  O   UNL     1       5.763   0.879  23.511  0.00  0.00    -0.346 OA
BRANCH  12  13
ATOM     13  C   UNL     1       5.698   2.008  22.643  0.00  0.00    +0.282 C 
ATOM     14  O   UNL     1       6.992   2.630  22.620  0.00  0.00    -0.342 OA
ATOM     15  C   UNL     1       7.390   3.059  23.935  0.00  0.00    +0.162 C 
ATOM     16  C   UNL     1       8.818   3.597  23.840  0.00  0.00    +0.042 C 
ATOM     17  C   UNL     1       6.362   4.075  24.506  0.00  0.00    +0.236 C 
ATOM     18  C   UNL     1       4.916   3.466  24.525  0.00  0.00    +0.198 C 
ATOM     19  C   UNL     1       4.656   3.085  23.035  0.00  0.00    +0.203 C 
BRANCH  19  20
ATOM     20  O   UNL     1       3.328   2.649  22.743  0.00  0.00    -0.384 OA
ATOM     21  H   UNL     1       3.037   2.045  23.448  0.00  0.00    +0.210 HD
ENDBRANCH  19  20
BRANCH  18  22
ATOM     22  O   UNL     1       3.962   4.382  25.085  0.00  0.00    -0.339 OA
BRANCH  22  23
ATOM     23  C   UNL     1       3.791   4.427  26.521  0.00  0.00    +0.282 C 
ATOM     24  O   UNL     1       3.067   3.229  26.889  0.00  0.00    -0.341 OA
ATOM     25  C   UNL     1       1.759   3.219  26.291  0.00  0.00    +0.178 C 
ATOM     26  C   UNL     1       0.855   4.333  26.864  0.00  0.00    +0.177 C 
ATOM     27  C   UNL     1       1.564   5.695  26.803  0.00  0.00    +0.179 C 
ATOM     28  C   UNL     1       3.038   5.613  27.210  0.00  0.00    +0.201 C 
BRANCH  26  29
ATOM     29  O   UNL     1       0.485   4.092  28.218  0.00  0.00    -0.386 OA
ATOM     30  H   UNL     1      -0.491   4.055  28.268  0.00  0.00    +0.210 HD
ENDBRANCH  26  29
BRANCH  27  31
ATOM     31  O   UNL     1       1.531   6.317  25.505  0.00  0.00    -0.386 OA
ATOM     32  H   UNL     1       2.334   6.088  25.015  0.00  0.00    +0.210 HD
ENDBRANCH  27  31
BRANCH  28  33
ATOM     33  O   UNL     1       3.583   6.918  27.005  0.00  0.00    -0.384 OA
ATOM     34  H   UNL     1       3.382   7.127  26.067  0.00  0.00    +0.210 HD
ENDBRANCH  28  33
BRANCH  25  35
ATOM     35  C   UNL     1       1.220   1.785  26.358  0.00  0.00    +0.190 C 
BRANCH  35  36
ATOM     36  O   UNL     1       2.194   0.769  26.536  0.00  0.00    -0.392 OA
ATOM     37  H   UNL     1       2.328   0.354  25.664  0.00  0.00    +0.210 HD
ENDBRANCH  35  36
ENDBRANCH  25  35
ENDBRANCH  22  23
ENDBRANCH  18  22
BRANCH  17  38
ATOM     38  O   UNL     1       6.763   4.690  25.738  0.00  0.00    -0.453 OA
BRANCH  38  39
ATOM     39  C   UNL     1       7.088   5.993  25.822  0.00  0.00    +0.332 C 
ATOM     40  O   UNL     1       6.527   6.853  26.474  0.00  0.00    -0.246 OA
BRANCH  39  41
ATOM     41  C   UNL     1       8.276   6.253  24.979  0.00  0.00    +0.092 C 
ATOM     42  C   UNL     1       9.463   6.553  25.529  0.00  0.00    +0.015 C 
BRANCH  42  43
ATOM     43  C   UNL     1      10.705   6.481  24.776  0.00  0.00    -0.025 A 
ATOM     44  C   UNL     1      10.638   5.902  23.503  0.00  0.00    +0.011 A 
ATOM     45  C   UNL     1      11.789   5.751  22.741  0.00  0.00    +0.046 A 
ATOM     46  C   UNL     1      13.002   6.189  23.252  0.00  0.00    +0.117 A 
ATOM     47  C   UNL     1      13.089   6.752  24.525  0.00  0.00    +0.046 A 
ATOM     48  C   UNL     1      11.931   6.901  25.294  0.00  0.00    +0.011 A 
BRANCH  46  49
ATOM     49  O   UNL     1      14.100   6.026  22.465  0.00  0.00    -0.507 OA
ATOM     50  H   UNL     1      14.638   5.298  22.824  0.00  0.00    +0.292 HD
ENDBRANCH  46  49
ENDBRANCH  42  43
ENDBRANCH  39  41
ENDBRANCH  38  39
ENDBRANCH  17  38
ENDBRANCH  12  13
ENDBRANCH  11  12
ENDBRANCH   4  11
BRANCH   2  51
ATOM     51  O   UNL     1       5.750  -2.570  26.617  0.00  0.00    -0.453 OA
BRANCH  51  52
ATOM     52  C   UNL     1       5.481  -1.559  27.568  0.00  0.00    +0.214 A 
ATOM     53  C   UNL     1       6.423  -0.372  27.745  0.00  0.00    +0.238 A 
ATOM     54  O   UNL     1       7.616  -0.411  27.430  0.00  0.00    -0.283 OA
ATOM     55  C   UNL     1       5.915   0.842  28.341  0.00  0.00    +0.109 A 
ATOM     56  C   UNL     1       4.839   0.692  29.186  0.00  0.00    +0.147 A 
ATOM     57  C   UNL     1       4.362   1.783  29.917  0.00  0.00    +0.092 A 
ATOM     58  C   UNL     1       4.987   3.018  29.776  0.00  0.00    +0.124 A 
ATOM     59  C   UNL     1       6.051   3.187  28.895  0.00  0.00    +0.091 A 
ATOM     60  O   UNL     1       4.232  -0.516  29.364  0.00  0.00    -0.451 OA
ATOM     61  C   UNL     1       6.512   2.097  28.168  0.00  0.00    +0.135 A 
ATOM     62  C   UNL     1       4.400  -1.535  28.402  0.00  0.00    +0.181 A 
BRANCH  62  63
ATOM     63  C   UNL     1       3.248  -2.500  28.532  0.00  0.00    +0.025 A 
ATOM     64  C   UNL     1       3.127  -3.209  29.762  0.00  0.00    +0.015 A 
ATOM     65  C   UNL     1       2.210  -4.248  29.959  0.00  0.00    +0.050 A 
ATOM     66  C   UNL     1       1.349  -4.570  28.935  0.00  0.00    +0.158 A 
ATOM     67  C   UNL     1       1.400  -3.866  27.733  0.00  0.00    +0.159 A 
ATOM     68  C   UNL     1       2.351  -2.852  27.512  0.00  0.00    +0.060 A 
BRANCH  67  69
ATOM     69  O   UNL     1       0.480  -4.225  26.781  0.00  0.00    -0.503 OA
ATOM     70  H   UNL     1       0.359  -3.467  26.183  0.00  0.00    +0.292 HD
ENDBRANCH  67  69
BRANCH  66  71
ATOM     71  O   UNL     1       0.443  -5.574  29.130  0.00  0.00    -0.503 OA
ATOM     72  H   UNL     1      -0.339  -5.313  28.605  0.00  0.00    +0.292 HD
ENDBRANCH  66  71
ENDBRANCH  62  63
BRANCH  61  73
ATOM     73  O   UNL     1       7.537   2.263  27.280  0.00  0.00    -0.506 OA
ATOM     74  H   UNL     1       7.203   2.244  26.368  0.00  0.00    +0.292 HD
ENDBRANCH  61  73
BRANCH  58  75
ATOM     75  O   UNL     1       4.589   4.113  30.484  0.00  0.00    -0.507 OA
ATOM     76  H   UNL     1       5.170   4.864  30.275  0.00  0.00    +0.292 HD
ENDBRANCH  58  75
ENDBRANCH  51  52
ENDBRANCH   2  51
BRANCH   1  77
ATOM     77  O   UNL     1       7.421  -4.417  24.919  0.00  0.00    -0.337 OA
BRANCH  77  81
ATOM     78  C   UNL     1       5.661  -5.275  28.640  0.00  0.00    +0.041 C 
ATOM     79  C   UNL     1       5.745  -6.350  27.547  0.00  0.00    +0.149 C 
ATOM     80  O   UNL     1       6.713  -6.028  26.521  0.00  0.00    -0.343 OA
ATOM     81  C   UNL     1       6.344  -4.866  25.765  0.00  0.00    +0.282 C 
ATOM     82  C   UNL     1       5.004  -5.118  25.013  0.00  0.00    +0.201 C 
ATOM     83  C   UNL     1       3.915  -5.497  26.013  0.00  0.00    +0.179 C 
ATOM     84  C   UNL     1       4.373  -6.646  26.913  0.00  0.00    +0.174 C 
BRANCH  82  85
ATOM     85  O   UNL     1       5.153  -6.157  24.026  0.00  0.00    -0.384 OA
ATOM     86  H   UNL     1       5.959  -5.927  23.524  0.00  0.00    +0.210 HD
ENDBRANCH  82  85
BRANCH  83  87
ATOM     87  O   UNL     1       2.734  -5.871  25.286  0.00  0.00    -0.386 OA
ATOM     88  H   UNL     1       3.060  -6.378  24.512  0.00  0.00    +0.210 HD
ENDBRANCH  83  87
BRANCH  84  89
ATOM     89  O   UNL     1       4.455  -7.834  26.106  0.00  0.00    -0.387 OA
ATOM     90  H   UNL     1       4.044  -8.552  26.638  0.00  0.00    +0.210 HD
ENDBRANCH  84  89
ENDBRANCH  77  81
ENDBRANCH   1  77
TORSDOF 30
ENDMDL
