MODEL 1
REMARK VINA RESULT:      -8.2      0.000      0.000
REMARK  Name = 
REMARK  13 active torsions:
REMARK  status: ('A' for Active; 'I' for Inactive)
REMARK    1  A    between atoms: C_4  and  C_7
REMARK    2  A    between atoms: C_7  and  C_39
REMARK    3  A    between atoms: C_13  and  C_16
REMARK    4  A    between atoms: C_17  and  O_29
REMARK    5  A    between atoms: C_21  and  O_28
REMARK    6  A    between atoms: C_23  and  O_27
REMARK    7  A    between atoms: O_29  and  C_30
REMARK    8  A    between atoms: C_30  and  C_31
REMARK    9  A    between atoms: C_31  and  C_32
REMARK   10  A    between atoms: C_32  and  C_33
REMARK   11  A    between atoms: C_33  and  C_34
REMARK   12  A    between atoms: C_34  and  C_35
REMARK   13  A    between atoms: C_35  and  N_36
REMARK                            x       y       z     vdW  Elec       q    Type
REMARK                         _______ _______ _______ _____ _____    ______ ____
ROOT
ATOM      1  C   UNL     1       6.488  -1.439  24.203  0.00  0.00    +0.181 A 
ATOM      2  O   UNL     1       5.380  -1.921  24.927  0.00  0.00    -0.451 OA
ATOM      3  C   UNL     1       4.692  -3.013  24.452  0.00  0.00    +0.147 A 
ATOM      4  C   UNL     1       5.181  -3.811  23.429  0.00  0.00    +0.109 A 
ATOM      5  C   UNL     1       4.473  -4.931  22.976  0.00  0.00    +0.135 A 
ATOM      6  C   UNL     1       3.259  -5.265  23.552  0.00  0.00    +0.091 A 
ATOM      7  C   UNL     1       2.765  -4.465  24.577  0.00  0.00    +0.124 A 
ATOM      8  C   UNL     1       6.458  -3.456  22.836  0.00  0.00    +0.238 A 
ATOM      9  O   UNL     1       6.990  -4.275  22.086  0.00  0.00    -0.283 OA
ATOM     10  C   UNL     1       3.466  -3.342  25.031  0.00  0.00    +0.092 A 
ATOM     11  C   UNL     1       7.010  -2.110  23.134  0.00  0.00    +0.211 A 
ENDROOT
BRANCH   1  16
ATOM     12  C   UNL     1       8.379   4.189  24.185  0.00  0.00    +0.308 C 
ATOM     13  O   UNL     1       8.313   3.006  23.352  0.00  0.00    -0.440 OA
ATOM     14  C   UNL     1       7.909   2.062  24.235  0.00  0.00    +0.168 A 
ATOM     15  C   UNL     1       7.706   0.751  23.876  0.00  0.00    +0.061 A 
ATOM     16  C   UNL     1       6.956  -0.091  24.700  0.00  0.00    +0.025 A 
ATOM     17  C   UNL     1       6.603   0.445  25.973  0.00  0.00    +0.015 A 
ATOM     18  C   UNL     1       6.974   1.756  26.383  0.00  0.00    +0.050 A 
ATOM     19  C   UNL     1       7.629   2.561  25.475  0.00  0.00    +0.168 A 
ATOM     20  O   UNL     1       8.052   3.853  25.580  0.00  0.00    -0.440 OA
BRANCH  12  24
ATOM     21  C   UNL     1       5.367   6.876  22.552  0.00  0.00    +0.000 A 
ATOM     22  C   UNL     1       5.183   6.310  23.810  0.00  0.00    +0.001 A 
ATOM     23  C   UNL     1       6.188   5.525  24.380  0.00  0.00    +0.011 A 
ATOM     24  C   UNL     1       7.386   5.267  23.687  0.00  0.00    +0.041 A 
ATOM     25  C   UNL     1       7.570   5.890  22.436  0.00  0.00    +0.011 A 
ATOM     26  C   UNL     1       6.569   6.687  21.875  0.00  0.00    +0.001 A 
ENDBRANCH  12  24
BRANCH  12  27
ATOM     27  C   UNL     1       9.811   4.721  23.948  0.00  0.00    +0.041 A 
ATOM     28  C   UNL     1      10.182   5.963  24.526  0.00  0.00    +0.011 A 
ATOM     29  C   UNL     1      11.491   6.429  24.490  0.00  0.00    +0.001 A 
ATOM     30  C   UNL     1      12.468   5.661  23.871  0.00  0.00    +0.000 A 
ATOM     31  C   UNL     1      12.128   4.443  23.279  0.00  0.00    +0.001 A 
ATOM     32  C   UNL     1      10.809   3.974  23.312  0.00  0.00    +0.011 A 
ENDBRANCH  12  27
ENDBRANCH   1  16
BRANCH   5  33
ATOM     33  O   UNL     1       4.917  -5.745  21.967  0.00  0.00    -0.506 OA
ATOM     34  H   UNL     1       5.342  -5.174  21.283  0.00  0.00    +0.292 HD
ENDBRANCH   5  33
BRANCH   7  35
ATOM     35  O   UNL     1       1.574  -4.766  25.170  0.00  0.00    -0.507 OA
ATOM     36  H   UNL     1       1.230  -5.588  24.779  0.00  0.00    +0.292 HD
ENDBRANCH   7  35
BRANCH  11  37
ATOM     37  O   UNL     1       8.038  -1.615  22.329  0.00  0.00    -0.485 OA
BRANCH  37  38
ATOM     38  C   UNL     1       9.330  -2.218  22.493  0.00  0.00    +0.229 C 
BRANCH  38  39
ATOM     39  C   UNL     1       9.767  -2.250  23.960  0.00  0.00    +0.041 C 
BRANCH  39  40
ATOM     40  C   UNL     1       9.797  -3.676  24.517  0.00  0.00    +0.003 C 
BRANCH  40  41
ATOM     41  C   UNL     1       8.797  -3.919  25.653  0.00  0.00    +0.002 C 
BRANCH  41  42
ATOM     42  C   UNL     1       8.113  -5.282  25.561  0.00  0.00    +0.030 C 
BRANCH  42  43
ATOM     43  C   UNL     1       6.856  -5.355  26.425  0.00  0.00    +0.234 C 
BRANCH  43  44
ATOM     44  N   UNL     1       7.278  -5.372  27.830  0.00  0.00    +0.076 NA
ATOM     45  N   UNL     1       6.837  -6.310  28.515  0.00  0.00    -0.015 NA
ATOM     46  N   UNL     1       6.431  -7.170  29.144  0.00  0.00    -0.328 NA
ENDBRANCH  43  44
ENDBRANCH  42  43
ENDBRANCH  41  42
ENDBRANCH  40  41
ENDBRANCH  39  40
ENDBRANCH  38  39
ENDBRANCH  37  38
ENDBRANCH  11  37
TORSDOF 13
ENDMDL
MODEL 2
REMARK VINA RESULT:      -8.1      2.788      4.035
REMARK  Name = 
REMARK  13 active torsions:
REMARK  status: ('A' for Active; 'I' for Inactive)
REMARK    1  A    between atoms: C_4  and  C_7
REMARK    2  A    between atoms: C_7  and  C_39
REMARK    3  A    between atoms: C_13  and  C_16
REMARK    4  A    between atoms: C_17  and  O_29
REMARK    5  A    between atoms: C_21  and  O_28
REMARK    6  A    between atoms: C_23  and  O_27
REMARK    7  A    between atoms: O_29  and  C_30
REMARK    8  A    between atoms: C_30  and  C_31
REMARK    9  A    between atoms: C_31  and  C_32
REMARK   10  A    between atoms: C_32  and  C_33
REMARK   11  A    between atoms: C_33  and  C_34
REMARK   12  A    between atoms: C_34  and  C_35
REMARK   13  A    between atoms: C_35  and  N_36
REMARK                            x       y       z     vdW  Elec       q    Type
REMARK                         _______ _______ _______ _____ _____    ______ ____
ROOT
ATOM      1  C   UNL     1       7.060  -2.171  24.852  0.00  0.00    +0.181 A 
ATOM      2  O   UNL     1       5.717  -2.592  24.802  0.00  0.00    -0.451 OA
ATOM      3  C   UNL     1       5.394  -3.717  24.080  0.00  0.00    +0.147 A 
ATOM      4  C   UNL     1       6.356  -4.595  23.602  0.00  0.00    +0.109 A 
ATOM      5  C   UNL     1       6.003  -5.745  22.887  0.00  0.00    +0.135 A 
ATOM      6  C   UNL     1       4.670  -6.031  22.646  0.00  0.00    +0.091 A 
ATOM      7  C   UNL     1       3.703  -5.153  23.122  0.00  0.00    +0.124 A 
ATOM      8  C   UNL     1       7.751  -4.289  23.866  0.00  0.00    +0.238 A 
ATOM      9  O   UNL     1       8.585  -5.165  23.635  0.00  0.00    -0.283 OA
ATOM     10  C   UNL     1       4.050  -3.998  23.833  0.00  0.00    +0.092 A 
ATOM     11  C   UNL     1       8.082  -2.924  24.350  0.00  0.00    +0.211 A 
ENDROOT
BRANCH   1  16
ATOM     12  C   UNL     1       6.650   3.717  25.501  0.00  0.00    +0.308 C 
ATOM     13  O   UNL     1       6.622   2.676  24.493  0.00  0.00    -0.440 OA
ATOM     14  C   UNL     1       7.025   1.592  25.197  0.00  0.00    +0.168 A 
ATOM     15  C   UNL     1       7.148   0.346  24.632  0.00  0.00    +0.061 A 
ATOM     16  C   UNL     1       7.205  -0.788  25.445  0.00  0.00    +0.025 A 
ATOM     17  C   UNL     1       7.318  -0.539  26.844  0.00  0.00    +0.015 A 
ATOM     18  C   UNL     1       7.356   0.775  27.389  0.00  0.00    +0.050 A 
ATOM     19  C   UNL     1       7.194   1.840  26.530  0.00  0.00    +0.168 A 
ATOM     20  O   UNL     1       7.142   3.179  26.780  0.00  0.00    -0.440 OA
BRANCH  12  24
ATOM     21  C   UNL     1       2.776   5.685  25.776  0.00  0.00    +0.000 A 
ATOM     22  C   UNL     1       2.927   4.561  24.969  0.00  0.00    +0.001 A 
ATOM     23  C   UNL     1       4.141   3.868  24.951  0.00  0.00    +0.011 A 
ATOM     24  C   UNL     1       5.236   4.307  25.719  0.00  0.00    +0.041 A 
ATOM     25  C   UNL     1       5.044   5.418  26.565  0.00  0.00    +0.011 A 
ATOM     26  C   UNL     1       3.825   6.099  26.593  0.00  0.00    +0.001 A 
ENDBRANCH  12  24
BRANCH  12  27
ATOM     27  C   UNL     1       7.527   4.818  24.862  0.00  0.00    +0.041 A 
ATOM     28  C   UNL     1       8.670   5.275  25.567  0.00  0.00    +0.011 A 
ATOM     29  C   UNL     1       9.591   6.144  24.992  0.00  0.00    +0.001 A 
ATOM     30  C   UNL     1       9.390   6.580  23.689  0.00  0.00    +0.000 A 
ATOM     31  C   UNL     1       8.265   6.160  22.978  0.00  0.00    +0.001 A 
ATOM     32  C   UNL     1       7.336   5.288  23.557  0.00  0.00    +0.011 A 
ENDBRANCH  12  27
ENDBRANCH   1  16
BRANCH   5  33
ATOM     33  O   UNL     1       6.920  -6.637  22.395  0.00  0.00    -0.506 OA
ATOM     34  H   UNL     1       7.685  -6.121  22.043  0.00  0.00    +0.292 HD
ENDBRANCH   5  33
BRANCH   7  35
ATOM     35  O   UNL     1       2.380  -5.404  22.905  0.00  0.00    -0.507 OA
ATOM     36  H   UNL     1       1.880  -4.580  23.037  0.00  0.00    +0.292 HD
ENDBRANCH   7  35
BRANCH  11  37
ATOM     37  O   UNL     1       9.409  -2.496  24.287  0.00  0.00    -0.485 OA
BRANCH  37  38
ATOM     38  C   UNL     1       9.943  -2.244  22.979  0.00  0.00    +0.229 C 
BRANCH  38  39
ATOM     39  C   UNL     1       8.955  -1.480  22.094  0.00  0.00    +0.041 C 
BRANCH  39  40
ATOM     40  C   UNL     1       9.564  -0.189  21.539  0.00  0.00    +0.003 C 
BRANCH  40  41
ATOM     41  C   UNL     1       8.535   0.912  21.257  0.00  0.00    +0.002 C 
BRANCH  41  42
ATOM     42  C   UNL     1       8.870   2.230  21.952  0.00  0.00    +0.030 C 
BRANCH  42  43
ATOM     43  C   UNL     1      10.320   2.277  22.429  0.00  0.00    +0.234 C 
BRANCH  43  44
ATOM     44  N   UNL     1      10.307   2.420  23.889  0.00  0.00    +0.076 NA
ATOM     45  N   UNL     1      10.540   1.384  24.535  0.00  0.00    -0.015 NA
ATOM     46  N   UNL     1      10.752   0.434  25.128  0.00  0.00    -0.328 NA
ENDBRANCH  43  44
ENDBRANCH  42  43
ENDBRANCH  41  42
ENDBRANCH  40  41
ENDBRANCH  39  40
ENDBRANCH  38  39
ENDBRANCH  37  38
ENDBRANCH  11  37
TORSDOF 13
ENDMDL
MODEL 3
REMARK VINA RESULT:      -8.1      2.797      9.114
REMARK  Name = 
REMARK  13 active torsions:
REMARK  status: ('A' for Active; 'I' for Inactive)
REMARK    1  A    between atoms: C_4  and  C_7
REMARK    2  A    between atoms: C_7  and  C_39
REMARK    3  A    between atoms: C_13  and  C_16
REMARK    4  A    between atoms: C_17  and  O_29
REMARK    5  A    between atoms: C_21  and  O_28
REMARK    6  A    between atoms: C_23  and  O_27
REMARK    7  A    between atoms: O_29  and  C_30
REMARK    8  A    between atoms: C_30  and  C_31
REMARK    9  A    between atoms: C_31  and  C_32
REMARK   10  A    between atoms: C_32  and  C_33
REMARK   11  A    between atoms: C_33  and  C_34
REMARK   12  A    between atoms: C_34  and  C_35
REMARK   13  A    between atoms: C_35  and  N_36
REMARK                            x       y       z     vdW  Elec       q    Type
REMARK                         _______ _______ _______ _____ _____    ______ ____
ROOT
ATOM      1  C   UNL     1       7.291   1.143  24.558  0.00  0.00    +0.181 A 
ATOM      2  O   UNL     1       7.124   2.499  24.904  0.00  0.00    -0.451 OA
ATOM      3  C   UNL     1       8.147   3.384  24.660  0.00  0.00    +0.147 A 
ATOM      4  C   UNL     1       9.239   3.057  23.868  0.00  0.00    +0.109 A 
ATOM      5  C   UNL     1      10.259   3.981  23.617  0.00  0.00    +0.135 A 
ATOM      6  C   UNL     1      10.193   5.254  24.157  0.00  0.00    +0.091 A 
ATOM      7  C   UNL     1       9.101   5.584  24.953  0.00  0.00    +0.124 A 
ATOM      8  C   UNL     1       9.296   1.722  23.301  0.00  0.00    +0.238 A 
ATOM      9  O   UNL     1      10.142   1.502  22.434  0.00  0.00    -0.283 OA
ATOM     10  C   UNL     1       8.080   4.663  25.212  0.00  0.00    +0.092 A 
ATOM     11  C   UNL     1       8.363   0.699  23.839  0.00  0.00    +0.211 A 
ENDROOT
BRANCH   1  16
ATOM     12  C   UNL     1       4.078  -3.683  25.837  0.00  0.00    +0.308 C 
ATOM     13  O   UNL     1       5.028  -3.169  24.872  0.00  0.00    -0.440 OA
ATOM     14  C   UNL     1       5.090  -1.859  25.208  0.00  0.00    +0.168 A 
ATOM     15  C   UNL     1       5.890  -0.961  24.545  0.00  0.00    +0.061 A 
ATOM     16  C   UNL     1       6.202   0.266  25.134  0.00  0.00    +0.025 A 
ATOM     17  C   UNL     1       5.498   0.571  26.335  0.00  0.00    +0.015 A 
ATOM     18  C   UNL     1       4.546  -0.315  26.912  0.00  0.00    +0.050 A 
ATOM     19  C   UNL     1       4.366  -1.548  26.324  0.00  0.00    +0.168 A 
ATOM     20  O   UNL     1       3.569  -2.594  26.687  0.00  0.00    -0.440 OA
BRANCH  12  24
ATOM     21  C   UNL     1       5.967  -6.358  28.707  0.00  0.00    +0.000 A 
ATOM     22  C   UNL     1       4.579  -6.306  28.617  0.00  0.00    +0.001 A 
ATOM     23  C   UNL     1       3.968  -5.523  27.634  0.00  0.00    +0.011 A 
ATOM     24  C   UNL     1       4.738  -4.753  26.741  0.00  0.00    +0.041 A 
ATOM     25  C   UNL     1       6.141  -4.860  26.819  0.00  0.00    +0.011 A 
ATOM     26  C   UNL     1       6.749  -5.656  27.794  0.00  0.00    +0.001 A 
ENDBRANCH  12  24
BRANCH  12  27
ATOM     27  C   UNL     1       3.019  -4.393  24.962  0.00  0.00    +0.041 A 
ATOM     28  C   UNL     1       1.663  -3.987  25.068  0.00  0.00    +0.011 A 
ATOM     29  C   UNL     1       0.683  -4.466  24.206  0.00  0.00    +0.001 A 
ATOM     30  C   UNL     1       1.036  -5.368  23.211  0.00  0.00    +0.000 A 
ATOM     31  C   UNL     1       2.360  -5.797  23.095  0.00  0.00    +0.001 A 
ATOM     32  C   UNL     1       3.346  -5.318  23.964  0.00  0.00    +0.011 A 
ENDBRANCH  12  27
ENDBRANCH   1  16
BRANCH   5  33
ATOM     33  O   UNL     1      11.356   3.700  22.844  0.00  0.00    -0.506 OA
ATOM     34  H   UNL     1      12.161   3.905  23.377  0.00  0.00    +0.292 HD
ENDBRANCH   5  33
BRANCH   7  35
ATOM     35  O   UNL     1       9.001   6.830  25.500  0.00  0.00    -0.507 OA
ATOM     36  H   UNL     1       9.652   7.412  25.071  0.00  0.00    +0.292 HD
ENDBRANCH   7  35
BRANCH  11  37
ATOM     37  O   UNL     1       8.617  -0.646  23.568  0.00  0.00    -0.485 OA
BRANCH  37  38
ATOM     38  C   UNL     1       9.583  -1.301  24.404  0.00  0.00    +0.229 C 
BRANCH  38  39
ATOM     39  C   UNL     1       9.694  -2.795  24.091  0.00  0.00    +0.041 C 
BRANCH  39  40
ATOM     40  C   UNL     1       8.339  -3.402  23.713  0.00  0.00    +0.003 C 
BRANCH  40  41
ATOM     41  C   UNL     1       8.281  -4.927  23.857  0.00  0.00    +0.002 C 
BRANCH  41  42
ATOM     42  C   UNL     1       6.993  -5.527  23.298  0.00  0.00    +0.030 C 
BRANCH  42  43
ATOM     43  C   UNL     1       7.130  -5.918  21.828  0.00  0.00    +0.234 C 
BRANCH  43  44
ATOM     44  N   UNL     1       5.960  -5.394  21.114  0.00  0.00    +0.076 NA
ATOM     45  N   UNL     1       5.679  -4.205  21.337  0.00  0.00    -0.015 NA
ATOM     46  N   UNL     1       5.419  -3.114  21.543  0.00  0.00    -0.328 NA
ENDBRANCH  43  44
ENDBRANCH  42  43
ENDBRANCH  41  42
ENDBRANCH  40  41
ENDBRANCH  39  40
ENDBRANCH  38  39
ENDBRANCH  37  38
ENDBRANCH  11  37
TORSDOF 13
ENDMDL
MODEL 4
REMARK VINA RESULT:      -8.1      2.774      3.967
REMARK  Name = 
REMARK  13 active torsions:
REMARK  status: ('A' for Active; 'I' for Inactive)
REMARK    1  A    between atoms: C_4  and  C_7
REMARK    2  A    between atoms: C_7  and  C_39
REMARK    3  A    between atoms: C_13  and  C_16
REMARK    4  A    between atoms: C_17  and  O_29
REMARK    5  A    between atoms: C_21  and  O_28
REMARK    6  A    between atoms: C_23  and  O_27
REMARK    7  A    between atoms: O_29  and  C_30
REMARK    8  A    between atoms: C_30  and  C_31
REMARK    9  A    between atoms: C_31  and  C_32
REMARK   10  A    between atoms: C_32  and  C_33
REMARK   11  A    between atoms: C_33  and  C_34
REMARK   12  A    between atoms: C_34  and  C_35
REMARK   13  A    between atoms: C_35  and  N_36
REMARK                            x       y       z     vdW  Elec       q    Type
REMARK                         _______ _______ _______ _____ _____    ______ ____
ROOT
ATOM      1  C   UNL     1       4.665  -3.891  25.629  0.00  0.00    +0.181 A 
ATOM      2  O   UNL     1       3.534  -3.824  24.792  0.00  0.00    -0.451 OA
ATOM      3  C   UNL     1       2.960  -4.991  24.346  0.00  0.00    +0.147 A 
ATOM      4  C   UNL     1       3.289  -6.230  24.876  0.00  0.00    +0.109 A 
ATOM      5  C   UNL     1       2.675  -7.404  24.421  0.00  0.00    +0.135 A 
ATOM      6  C   UNL     1       1.716  -7.345  23.424  0.00  0.00    +0.091 A 
ATOM      7  C   UNL     1       1.386  -6.104  22.890  0.00  0.00    +0.124 A 
ATOM      8  C   UNL     1       4.291  -6.280  25.925  0.00  0.00    +0.238 A 
ATOM      9  O   UNL     1       4.426  -7.339  26.540  0.00  0.00    -0.283 OA
ATOM     10  C   UNL     1       1.999  -4.928  23.337  0.00  0.00    +0.092 A 
ATOM     11  C   UNL     1       5.119  -5.068  26.152  0.00  0.00    +0.211 A 
ENDROOT
BRANCH   1  16
ATOM     12  C   UNL     1       6.686   1.557  24.409  0.00  0.00    +0.308 C 
ATOM     13  O   UNL     1       6.293   0.317  23.771  0.00  0.00    -0.440 OA
ATOM     14  C   UNL     1       6.167  -0.517  24.830  0.00  0.00    +0.168 A 
ATOM     15  C   UNL     1       5.799  -1.834  24.696  0.00  0.00    +0.061 A 
ATOM     16  C   UNL     1       5.331  -2.546  25.803  0.00  0.00    +0.025 A 
ATOM     17  C   UNL     1       5.447  -1.881  27.058  0.00  0.00    +0.015 A 
ATOM     18  C   UNL     1       5.991  -0.571  27.185  0.00  0.00    +0.050 A 
ATOM     19  C   UNL     1       6.339   0.103  26.035  0.00  0.00    +0.168 A 
ATOM     20  O   UNL     1       6.829   1.363  25.862  0.00  0.00    -0.440 OA
BRANCH  12  24
ATOM     21  C   UNL     1       4.080   4.953  23.612  0.00  0.00    +0.000 A 
ATOM     22  C   UNL     1       4.396   4.065  22.587  0.00  0.00    +0.001 A 
ATOM     23  C   UNL     1       5.151   2.921  22.858  0.00  0.00    +0.011 A 
ATOM     24  C   UNL     1       5.631   2.662  24.156  0.00  0.00    +0.041 A 
ATOM     25  C   UNL     1       5.258   3.548  25.186  0.00  0.00    +0.011 A 
ATOM     26  C   UNL     1       4.489   4.683  24.915  0.00  0.00    +0.001 A 
ENDBRANCH  12  24
BRANCH  12  27
ATOM     27  C   UNL     1       7.978   1.958  23.662  0.00  0.00    +0.041 A 
ATOM     28  C   UNL     1       8.817   2.950  24.233  0.00  0.00    +0.011 A 
ATOM     29  C   UNL     1      10.068   3.249  23.703  0.00  0.00    +0.001 A 
ATOM     30  C   UNL     1      10.512   2.560  22.583  0.00  0.00    +0.000 A 
ATOM     31  C   UNL     1       9.700   1.591  21.991  0.00  0.00    +0.001 A 
ATOM     32  C   UNL     1       8.440   1.292  22.521  0.00  0.00    +0.011 A 
ENDBRANCH  12  27
ENDBRANCH   1  16
BRANCH   5  33
ATOM     33  O   UNL     1       2.972  -8.648  24.913  0.00  0.00    -0.506 OA
ATOM     34  H   UNL     1       2.145  -9.187  24.890  0.00  0.00    +0.292 HD
ENDBRANCH   5  33
BRANCH   7  35
ATOM     35  O   UNL     1       0.443  -6.008  21.908  0.00  0.00    -0.507 OA
ATOM     36  H   UNL     1       0.819  -5.508  21.163  0.00  0.00    +0.292 HD
ENDBRANCH   7  35
BRANCH  11  37
ATOM     37  O   UNL     1       6.292  -5.190  26.898  0.00  0.00    -0.485 OA
BRANCH  37  38
ATOM     38  C   UNL     1       7.515  -5.316  26.157  0.00  0.00    +0.229 C 
BRANCH  38  39
ATOM     39  C   UNL     1       8.633  -4.451  26.744  0.00  0.00    +0.041 C 
BRANCH  39  40
ATOM     40  C   UNL     1       8.948  -3.244  25.856  0.00  0.00    +0.003 C 
BRANCH  40  41
ATOM     41  C   UNL     1       9.115  -3.592  24.372  0.00  0.00    +0.002 C 
BRANCH  41  42
ATOM     42  C   UNL     1       9.230  -2.356  23.482  0.00  0.00    +0.030 C 
BRANCH  42  43
ATOM     43  C   UNL     1       8.319  -2.441  22.259  0.00  0.00    +0.234 C 
BRANCH  43  44
ATOM     44  N   UNL     1       7.650  -3.747  22.288  0.00  0.00    +0.076 NA
ATOM     45  N   UNL     1       6.461  -3.753  21.927  0.00  0.00    -0.015 NA
ATOM     46  N   UNL     1       5.370  -3.759  21.599  0.00  0.00    -0.328 NA
ENDBRANCH  43  44
ENDBRANCH  42  43
ENDBRANCH  41  42
ENDBRANCH  40  41
ENDBRANCH  39  40
ENDBRANCH  38  39
ENDBRANCH  37  38
ENDBRANCH  11  37
TORSDOF 13
ENDMDL
MODEL 5
REMARK VINA RESULT:      -8.0      2.773      9.040
REMARK  Name = 
REMARK  13 active torsions:
REMARK  status: ('A' for Active; 'I' for Inactive)
REMARK    1  A    between atoms: C_4  and  C_7
REMARK    2  A    between atoms: C_7  and  C_39
REMARK    3  A    between atoms: C_13  and  C_16
REMARK    4  A    between atoms: C_17  and  O_29
REMARK    5  A    between atoms: C_21  and  O_28
REMARK    6  A    between atoms: C_23  and  O_27
REMARK    7  A    between atoms: O_29  and  C_30
REMARK    8  A    between atoms: C_30  and  C_31
REMARK    9  A    between atoms: C_31  and  C_32
REMARK   10  A    between atoms: C_32  and  C_33
REMARK   11  A    between atoms: C_33  and  C_34
REMARK   12  A    between atoms: C_34  and  C_35
REMARK   13  A    between atoms: C_35  and  N_36
REMARK                            x       y       z     vdW  Elec       q    Type
REMARK                         _______ _______ _______ _____ _____    ______ ____
ROOT
ATOM      1  C   UNL     1       7.225   2.066  26.009  0.00  0.00    +0.181 A 
ATOM      2  O   UNL     1       6.803   2.778  27.148  0.00  0.00    -0.451 OA
ATOM      3  C   UNL     1       7.129   4.109  27.267  0.00  0.00    +0.147 A 
ATOM      4  C   UNL     1       7.640   4.845  26.208  0.00  0.00    +0.109 A 
ATOM      5  C   UNL     1       7.945   6.204  26.346  0.00  0.00    +0.135 A 
ATOM      6  C   UNL     1       7.734   6.844  27.555  0.00  0.00    +0.091 A 
ATOM      7  C   UNL     1       7.223   6.108  28.619  0.00  0.00    +0.124 A 
ATOM      8  C   UNL     1       7.851   4.165  24.942  0.00  0.00    +0.238 A 
ATOM      9  O   UNL     1       8.097   4.857  23.954  0.00  0.00    -0.283 OA
ATOM     10  C   UNL     1       6.921   4.748  28.490  0.00  0.00    +0.092 A 
ATOM     11  C   UNL     1       7.804   2.681  24.936  0.00  0.00    +0.211 A 
ENDROOT
BRANCH   1  16
ATOM     12  C   UNL     1       5.126  -3.421  25.150  0.00  0.00    +0.308 C 
ATOM     13  O   UNL     1       4.782  -2.026  24.963  0.00  0.00    -0.440 OA
ATOM     14  C   UNL     1       5.759  -1.399  25.658  0.00  0.00    +0.168 A 
ATOM     15  C   UNL     1       5.837  -0.031  25.758  0.00  0.00    +0.061 A 
ATOM     16  C   UNL     1       7.029   0.575  26.158  0.00  0.00    +0.025 A 
ATOM     17  C   UNL     1       8.047  -0.310  26.620  0.00  0.00    +0.015 A 
ATOM     18  C   UNL     1       7.874  -1.723  26.661  0.00  0.00    +0.050 A 
ATOM     19  C   UNL     1       6.705  -2.250  26.156  0.00  0.00    +0.168 A 
ATOM     20  O   UNL     1       6.301  -3.546  26.028  0.00  0.00    -0.440 OA
BRANCH  12  24
ATOM     21  C   UNL     1       6.465  -5.188  21.403  0.00  0.00    +0.000 A 
ATOM     22  C   UNL     1       6.387  -5.972  22.551  0.00  0.00    +0.001 A 
ATOM     23  C   UNL     1       5.867  -5.436  23.732  0.00  0.00    +0.011 A 
ATOM     24  C   UNL     1       5.443  -4.095  23.793  0.00  0.00    +0.041 A 
ATOM     25  C   UNL     1       5.485  -3.336  22.607  0.00  0.00    +0.011 A 
ATOM     26  C   UNL     1       5.991  -3.879  21.423  0.00  0.00    +0.001 A 
ENDBRANCH  12  24
BRANCH  12  27
ATOM     27  C   UNL     1       3.821  -4.047  25.694  0.00  0.00    +0.041 A 
ATOM     28  C   UNL     1       2.590  -3.699  25.081  0.00  0.00    +0.011 A 
ATOM     29  C   UNL     1       1.399  -4.337  25.409  0.00  0.00    +0.001 A 
ATOM     30  C   UNL     1       1.409  -5.344  26.365  0.00  0.00    +0.000 A 
ATOM     31  C   UNL     1       2.604  -5.695  26.997  0.00  0.00    +0.001 A 
ATOM     32  C   UNL     1       3.802  -5.051  26.670  0.00  0.00    +0.011 A 
ENDBRANCH  12  27
ENDBRANCH   1  16
BRANCH   5  33
ATOM     33  O   UNL     1       8.454   6.968  25.329  0.00  0.00    -0.506 OA
ATOM     34  H   UNL     1       9.374   7.227  25.576  0.00  0.00    +0.292 HD
ENDBRANCH   5  33
BRANCH   7  35
ATOM     35  O   UNL     1       7.001   6.707  29.825  0.00  0.00    -0.507 OA
ATOM     36  H   UNL     1       7.047   7.672  29.706  0.00  0.00    +0.292 HD
ENDBRANCH   7  35
BRANCH  11  37
ATOM     37  O   UNL     1       8.329   2.000  23.836  0.00  0.00    -0.485 OA
BRANCH  37  38
ATOM     38  C   UNL     1       9.760   1.969  23.722  0.00  0.00    +0.229 C 
BRANCH  38  39
ATOM     39  C   UNL     1      10.215   1.715  22.283  0.00  0.00    +0.041 C 
BRANCH  39  40
ATOM     40  C   UNL     1       9.219   0.843  21.514  0.00  0.00    +0.003 C 
BRANCH  40  41
ATOM     41  C   UNL     1       9.556  -0.653  21.538  0.00  0.00    +0.002 C 
BRANCH  41  42
ATOM     42  C   UNL     1       8.753  -1.425  22.584  0.00  0.00    +0.030 C 
BRANCH  42  43
ATOM     43  C   UNL     1       9.649  -2.266  23.491  0.00  0.00    +0.234 C 
BRANCH  43  44
ATOM     44  N   UNL     1       8.991  -3.562  23.694  0.00  0.00    +0.076 NA
ATOM     45  N   UNL     1       9.546  -4.329  24.498  0.00  0.00    -0.015 NA
ATOM     46  N   UNL     1      10.056  -5.034  25.234  0.00  0.00    -0.328 NA
ENDBRANCH  43  44
ENDBRANCH  42  43
ENDBRANCH  41  42
ENDBRANCH  40  41
ENDBRANCH  39  40
ENDBRANCH  38  39
ENDBRANCH  37  38
ENDBRANCH  11  37
TORSDOF 13
ENDMDL
MODEL 6
REMARK VINA RESULT:      -8.0      2.596      8.825
REMARK  Name = 
REMARK  13 active torsions:
REMARK  status: ('A' for Active; 'I' for Inactive)
REMARK    1  A    between atoms: C_4  and  C_7
REMARK    2  A    between atoms: C_7  and  C_39
REMARK    3  A    between atoms: C_13  and  C_16
REMARK    4  A    between atoms: C_17  and  O_29
REMARK    5  A    between atoms: C_21  and  O_28
REMARK    6  A    between atoms: C_23  and  O_27
REMARK    7  A    between atoms: O_29  and  C_30
REMARK    8  A    between atoms: C_30  and  C_31
REMARK    9  A    between atoms: C_31  and  C_32
REMARK   10  A    between atoms: C_32  and  C_33
REMARK   11  A    between atoms: C_33  and  C_34
REMARK   12  A    between atoms: C_34  and  C_35
REMARK   13  A    between atoms: C_35  and  N_36
REMARK                            x       y       z     vdW  Elec       q    Type
REMARK                         _______ _______ _______ _____ _____    ______ ____
ROOT
ATOM      1  C   UNL     1       8.461   1.190  25.122  0.00  0.00    +0.181 A 
ATOM      2  O   UNL     1       7.747   2.326  25.551  0.00  0.00    -0.451 OA
ATOM      3  C   UNL     1       8.235   3.576  25.254  0.00  0.00    +0.147 A 
ATOM      4  C   UNL     1       9.263   3.775  24.345  0.00  0.00    +0.109 A 
ATOM      5  C   UNL     1       9.730   5.060  24.042  0.00  0.00    +0.135 A 
ATOM      6  C   UNL     1       9.163   6.167  24.650  0.00  0.00    +0.091 A 
ATOM      7  C   UNL     1       8.133   5.970  25.564  0.00  0.00    +0.124 A 
ATOM      8  C   UNL     1       9.847   2.609  23.707  0.00  0.00    +0.238 A 
ATOM      9  O   UNL     1      10.601   2.794  22.752  0.00  0.00    -0.283 OA
ATOM     10  C   UNL     1       7.665   4.689  25.875  0.00  0.00    +0.092 A 
ATOM     11  C   UNL     1       9.533   1.275  24.281  0.00  0.00    +0.211 A 
ENDROOT
BRANCH   1  16
ATOM     12  C   UNL     1       4.857  -3.321  26.506  0.00  0.00    +0.308 C 
ATOM     13  O   UNL     1       4.842  -1.962  26.003  0.00  0.00    -0.440 OA
ATOM     14  C   UNL     1       6.122  -1.572  26.208  0.00  0.00    +0.168 A 
ATOM     15  C   UNL     1       6.578  -0.321  25.870  0.00  0.00    +0.061 A 
ATOM     16  C   UNL     1       7.949  -0.083  25.756  0.00  0.00    +0.025 A 
ATOM     17  C   UNL     1       8.797  -1.144  26.189  0.00  0.00    +0.015 A 
ATOM     18  C   UNL     1       8.290  -2.374  26.694  0.00  0.00    +0.050 A 
ATOM     19  C   UNL     1       6.926  -2.569  26.682  0.00  0.00    +0.168 A 
ATOM     20  O   UNL     1       6.183  -3.650  27.054  0.00  0.00    -0.440 OA
BRANCH  12  24
ATOM     21  C   UNL     1       3.546  -6.289  23.603  0.00  0.00    +0.000 A 
ATOM     22  C   UNL     1       3.119  -4.969  23.487  0.00  0.00    +0.001 A 
ATOM     23  C   UNL     1       3.612  -3.993  24.357  0.00  0.00    +0.011 A 
ATOM     24  C   UNL     1       4.520  -4.328  25.380  0.00  0.00    +0.041 A 
ATOM     25  C   UNL     1       4.975  -5.660  25.447  0.00  0.00    +0.011 A 
ATOM     26  C   UNL     1       4.491  -6.630  24.566  0.00  0.00    +0.001 A 
ENDBRANCH  12  24
BRANCH  12  27
ATOM     27  C   UNL     1       3.694  -3.344  27.524  0.00  0.00    +0.041 A 
ATOM     28  C   UNL     1       3.714  -4.311  28.562  0.00  0.00    +0.011 A 
ATOM     29  C   UNL     1       2.791  -4.294  29.602  0.00  0.00    +0.001 A 
ATOM     30  C   UNL     1       1.817  -3.304  29.628  0.00  0.00    +0.000 A 
ATOM     31  C   UNL     1       1.763  -2.351  28.610  0.00  0.00    +0.001 A 
ATOM     32  C   UNL     1       2.690  -2.369  27.562  0.00  0.00    +0.011 A 
ENDBRANCH  12  27
ENDBRANCH   1  16
BRANCH   5  33
ATOM     33  O   UNL     1      10.744   5.302  23.153  0.00  0.00    -0.506 OA
ATOM     34  H   UNL     1      11.133   4.433  22.892  0.00  0.00    +0.292 HD
ENDBRANCH   5  33
BRANCH   7  35
ATOM     35  O   UNL     1       7.549   7.038  26.181  0.00  0.00    -0.507 OA
ATOM     36  H   UNL     1       6.630   7.112  25.873  0.00  0.00    +0.292 HD
ENDBRANCH   7  35
BRANCH  11  37
ATOM     37  O   UNL     1      10.328   0.187  23.918  0.00  0.00    -0.485 OA
BRANCH  37  38
ATOM     38  C   UNL     1      10.015  -0.450  22.670  0.00  0.00    +0.229 C 
BRANCH  38  39
ATOM     39  C   UNL     1       9.571  -1.902  22.864  0.00  0.00    +0.041 C 
BRANCH  39  40
ATOM     40  C   UNL     1       8.325  -2.234  22.038  0.00  0.00    +0.003 C 
BRANCH  40  41
ATOM     41  C   UNL     1       7.150  -2.760  22.872  0.00  0.00    +0.002 C 
BRANCH  41  42
ATOM     42  C   UNL     1       6.688  -4.149  22.435  0.00  0.00    +0.030 C 
BRANCH  42  43
ATOM     43  C   UNL     1       7.695  -5.234  22.808  0.00  0.00    +0.234 C 
BRANCH  43  44
ATOM     44  N   UNL     1       7.941  -5.142  24.252  0.00  0.00    +0.076 NA
ATOM     45  N   UNL     1       9.133  -5.069  24.592  0.00  0.00    -0.015 NA
ATOM     46  N   UNL     1      10.227  -5.005  24.906  0.00  0.00    -0.328 NA
ENDBRANCH  43  44
ENDBRANCH  42  43
ENDBRANCH  41  42
ENDBRANCH  40  41
ENDBRANCH  39  40
ENDBRANCH  38  39
ENDBRANCH  37  38
ENDBRANCH  11  37
TORSDOF 13
ENDMDL
MODEL 7
REMARK VINA RESULT:      -7.9      3.008      9.576
REMARK  Name = 
REMARK  13 active torsions:
REMARK  status: ('A' for Active; 'I' for Inactive)
REMARK    1  A    between atoms: C_4  and  C_7
REMARK    2  A    between atoms: C_7  and  C_39
REMARK    3  A    between atoms: C_13  and  C_16
REMARK    4  A    between atoms: C_17  and  O_29
REMARK    5  A    between atoms: C_21  and  O_28
REMARK    6  A    between atoms: C_23  and  O_27
REMARK    7  A    between atoms: O_29  and  C_30
REMARK    8  A    between atoms: C_30  and  C_31
REMARK    9  A    between atoms: C_31  and  C_32
REMARK   10  A    between atoms: C_32  and  C_33
REMARK   11  A    between atoms: C_33  and  C_34
REMARK   12  A    between atoms: C_34  and  C_35
REMARK   13  A    between atoms: C_35  and  N_36
REMARK                            x       y       z     vdW  Elec       q    Type
REMARK                         _______ _______ _______ _____ _____    ______ ____
ROOT
ATOM      1  C   UNL     1       8.322   1.954  25.326  0.00  0.00    +0.181 A 
ATOM      2  O   UNL     1       9.591   2.209  24.769  0.00  0.00    -0.451 OA
ATOM      3  C   UNL     1       9.873   3.467  24.291  0.00  0.00    +0.147 A 
ATOM      4  C   UNL     1       9.060   4.560  24.552  0.00  0.00    +0.109 A 
ATOM      5  C   UNL     1       9.378   5.836  24.072  0.00  0.00    +0.135 A 
ATOM      6  C   UNL     1      10.526   6.030  23.323  0.00  0.00    +0.091 A 
ATOM      7  C   UNL     1      11.342   4.936  23.058  0.00  0.00    +0.124 A 
ATOM      8  C   UNL     1       7.862   4.346  25.344  0.00  0.00    +0.238 A 
ATOM      9  O   UNL     1       7.261   5.340  25.754  0.00  0.00    -0.283 OA
ATOM     10  C   UNL     1      11.027   3.657  23.530  0.00  0.00    +0.092 A 
ATOM     11  C   UNL     1       7.415   2.947  25.563  0.00  0.00    +0.211 A 
ENDROOT
BRANCH   1  16
ATOM     12  C   UNL     1       6.081  -3.508  24.697  0.00  0.00    +0.308 C 
ATOM     13  O   UNL     1       5.784  -2.116  24.429  0.00  0.00    -0.440 OA
ATOM     14  C   UNL     1       6.763  -1.481  25.116  0.00  0.00    +0.168 A 
ATOM     15  C   UNL     1       6.878  -0.113  25.147  0.00  0.00    +0.061 A 
ATOM     16  C   UNL     1       8.078   0.479  25.547  0.00  0.00    +0.025 A 
ATOM     17  C   UNL     1       9.057  -0.410  26.080  0.00  0.00    +0.015 A 
ATOM     18  C   UNL     1       8.841  -1.812  26.190  0.00  0.00    +0.050 A 
ATOM     19  C   UNL     1       7.670  -2.331  25.682  0.00  0.00    +0.168 A 
ATOM     20  O   UNL     1       7.231  -3.620  25.611  0.00  0.00    -0.440 OA
BRANCH  12  24
ATOM     21  C   UNL     1       6.687  -5.941  21.137  0.00  0.00    +0.000 A 
ATOM     22  C   UNL     1       5.804  -4.866  21.101  0.00  0.00    +0.001 A 
ATOM     23  C   UNL     1       5.677  -4.024  22.209  0.00  0.00    +0.011 A 
ATOM     24  C   UNL     1       6.412  -4.261  23.386  0.00  0.00    +0.041 A 
ATOM     25  C   UNL     1       7.336  -5.326  23.382  0.00  0.00    +0.011 A 
ATOM     26  C   UNL     1       7.471  -6.157  22.267  0.00  0.00    +0.001 A 
ENDBRANCH  12  24
BRANCH  12  27
ATOM     27  C   UNL     1       4.746  -4.067  25.239  0.00  0.00    +0.041 A 
ATOM     28  C   UNL     1       3.560  -3.315  25.037  0.00  0.00    +0.011 A 
ATOM     29  C   UNL     1       2.304  -3.823  25.353  0.00  0.00    +0.001 A 
ATOM     30  C   UNL     1       2.203  -5.102  25.883  0.00  0.00    +0.000 A 
ATOM     31  C   UNL     1       3.355  -5.858  26.108  0.00  0.00    +0.001 A 
ATOM     32  C   UNL     1       4.620  -5.346  25.793  0.00  0.00    +0.011 A 
ENDBRANCH  12  27
ENDBRANCH   1  16
BRANCH   5  33
ATOM     33  O   UNL     1       8.603   6.942  24.304  0.00  0.00    -0.506 OA
ATOM     34  H   UNL     1       7.670   6.640  24.414  0.00  0.00    +0.292 HD
ENDBRANCH   5  33
BRANCH   7  35
ATOM     35  O   UNL     1      12.483   5.091  22.325  0.00  0.00    -0.507 OA
ATOM     36  H   UNL     1      12.286   4.886  21.395  0.00  0.00    +0.292 HD
ENDBRANCH   7  35
BRANCH  11  37
ATOM     37  O   UNL     1       6.114   2.723  26.015  0.00  0.00    -0.485 OA
BRANCH  37  38
ATOM     38  C   UNL     1       5.050   3.145  25.148  0.00  0.00    +0.229 C 
BRANCH  38  39
ATOM     39  C   UNL     1       5.124   2.468  23.778  0.00  0.00    +0.041 C 
BRANCH  39  40
ATOM     40  C   UNL     1       5.465   3.463  22.665  0.00  0.00    +0.003 C 
BRANCH  40  41
ATOM     41  C   UNL     1       6.821   3.204  21.996  0.00  0.00    +0.002 C 
BRANCH  41  42
ATOM     42  C   UNL     1       7.230   1.733  22.033  0.00  0.00    +0.030 C 
BRANCH  42  43
ATOM     43  C   UNL     1       8.548   1.484  21.303  0.00  0.00    +0.234 C 
BRANCH  43  44
ATOM     44  N   UNL     1       9.322   0.519  22.093  0.00  0.00    +0.076 NA
ATOM     45  N   UNL     1       8.910  -0.653  22.068  0.00  0.00    -0.015 NA
ATOM     46  N   UNL     1       8.531  -1.728  22.048  0.00  0.00    -0.328 NA
ENDBRANCH  43  44
ENDBRANCH  42  43
ENDBRANCH  41  42
ENDBRANCH  40  41
ENDBRANCH  39  40
ENDBRANCH  38  39
ENDBRANCH  37  38
ENDBRANCH  11  37
TORSDOF 13
ENDMDL
MODEL 8
REMARK VINA RESULT:      -7.8      4.021      9.662
REMARK  Name = 
REMARK  13 active torsions:
REMARK  status: ('A' for Active; 'I' for Inactive)
REMARK    1  A    between atoms: C_4  and  C_7
REMARK    2  A    between atoms: C_7  and  C_39
REMARK    3  A    between atoms: C_13  and  C_16
REMARK    4  A    between atoms: C_17  and  O_29
REMARK    5  A    between atoms: C_21  and  O_28
REMARK    6  A    between atoms: C_23  and  O_27
REMARK    7  A    between atoms: O_29  and  C_30
REMARK    8  A    between atoms: C_30  and  C_31
REMARK    9  A    between atoms: C_31  and  C_32
REMARK   10  A    between atoms: C_32  and  C_33
REMARK   11  A    between atoms: C_33  and  C_34
REMARK   12  A    between atoms: C_34  and  C_35
REMARK   13  A    between atoms: C_35  and  N_36
REMARK                            x       y       z     vdW  Elec       q    Type
REMARK                         _______ _______ _______ _____ _____    ______ ____
ROOT
ATOM      1  C   UNL     1       8.387   2.118  25.252  0.00  0.00    +0.181 A 
ATOM      2  O   UNL     1       7.467   2.898  25.979  0.00  0.00    -0.451 OA
ATOM      3  C   UNL     1       7.674   4.253  26.087  0.00  0.00    +0.147 A 
ATOM      4  C   UNL     1       8.609   4.925  25.313  0.00  0.00    +0.109 A 
ATOM      5  C   UNL     1       8.788   6.309  25.425  0.00  0.00    +0.135 A 
ATOM      6  C   UNL     1       8.024   7.038  26.319  0.00  0.00    +0.091 A 
ATOM      7  C   UNL     1       7.087   6.367  27.098  0.00  0.00    +0.124 A 
ATOM      8  C   UNL     1       9.401   4.152  24.374  0.00  0.00    +0.238 A 
ATOM      9  O   UNL     1      10.070   4.768  23.543  0.00  0.00    -0.283 OA
ATOM     10  C   UNL     1       6.906   4.984  26.994  0.00  0.00    +0.092 A 
ATOM     11  C   UNL     1       9.391   2.672  24.511  0.00  0.00    +0.211 A 
ENDROOT
BRANCH   1  16
ATOM     12  C   UNL     1       6.119  -3.342  24.699  0.00  0.00    +0.308 C 
ATOM     13  O   UNL     1       5.792  -1.945  24.496  0.00  0.00    -0.440 OA
ATOM     14  C   UNL     1       6.829  -1.321  25.104  0.00  0.00    +0.168 A 
ATOM     15  C   UNL     1       6.941   0.047  25.158  0.00  0.00    +0.061 A 
ATOM     16  C   UNL     1       8.172   0.636  25.458  0.00  0.00    +0.025 A 
ATOM     17  C   UNL     1       9.200  -0.259  25.872  0.00  0.00    +0.015 A 
ATOM     18  C   UNL     1       9.001  -1.666  25.966  0.00  0.00    +0.050 A 
ATOM     19  C   UNL     1       7.789  -2.179  25.559  0.00  0.00    +0.168 A 
ATOM     20  O   UNL     1       7.351  -3.469  25.496  0.00  0.00    -0.440 OA
BRANCH  12  24
ATOM     21  C   UNL     1       6.264  -5.522  20.933  0.00  0.00    +0.000 A 
ATOM     22  C   UNL     1       5.897  -4.179  20.944  0.00  0.00    +0.001 A 
ATOM     23  C   UNL     1       5.942  -3.449  22.134  0.00  0.00    +0.011 A 
ATOM     24  C   UNL     1       6.327  -4.059  23.343  0.00  0.00    +0.041 A 
ATOM     25  C   UNL     1       6.741  -5.405  23.299  0.00  0.00    +0.011 A 
ATOM     26  C   UNL     1       6.709  -6.129  22.104  0.00  0.00    +0.001 A 
ENDBRANCH  12  24
BRANCH  12  27
ATOM     27  C   UNL     1       4.844  -3.923  25.351  0.00  0.00    +0.041 A 
ATOM     28  C   UNL     1       3.579  -3.544  24.831  0.00  0.00    +0.011 A 
ATOM     29  C   UNL     1       2.399  -4.143  25.258  0.00  0.00    +0.001 A 
ATOM     30  C   UNL     1       2.455  -5.140  26.222  0.00  0.00    +0.000 A 
ATOM     31  C   UNL     1       3.684  -5.521  26.763  0.00  0.00    +0.001 A 
ATOM     32  C   UNL     1       4.872  -4.917  26.336  0.00  0.00    +0.011 A 
ENDBRANCH  12  27
ENDBRANCH   1  16
BRANCH   5  33
ATOM     33  O   UNL     1       9.701   7.012  24.683  0.00  0.00    -0.506 OA
ATOM     34  H   UNL     1      10.099   6.392  24.026  0.00  0.00    +0.292 HD
ENDBRANCH   5  33
BRANCH   7  35
ATOM     35  O   UNL     1       6.314   7.055  27.988  0.00  0.00    -0.507 OA
ATOM     36  H   UNL     1       5.378   6.886  27.783  0.00  0.00    +0.292 HD
ENDBRANCH   7  35
BRANCH  11  37
ATOM     37  O   UNL     1      10.382   1.934  23.864  0.00  0.00    -0.485 OA
BRANCH  37  38
ATOM     38  C   UNL     1      10.238   1.767  22.445  0.00  0.00    +0.229 C 
BRANCH  38  39
ATOM     39  C   UNL     1       9.562   0.440  22.090  0.00  0.00    +0.041 C 
BRANCH  39  40
ATOM     40  C   UNL     1       8.109   0.638  21.649  0.00  0.00    +0.003 C 
BRANCH  40  41
ATOM     41  C   UNL     1       7.677   2.108  21.578  0.00  0.00    +0.002 C 
BRANCH  41  42
ATOM     42  C   UNL     1       6.363   2.376  22.310  0.00  0.00    +0.030 C 
BRANCH  42  43
ATOM     43  C   UNL     1       6.186   3.854  22.650  0.00  0.00    +0.234 C 
BRANCH  43  44
ATOM     44  N   UNL     1       7.149   4.618  21.848  0.00  0.00    +0.076 NA
ATOM     45  N   UNL     1       7.211   5.834  22.093  0.00  0.00    -0.015 NA
ATOM     46  N   UNL     1       7.266   6.951  22.315  0.00  0.00    -0.328 NA
ENDBRANCH  43  44
ENDBRANCH  42  43
ENDBRANCH  41  42
ENDBRANCH  40  41
ENDBRANCH  39  40
ENDBRANCH  38  39
ENDBRANCH  37  38
ENDBRANCH  11  37
TORSDOF 13
ENDMDL
MODEL 9
REMARK VINA RESULT:      -7.6      2.797      8.943
REMARK  Name = 
REMARK  13 active torsions:
REMARK  status: ('A' for Active; 'I' for Inactive)
REMARK    1  A    between atoms: C_4  and  C_7
REMARK    2  A    between atoms: C_7  and  C_39
REMARK    3  A    between atoms: C_13  and  C_16
REMARK    4  A    between atoms: C_17  and  O_29
REMARK    5  A    between atoms: C_21  and  O_28
REMARK    6  A    between atoms: C_23  and  O_27
REMARK    7  A    between atoms: O_29  and  C_30
REMARK    8  A    between atoms: C_30  and  C_31
REMARK    9  A    between atoms: C_31  and  C_32
REMARK   10  A    between atoms: C_32  and  C_33
REMARK   11  A    between atoms: C_33  and  C_34
REMARK   12  A    between atoms: C_34  and  C_35
REMARK   13  A    between atoms: C_35  and  N_36
REMARK                            x       y       z     vdW  Elec       q    Type
REMARK                         _______ _______ _______ _____ _____    ______ ____
ROOT
ATOM      1  C   UNL     1       7.586  -0.138  22.923  0.00  0.00    +0.181 A 
ATOM      2  O   UNL     1       6.441   0.653  22.705  0.00  0.00    -0.451 OA
ATOM      3  C   UNL     1       6.553   2.023  22.750  0.00  0.00    +0.147 A 
ATOM      4  C   UNL     1       7.782   2.667  22.755  0.00  0.00    +0.109 A 
ATOM      5  C   UNL     1       7.872   4.064  22.780  0.00  0.00    +0.135 A 
ATOM      6  C   UNL     1       6.722   4.834  22.795  0.00  0.00    +0.091 A 
ATOM      7  C   UNL     1       5.489   4.191  22.791  0.00  0.00    +0.124 A 
ATOM      8  C   UNL     1       8.982   1.850  22.733  0.00  0.00    +0.238 A 
ATOM      9  O   UNL     1      10.056   2.414  22.521  0.00  0.00    -0.283 OA
ATOM     10  C   UNL     1       5.392   2.795  22.772  0.00  0.00    +0.092 A 
ATOM     11  C   UNL     1       8.838   0.398  23.014  0.00  0.00    +0.211 A 
ENDROOT
BRANCH   1  16
ATOM     12  C   UNL     1       4.846  -5.050  24.825  0.00  0.00    +0.308 C 
ATOM     13  O   UNL     1       5.057  -3.657  25.165  0.00  0.00    -0.440 OA
ATOM     14  C   UNL     1       6.020  -3.295  24.286  0.00  0.00    +0.168 A 
ATOM     15  C   UNL     1       6.543  -2.026  24.241  0.00  0.00    +0.061 A 
ATOM     16  C   UNL     1       7.247  -1.598  23.113  0.00  0.00    +0.025 A 
ATOM     17  C   UNL     1       7.530  -2.605  22.144  0.00  0.00    +0.015 A 
ATOM     18  C   UNL     1       7.116  -3.958  22.300  0.00  0.00    +0.050 A 
ATOM     19  C   UNL     1       6.340  -4.278  23.393  0.00  0.00    +0.168 A 
ATOM     20  O   UNL     1       5.774  -5.464  23.759  0.00  0.00    -0.440 OA
BRANCH  12  24
ATOM     21  C   UNL     1       0.859  -5.405  23.111  0.00  0.00    +0.000 A 
ATOM     22  C   UNL     1       1.850  -6.315  22.756  0.00  0.00    +0.001 A 
ATOM     23  C   UNL     1       3.102  -6.266  23.375  0.00  0.00    +0.011 A 
ATOM     24  C   UNL     1       3.395  -5.283  24.339  0.00  0.00    +0.041 A 
ATOM     25  C   UNL     1       2.361  -4.404  24.718  0.00  0.00    +0.011 A 
ATOM     26  C   UNL     1       1.105  -4.465  24.109  0.00  0.00    +0.001 A 
ENDBRANCH  12  24
BRANCH  12  27
ATOM     27  C   UNL     1       5.016  -5.784  26.175  0.00  0.00    +0.041 A 
ATOM     28  C   UNL     1       6.190  -5.549  26.936  0.00  0.00    +0.011 A 
ATOM     29  C   UNL     1       6.342  -6.047  28.226  0.00  0.00    +0.001 A 
ATOM     30  C   UNL     1       5.318  -6.796  28.789  0.00  0.00    +0.000 A 
ATOM     31  C   UNL     1       4.158  -7.057  28.056  0.00  0.00    +0.001 A 
ATOM     32  C   UNL     1       4.006  -6.559  26.757  0.00  0.00    +0.011 A 
ENDBRANCH  12  27
ENDBRANCH   1  16
BRANCH   5  33
ATOM     33  O   UNL     1       9.064   4.741  22.789  0.00  0.00    -0.506 OA
ATOM     34  H   UNL     1       8.863   5.705  22.849  0.00  0.00    +0.292 HD
ENDBRANCH   5  33
BRANCH   7  35
ATOM     35  O   UNL     1       4.335   4.919  22.803  0.00  0.00    -0.507 OA
ATOM     36  H   UNL     1       4.313   5.482  22.010  0.00  0.00    +0.292 HD
ENDBRANCH   7  35
BRANCH  11  37
ATOM     37  O   UNL     1       9.980  -0.337  23.333  0.00  0.00    -0.485 OA
BRANCH  37  38
ATOM     38  C   UNL     1       9.989  -0.992  24.611  0.00  0.00    +0.229 C 
BRANCH  38  39
ATOM     39  C   UNL     1       9.550  -0.055  25.738  0.00  0.00    +0.041 C 
BRANCH  39  40
ATOM     40  C   UNL     1       8.741  -0.790  26.810  0.00  0.00    +0.003 C 
BRANCH  40  41
ATOM     41  C   UNL     1       7.516  -0.012  27.306  0.00  0.00    +0.002 C 
BRANCH  41  42
ATOM     42  C   UNL     1       7.065   1.071  26.329  0.00  0.00    +0.030 C 
BRANCH  42  43
ATOM     43  C   UNL     1       5.626   1.512  26.581  0.00  0.00    +0.234 C 
BRANCH  43  44
ATOM     44  N   UNL     1       4.759   0.757  25.668  0.00  0.00    +0.076 NA
ATOM     45  N   UNL     1       4.091  -0.152  26.187  0.00  0.00    -0.015 NA
ATOM     46  N   UNL     1       3.479  -0.989  26.661  0.00  0.00    -0.328 NA
ENDBRANCH  43  44
ENDBRANCH  42  43
ENDBRANCH  41  42
ENDBRANCH  40  41
ENDBRANCH  39  40
ENDBRANCH  38  39
ENDBRANCH  37  38
ENDBRANCH  11  37
TORSDOF 13
ENDMDL
