MODEL 1
REMARK VINA RESULT:      -7.2      0.000      0.000
REMARK  Name = 
REMARK  14 active torsions:
REMARK  status: ('A' for Active; 'I' for Inactive)
REMARK    1  A    between atoms: C_2  and  O_40
REMARK    2  A    between atoms: C_3  and  O_39
REMARK    3  A    between atoms: C_4  and  O_38
REMARK    4  A    between atoms: C_5  and  O_7
REMARK    5  A    between atoms: O_7  and  C_8
REMARK    6  A    between atoms: C_9  and  O_37
REMARK    7  A    between atoms: C_10  and  O_36
REMARK    8  A    between atoms: C_13  and  O_14
REMARK    9  A    between atoms: O_14  and  C_15
REMARK   10  A    between atoms: C_16  and  C_28
REMARK   11  A    between atoms: C_20  and  O_27
REMARK   12  A    between atoms: C_22  and  O_26
REMARK   13  A    between atoms: C_30  and  O_35
REMARK   14  A    between atoms: C_31  and  O_34
REMARK                            x       y       z     vdW  Elec       q    Type
REMARK                         _______ _______ _______ _____ _____    ______ ____
ROOT
ATOM      1  C   UNL     1       6.648  -0.951  25.809  0.00  0.00    +0.214 A 
ATOM      2  C   UNL     1       5.559  -1.296  26.781  0.00  0.00    +0.238 A 
ATOM      3  O   UNL     1       5.608  -2.306  27.468  0.00  0.00    -0.283 OA
ATOM      4  C   UNL     1       4.455  -0.320  26.927  0.00  0.00    +0.109 A 
ATOM      5  C   UNL     1       4.585   0.919  26.300  0.00  0.00    +0.147 A 
ATOM      6  C   UNL     1       3.607   1.902  26.466  0.00  0.00    +0.092 A 
ATOM      7  C   UNL     1       2.498   1.633  27.261  0.00  0.00    +0.124 A 
ATOM      8  C   UNL     1       2.341   0.404  27.877  0.00  0.00    +0.091 A 
ATOM      9  O   UNL     1       5.662   1.248  25.513  0.00  0.00    -0.451 OA
ATOM     10  C   UNL     1       3.320  -0.582  27.710  0.00  0.00    +0.135 A 
ATOM     11  C   UNL     1       6.630   0.289  25.279  0.00  0.00    +0.181 A 
ENDROOT
BRANCH  11  12
ATOM     12  C   UNL     1       7.695   0.755  24.372  0.00  0.00    +0.025 A 
ATOM     13  C   UNL     1       8.890   1.284  24.889  0.00  0.00    +0.015 A 
ATOM     14  C   UNL     1       9.868   1.798  24.036  0.00  0.00    +0.050 A 
ATOM     15  C   UNL     1       9.655   1.766  22.664  0.00  0.00    +0.158 A 
ATOM     16  C   UNL     1       8.481   1.231  22.140  0.00  0.00    +0.159 A 
ATOM     17  C   UNL     1       7.502   0.712  22.984  0.00  0.00    +0.060 A 
BRANCH  15  18
ATOM     18  O   UNL     1      10.604   2.276  21.831  0.00  0.00    -0.503 OA
ATOM     19  H   UNL     1      10.161   3.016  21.370  0.00  0.00    +0.292 HD
ENDBRANCH  15  18
BRANCH  16  20
ATOM     20  O   UNL     1       8.327   1.268  20.783  0.00  0.00    -0.503 OA
ATOM     21  H   UNL     1       8.195   0.352  20.471  0.00  0.00    +0.292 HD
ENDBRANCH  16  20
ENDBRANCH  11  12
BRANCH   7  22
ATOM     22  O   UNL     1       1.518   2.561  27.469  0.00  0.00    -0.507 OA
ATOM     23  H   UNL     1       1.930   3.416  27.653  0.00  0.00    +0.292 HD
ENDBRANCH   7  22
BRANCH  10  24
ATOM     24  O   UNL     1       3.138  -1.791  28.310  0.00  0.00    -0.506 OA
ATOM     25  H   UNL     1       2.356  -1.770  28.888  0.00  0.00    +0.292 HD
ENDBRANCH  10  24
BRANCH   1  26
ATOM     26  O   UNL     1       7.688  -1.834  25.515  0.00  0.00    -0.453 OA
BRANCH  26  28
ATOM     27  C   UNL     1       6.920  -4.150  25.247  0.00  0.00    +0.221 C 
ATOM     28  C   UNL     1       7.398  -2.856  24.544  0.00  0.00    +0.340 C 
ATOM     29  O   UNL     1       8.508  -3.142  23.681  0.00  0.00    -0.337 OA
ATOM     30  C   UNL     1       9.636  -3.669  24.374  0.00  0.00    +0.198 C 
ATOM     31  C   UNL     1       9.321  -4.931  25.173  0.00  0.00    +0.171 C 
ATOM     32  C   UNL     1       8.094  -4.700  26.071  0.00  0.00    +0.180 C 
BRANCH  31  33
ATOM     33  O   UNL     1      10.480  -5.297  25.931  0.00  0.00    -0.387 OA
ATOM     34  H   UNL     1      10.866  -4.487  26.311  0.00  0.00    +0.210 HD
ENDBRANCH  31  33
BRANCH  32  35
ATOM     35  O   UNL     1       7.718  -5.927  26.713  0.00  0.00    -0.386 OA
ATOM     36  H   UNL     1       8.556  -6.375  26.947  0.00  0.00    +0.210 HD
ENDBRANCH  32  35
BRANCH  27  37
ATOM     37  O   UNL     1       6.506  -5.207  24.339  0.00  0.00    -0.337 OA
BRANCH  37  40
ATOM     38  C   UNL     1       3.008  -4.658  25.095  0.00  0.00    +0.197 C 
ATOM     39  O   UNL     1       4.427  -4.512  25.160  0.00  0.00    -0.346 OA
ATOM     40  C   UNL     1       5.096  -5.458  24.326  0.00  0.00    +0.282 C 
ATOM     41  C   UNL     1       4.821  -6.876  24.872  0.00  0.00    +0.201 C 
ATOM     42  C   UNL     1       3.312  -7.137  24.795  0.00  0.00    +0.178 C 
ATOM     43  C   UNL     1       2.532  -6.042  25.546  0.00  0.00    +0.171 C 
BRANCH  41  44
ATOM     44  O   UNL     1       5.223  -7.003  26.254  0.00  0.00    -0.384 OA
ATOM     45  H   UNL     1       6.181  -6.808  26.282  0.00  0.00    +0.210 HD
ENDBRANCH  41  44
BRANCH  42  46
ATOM     46  O   UNL     1       2.998  -8.419  25.350  0.00  0.00    -0.386 OA
ATOM     47  H   UNL     1       2.585  -8.239  26.221  0.00  0.00    +0.210 HD
ENDBRANCH  42  46
BRANCH  43  48
ATOM     48  O   UNL     1       1.122  -6.133  25.322  0.00  0.00    -0.387 OA
ATOM     49  H   UNL     1       0.816  -7.003  25.640  0.00  0.00    +0.210 HD
ENDBRANCH  43  48
ENDBRANCH  37  40
ENDBRANCH  27  37
ENDBRANCH  26  28
ENDBRANCH   1  26
TORSDOF 14
ENDMDL
MODEL 2
REMARK VINA RESULT:      -7.1      3.183      4.956
REMARK  Name = 
REMARK  14 active torsions:
REMARK  status: ('A' for Active; 'I' for Inactive)
REMARK    1  A    between atoms: C_2  and  O_40
REMARK    2  A    between atoms: C_3  and  O_39
REMARK    3  A    between atoms: C_4  and  O_38
REMARK    4  A    between atoms: C_5  and  O_7
REMARK    5  A    between atoms: O_7  and  C_8
REMARK    6  A    between atoms: C_9  and  O_37
REMARK    7  A    between atoms: C_10  and  O_36
REMARK    8  A    between atoms: C_13  and  O_14
REMARK    9  A    between atoms: O_14  and  C_15
REMARK   10  A    between atoms: C_16  and  C_28
REMARK   11  A    between atoms: C_20  and  O_27
REMARK   12  A    between atoms: C_22  and  O_26
REMARK   13  A    between atoms: C_30  and  O_35
REMARK   14  A    between atoms: C_31  and  O_34
REMARK                            x       y       z     vdW  Elec       q    Type
REMARK                         _______ _______ _______ _____ _____    ______ ____
ROOT
ATOM      1  C   UNL     1       6.787   2.523  26.164  0.00  0.00    +0.214 A 
ATOM      2  C   UNL     1       6.428   1.874  27.469  0.00  0.00    +0.238 A 
ATOM      3  O   UNL     1       7.053   0.916  27.903  0.00  0.00    -0.283 OA
ATOM      4  C   UNL     1       5.328   2.490  28.245  0.00  0.00    +0.109 A 
ATOM      5  C   UNL     1       4.826   3.718  27.814  0.00  0.00    +0.147 A 
ATOM      6  C   UNL     1       3.840   4.377  28.550  0.00  0.00    +0.092 A 
ATOM      7  C   UNL     1       3.359   3.797  29.718  0.00  0.00    +0.124 A 
ATOM      8  C   UNL     1       3.831   2.571  30.155  0.00  0.00    +0.091 A 
ATOM      9  O   UNL     1       5.268   4.346  26.674  0.00  0.00    -0.451 OA
ATOM     10  C   UNL     1       4.818   1.909  29.416  0.00  0.00    +0.135 A 
ATOM     11  C   UNL     1       6.208   3.707  25.887  0.00  0.00    +0.181 A 
ENDROOT
BRANCH  11  12
ATOM     12  C   UNL     1       6.549   4.465  24.668  0.00  0.00    +0.025 A 
ATOM     13  C   UNL     1       5.588   4.670  23.664  0.00  0.00    +0.015 A 
ATOM     14  C   UNL     1       5.927   5.318  22.475  0.00  0.00    +0.050 A 
ATOM     15  C   UNL     1       7.226   5.776  22.301  0.00  0.00    +0.158 A 
ATOM     16  C   UNL     1       8.184   5.591  23.296  0.00  0.00    +0.159 A 
ATOM     17  C   UNL     1       7.851   4.949  24.486  0.00  0.00    +0.060 A 
BRANCH  15  18
ATOM     18  O   UNL     1       7.562   6.400  21.138  0.00  0.00    -0.503 OA
ATOM     19  H   UNL     1       8.465   6.083  20.936  0.00  0.00    +0.292 HD
ENDBRANCH  15  18
BRANCH  16  20
ATOM     20  O   UNL     1       9.450   6.037  23.036  0.00  0.00    -0.503 OA
ATOM     21  H   UNL     1       9.736   6.583  23.792  0.00  0.00    +0.292 HD
ENDBRANCH  16  20
ENDBRANCH  11  12
BRANCH   7  22
ATOM     22  O   UNL     1       2.405   4.403  30.485  0.00  0.00    -0.507 OA
ATOM     23  H   UNL     1       2.027   5.141  29.989  0.00  0.00    +0.292 HD
ENDBRANCH   7  22
BRANCH  10  24
ATOM     24  O   UNL     1       5.256   0.695  29.852  0.00  0.00    -0.506 OA
ATOM     25  H   UNL     1       5.968   0.805  30.507  0.00  0.00    +0.292 HD
ENDBRANCH  10  24
BRANCH   1  26
ATOM     26  O   UNL     1       7.739   1.977  25.302  0.00  0.00    -0.453 OA
BRANCH  26  28
ATOM     27  C   UNL     1       8.434  -0.164  24.324  0.00  0.00    +0.221 C 
ATOM     28  C   UNL     1       7.299   0.877  24.485  0.00  0.00    +0.340 C 
ATOM     29  O   UNL     1       6.819   1.291  23.197  0.00  0.00    -0.337 OA
ATOM     30  C   UNL     1       7.824   1.904  22.395  0.00  0.00    +0.198 C 
ATOM     31  C   UNL     1       9.052   1.023  22.181  0.00  0.00    +0.171 C 
ATOM     32  C   UNL     1       9.571   0.497  23.530  0.00  0.00    +0.180 C 
BRANCH  31  33
ATOM     33  O   UNL     1      10.046   1.780  21.481  0.00  0.00    -0.387 OA
ATOM     34  H   UNL     1      10.847   1.819  22.035  0.00  0.00    +0.210 HD
ENDBRANCH  31  33
BRANCH  32  35
ATOM     35  O   UNL     1      10.635  -0.440  23.314  0.00  0.00    -0.386 OA
ATOM     36  H   UNL     1      11.169  -0.434  24.134  0.00  0.00    +0.210 HD
ENDBRANCH  32  35
BRANCH  27  37
ATOM     37  O   UNL     1       8.048  -1.362  23.596  0.00  0.00    -0.337 OA
BRANCH  37  40
ATOM     38  C   UNL     1       7.962  -3.318  26.641  0.00  0.00    +0.197 C 
ATOM     39  O   UNL     1       8.213  -2.215  25.769  0.00  0.00    -0.346 OA
ATOM     40  C   UNL     1       7.883  -2.526  24.415  0.00  0.00    +0.282 C 
ATOM     41  C   UNL     1       8.829  -3.641  23.921  0.00  0.00    +0.201 C 
ATOM     42  C   UNL     1       8.592  -4.888  24.780  0.00  0.00    +0.178 C 
ATOM     43  C   UNL     1       8.775  -4.563  26.274  0.00  0.00    +0.171 C 
BRANCH  41  44
ATOM     44  O   UNL     1      10.217  -3.264  24.060  0.00  0.00    -0.384 OA
ATOM     45  H   UNL     1      10.225  -2.302  24.236  0.00  0.00    +0.210 HD
ENDBRANCH  41  44
BRANCH  42  46
ATOM     46  O   UNL     1       9.493  -5.934  24.401  0.00  0.00    -0.386 OA
ATOM     47  H   UNL     1       9.776  -6.360  25.237  0.00  0.00    +0.210 HD
ENDBRANCH  42  46
BRANCH  43  48
ATOM     48  O   UNL     1       8.360  -5.642  27.116  0.00  0.00    -0.387 OA
ATOM     49  H   UNL     1       8.503  -5.380  28.046  0.00  0.00    +0.210 HD
ENDBRANCH  43  48
ENDBRANCH  37  40
ENDBRANCH  27  37
ENDBRANCH  26  28
ENDBRANCH   1  26
TORSDOF 14
ENDMDL
MODEL 3
REMARK VINA RESULT:      -7.1      1.766      4.973
REMARK  Name = 
REMARK  14 active torsions:
REMARK  status: ('A' for Active; 'I' for Inactive)
REMARK    1  A    between atoms: C_2  and  O_40
REMARK    2  A    between atoms: C_3  and  O_39
REMARK    3  A    between atoms: C_4  and  O_38
REMARK    4  A    between atoms: C_5  and  O_7
REMARK    5  A    between atoms: O_7  and  C_8
REMARK    6  A    between atoms: C_9  and  O_37
REMARK    7  A    between atoms: C_10  and  O_36
REMARK    8  A    between atoms: C_13  and  O_14
REMARK    9  A    between atoms: O_14  and  C_15
REMARK   10  A    between atoms: C_16  and  C_28
REMARK   11  A    between atoms: C_20  and  O_27
REMARK   12  A    between atoms: C_22  and  O_26
REMARK   13  A    between atoms: C_30  and  O_35
REMARK   14  A    between atoms: C_31  and  O_34
REMARK                            x       y       z     vdW  Elec       q    Type
REMARK                         _______ _______ _______ _____ _____    ______ ____
ROOT
ATOM      1  C   UNL     1       6.819  -1.014  25.028  0.00  0.00    +0.214 A 
ATOM      2  C   UNL     1       7.537  -0.386  23.869  0.00  0.00    +0.238 A 
ATOM      3  O   UNL     1       8.435  -0.970  23.278  0.00  0.00    -0.283 OA
ATOM      4  C   UNL     1       7.061   0.943  23.424  0.00  0.00    +0.109 A 
ATOM      5  C   UNL     1       5.882   1.440  23.980  0.00  0.00    +0.147 A 
ATOM      6  C   UNL     1       5.350   2.654  23.543  0.00  0.00    +0.092 A 
ATOM      7  C   UNL     1       6.009   3.368  22.548  0.00  0.00    +0.124 A 
ATOM      8  C   UNL     1       7.189   2.902  21.996  0.00  0.00    +0.091 A 
ATOM      9  O   UNL     1       5.180   0.775  24.957  0.00  0.00    -0.451 OA
ATOM     10  C   UNL     1       7.723   1.686  22.435  0.00  0.00    +0.135 A 
ATOM     11  C   UNL     1       5.695  -0.406  25.457  0.00  0.00    +0.181 A 
ENDROOT
BRANCH  11  12
ATOM     12  C   UNL     1       4.874  -0.981  26.538  0.00  0.00    +0.025 A 
ATOM     13  C   UNL     1       3.854  -1.902  26.246  0.00  0.00    +0.015 A 
ATOM     14  C   UNL     1       3.023  -2.389  27.256  0.00  0.00    +0.050 A 
ATOM     15  C   UNL     1       3.226  -1.965  28.563  0.00  0.00    +0.158 A 
ATOM     16  C   UNL     1       4.243  -1.062  28.866  0.00  0.00    +0.159 A 
ATOM     17  C   UNL     1       5.078  -0.576  27.864  0.00  0.00    +0.060 A 
BRANCH  15  18
ATOM     18  O   UNL     1       2.410  -2.431  29.548  0.00  0.00    -0.503 OA
ATOM     19  H   UNL     1       2.299  -1.675  30.160  0.00  0.00    +0.292 HD
ENDBRANCH  15  18
BRANCH  16  20
ATOM     20  O   UNL     1       4.357  -0.663  30.169  0.00  0.00    -0.503 OA
ATOM     21  H   UNL     1       4.338   0.312  30.186  0.00  0.00    +0.292 HD
ENDBRANCH  16  20
ENDBRANCH  11  12
BRANCH   7  22
ATOM     22  O   UNL     1       5.527   4.554  22.073  0.00  0.00    -0.507 OA
ATOM     23  H   UNL     1       6.207   5.233  22.175  0.00  0.00    +0.292 HD
ENDBRANCH   7  22
BRANCH  10  24
ATOM     24  O   UNL     1       8.895   1.253  21.892  0.00  0.00    -0.506 OA
ATOM     25  H   UNL     1       8.980   1.562  20.973  0.00  0.00    +0.292 HD
ENDBRANCH  10  24
BRANCH   1  26
ATOM     26  O   UNL     1       7.239  -2.217  25.596  0.00  0.00    -0.453 OA
BRANCH  26  28
ATOM     27  C   UNL     1       6.508  -4.501  26.120  0.00  0.00    +0.221 C 
ATOM     28  C   UNL     1       6.682  -3.417  25.028  0.00  0.00    +0.340 C 
ATOM     29  O   UNL     1       7.456  -3.933  23.936  0.00  0.00    -0.337 OA
ATOM     30  C   UNL     1       8.767  -4.338  24.319  0.00  0.00    +0.198 C 
ATOM     31  C   UNL     1       8.777  -5.377  25.439  0.00  0.00    +0.171 C 
ATOM     32  C   UNL     1       7.906  -4.902  26.614  0.00  0.00    +0.180 C 
BRANCH  31  33
ATOM     33  O   UNL     1      10.133  -5.612  25.836  0.00  0.00    -0.387 OA
ATOM     34  H   UNL     1      10.554  -4.751  26.014  0.00  0.00    +0.210 HD
ENDBRANCH  31  33
BRANCH  32  35
ATOM     35  O   UNL     1       7.806  -5.938  27.600  0.00  0.00    -0.386 OA
ATOM     36  H   UNL     1       6.849  -6.066  27.759  0.00  0.00    +0.210 HD
ENDBRANCH  32  35
BRANCH  27  37
ATOM     37  O   UNL     1       5.856  -5.716  25.658  0.00  0.00    -0.337 OA
BRANCH  37  40
ATOM     38  C   UNL     1       2.245  -5.839  25.899  0.00  0.00    +0.197 C 
ATOM     39  O   UNL     1       3.615  -6.088  26.220  0.00  0.00    -0.346 OA
ATOM     40  C   UNL     1       4.496  -5.537  25.243  0.00  0.00    +0.282 C 
ATOM     41  C   UNL     1       4.268  -6.270  23.903  0.00  0.00    +0.201 C 
ATOM     42  C   UNL     1       2.823  -6.016  23.457  0.00  0.00    +0.178 C 
ATOM     43  C   UNL     1       1.831  -6.445  24.555  0.00  0.00    +0.171 C 
BRANCH  41  44
ATOM     44  O   UNL     1       4.445  -7.698  24.040  0.00  0.00    -0.384 OA
ATOM     45  H   UNL     1       3.876  -8.112  23.361  0.00  0.00    +0.210 HD
ENDBRANCH  41  44
BRANCH  42  46
ATOM     46  O   UNL     1       2.541  -6.729  22.248  0.00  0.00    -0.386 OA
ATOM     47  H   UNL     1       3.181  -7.471  22.220  0.00  0.00    +0.210 HD
ENDBRANCH  42  46
BRANCH  43  48
ATOM     48  O   UNL     1       0.493  -6.032  24.263  0.00  0.00    -0.387 OA
ATOM     49  H   UNL     1       0.106  -5.646  25.072  0.00  0.00    +0.210 HD
ENDBRANCH  43  48
ENDBRANCH  37  40
ENDBRANCH  27  37
ENDBRANCH  26  28
ENDBRANCH   1  26
TORSDOF 14
ENDMDL
MODEL 4
REMARK VINA RESULT:      -7.1      2.640      7.660
REMARK  Name = 
REMARK  14 active torsions:
REMARK  status: ('A' for Active; 'I' for Inactive)
REMARK    1  A    between atoms: C_2  and  O_40
REMARK    2  A    between atoms: C_3  and  O_39
REMARK    3  A    between atoms: C_4  and  O_38
REMARK    4  A    between atoms: C_5  and  O_7
REMARK    5  A    between atoms: O_7  and  C_8
REMARK    6  A    between atoms: C_9  and  O_37
REMARK    7  A    between atoms: C_10  and  O_36
REMARK    8  A    between atoms: C_13  and  O_14
REMARK    9  A    between atoms: O_14  and  C_15
REMARK   10  A    between atoms: C_16  and  C_28
REMARK   11  A    between atoms: C_20  and  O_27
REMARK   12  A    between atoms: C_22  and  O_26
REMARK   13  A    between atoms: C_30  and  O_35
REMARK   14  A    between atoms: C_31  and  O_34
REMARK                            x       y       z     vdW  Elec       q    Type
REMARK                         _______ _______ _______ _____ _____    ______ ____
ROOT
ATOM      1  C   UNL     1       7.143  -1.503  25.247  0.00  0.00    +0.214 A 
ATOM      2  C   UNL     1       6.245  -2.681  25.491  0.00  0.00    +0.238 A 
ATOM      3  O   UNL     1       5.450  -2.699  26.420  0.00  0.00    -0.283 OA
ATOM      4  C   UNL     1       6.311  -3.789  24.513  0.00  0.00    +0.109 A 
ATOM      5  C   UNL     1       7.055  -3.597  23.349  0.00  0.00    +0.147 A 
ATOM      6  C   UNL     1       7.090  -4.582  22.360  0.00  0.00    +0.092 A 
ATOM      7  C   UNL     1       6.378  -5.762  22.548  0.00  0.00    +0.124 A 
ATOM      8  C   UNL     1       5.648  -5.981  23.703  0.00  0.00    +0.091 A 
ATOM      9  O   UNL     1       7.769  -2.449  23.101  0.00  0.00    -0.451 OA
ATOM     10  C   UNL     1       5.614  -4.994  24.695  0.00  0.00    +0.135 A 
ATOM     11  C   UNL     1       7.805  -1.467  24.073  0.00  0.00    +0.181 A 
ENDROOT
BRANCH  11  12
ATOM     12  C   UNL     1       8.653  -0.320  23.702  0.00  0.00    +0.025 A 
ATOM     13  C   UNL     1       9.847  -0.062  24.396  0.00  0.00    +0.015 A 
ATOM     14  C   UNL     1      10.613   1.067  24.100  0.00  0.00    +0.050 A 
ATOM     15  C   UNL     1      10.191   1.928  23.096  0.00  0.00    +0.158 A 
ATOM     16  C   UNL     1       9.016   1.675  22.392  0.00  0.00    +0.159 A 
ATOM     17  C   UNL     1       8.249   0.548  22.678  0.00  0.00    +0.060 A 
BRANCH  15  18
ATOM     18  O   UNL     1      10.932   3.034  22.813  0.00  0.00    -0.503 OA
ATOM     19  H   UNL     1      10.308   3.648  22.377  0.00  0.00    +0.292 HD
ENDBRANCH  15  18
BRANCH  16  20
ATOM     20  O   UNL     1       8.646   2.587  21.444  0.00  0.00    -0.503 OA
ATOM     21  H   UNL     1       7.864   2.235  20.978  0.00  0.00    +0.292 HD
ENDBRANCH  16  20
ENDBRANCH  11  12
BRANCH   7  22
ATOM     22  O   UNL     1       6.365  -6.753  21.609  0.00  0.00    -0.507 OA
ATOM     23  H   UNL     1       5.918  -7.527  21.975  0.00  0.00    +0.292 HD
ENDBRANCH   7  22
BRANCH  10  24
ATOM     24  O   UNL     1       4.904  -5.235  25.832  0.00  0.00    -0.506 OA
ATOM     25  H   UNL     1       5.458  -5.083  26.617  0.00  0.00    +0.292 HD
ENDBRANCH  10  24
BRANCH   1  26
ATOM     26  O   UNL     1       7.240  -0.444  26.151  0.00  0.00    -0.453 OA
BRANCH  26  28
ATOM     27  C   UNL     1       7.128   1.982  26.502  0.00  0.00    +0.221 C 
ATOM     28  C   UNL     1       6.497   0.743  25.820  0.00  0.00    +0.340 C 
ATOM     29  O   UNL     1       5.106   0.648  26.155  0.00  0.00    -0.337 OA
ATOM     30  C   UNL     1       4.874   0.504  27.553  0.00  0.00    +0.198 C 
ATOM     31  C   UNL     1       5.485   1.628  28.388  0.00  0.00    +0.171 C 
ATOM     32  C   UNL     1       6.966   1.818  28.020  0.00  0.00    +0.180 C 
BRANCH  31  33
ATOM     33  O   UNL     1       5.311   1.318  29.775  0.00  0.00    -0.387 OA
ATOM     34  H   UNL     1       5.990   0.667  30.031  0.00  0.00    +0.210 HD
ENDBRANCH  31  33
BRANCH  32  35
ATOM     35  O   UNL     1       7.498   2.962  28.703  0.00  0.00    -0.386 OA
ATOM     36  H   UNL     1       7.035   3.000  29.564  0.00  0.00    +0.210 HD
ENDBRANCH  32  35
BRANCH  27  37
ATOM     37  O   UNL     1       6.504   3.245  26.142  0.00  0.00    -0.337 OA
BRANCH  37  40
ATOM     38  C   UNL     1       8.201   5.229  23.633  0.00  0.00    +0.197 C 
ATOM     39  O   UNL     1       7.762   4.797  24.922  0.00  0.00    -0.346 OA
ATOM     40  C   UNL     1       6.834   3.716  24.830  0.00  0.00    +0.282 C 
ATOM     41  C   UNL     1       5.555   4.224  24.130  0.00  0.00    +0.201 C 
ATOM     42  C   UNL     1       5.929   4.670  22.711  0.00  0.00    +0.178 C 
ATOM     43  C   UNL     1       7.052   5.723  22.750  0.00  0.00    +0.171 C 
BRANCH  41  44
ATOM     44  O   UNL     1       4.986   5.361  24.816  0.00  0.00    -0.384 OA
ATOM     45  H   UNL     1       5.703   5.739  25.364  0.00  0.00    +0.210 HD
ENDBRANCH  41  44
BRANCH  42  46
ATOM     46  O   UNL     1       4.785   5.209  22.040  0.00  0.00    -0.386 OA
ATOM     47  H   UNL     1       4.990   6.154  21.881  0.00  0.00    +0.210 HD
ENDBRANCH  42  46
BRANCH  43  48
ATOM     48  O   UNL     1       7.570   6.007  21.447  0.00  0.00    -0.387 OA
ATOM     49  H   UNL     1       8.458   6.399  21.548  0.00  0.00    +0.210 HD
ENDBRANCH  43  48
ENDBRANCH  37  40
ENDBRANCH  27  37
ENDBRANCH  26  28
ENDBRANCH   1  26
TORSDOF 14
ENDMDL
MODEL 5
REMARK VINA RESULT:      -7.0      2.576      7.579
REMARK  Name = 
REMARK  14 active torsions:
REMARK  status: ('A' for Active; 'I' for Inactive)
REMARK    1  A    between atoms: C_2  and  O_40
REMARK    2  A    between atoms: C_3  and  O_39
REMARK    3  A    between atoms: C_4  and  O_38
REMARK    4  A    between atoms: C_5  and  O_7
REMARK    5  A    between atoms: O_7  and  C_8
REMARK    6  A    between atoms: C_9  and  O_37
REMARK    7  A    between atoms: C_10  and  O_36
REMARK    8  A    between atoms: C_13  and  O_14
REMARK    9  A    between atoms: O_14  and  C_15
REMARK   10  A    between atoms: C_16  and  C_28
REMARK   11  A    between atoms: C_20  and  O_27
REMARK   12  A    between atoms: C_22  and  O_26
REMARK   13  A    between atoms: C_30  and  O_35
REMARK   14  A    between atoms: C_31  and  O_34
REMARK                            x       y       z     vdW  Elec       q    Type
REMARK                         _______ _______ _______ _____ _____    ______ ____
ROOT
ATOM      1  C   UNL     1       5.732  -1.029  25.020  0.00  0.00    +0.214 A 
ATOM      2  C   UNL     1       5.073  -0.024  25.919  0.00  0.00    +0.238 A 
ATOM      3  O   UNL     1       5.242   1.178  25.770  0.00  0.00    -0.283 OA
ATOM      4  C   UNL     1       4.149  -0.549  26.949  0.00  0.00    +0.109 A 
ATOM      5  C   UNL     1       3.813  -1.902  26.905  0.00  0.00    +0.147 A 
ATOM      6  C   UNL     1       2.889  -2.432  27.807  0.00  0.00    +0.092 A 
ATOM      7  C   UNL     1       2.308  -1.598  28.756  0.00  0.00    +0.124 A 
ATOM      8  C   UNL     1       2.640  -0.256  28.829  0.00  0.00    +0.091 A 
ATOM      9  O   UNL     1       4.345  -2.773  25.984  0.00  0.00    -0.451 OA
ATOM     10  C   UNL     1       3.567   0.275  27.925  0.00  0.00    +0.135 A 
ATOM     11  C   UNL     1       5.301  -2.304  25.103  0.00  0.00    +0.181 A 
ENDROOT
BRANCH  11  12
ATOM     12  C   UNL     1       5.828  -3.354  24.212  0.00  0.00    +0.025 A 
ATOM     13  C   UNL     1       6.747  -4.301  24.693  0.00  0.00    +0.015 A 
ATOM     14  C   UNL     1       7.308  -5.249  23.835  0.00  0.00    +0.050 A 
ATOM     15  C   UNL     1       6.934  -5.257  22.498  0.00  0.00    +0.158 A 
ATOM     16  C   UNL     1       6.013  -4.332  22.013  0.00  0.00    +0.159 A 
ATOM     17  C   UNL     1       5.446  -3.386  22.864  0.00  0.00    +0.060 A 
BRANCH  15  18
ATOM     18  O   UNL     1       7.487  -6.175  21.658  0.00  0.00    -0.503 OA
ATOM     19  H   UNL     1       8.437  -6.188  21.893  0.00  0.00    +0.292 HD
ENDBRANCH  15  18
BRANCH  16  20
ATOM     20  O   UNL     1       5.722  -4.379  20.678  0.00  0.00    -0.503 OA
ATOM     21  H   UNL     1       5.729  -5.315  20.403  0.00  0.00    +0.292 HD
ENDBRANCH  16  20
ENDBRANCH  11  12
BRANCH   7  22
ATOM     22  O   UNL     1       1.389  -2.059  29.654  0.00  0.00    -0.507 OA
ATOM     23  H   UNL     1       0.502  -1.892  29.310  0.00  0.00    +0.292 HD
ENDBRANCH   7  22
BRANCH  10  24
ATOM     24  O   UNL     1       3.895   1.593  28.025  0.00  0.00    -0.506 OA
ATOM     25  H   UNL     1       3.223   2.145  27.590  0.00  0.00    +0.292 HD
ENDBRANCH  10  24
BRANCH   1  26
ATOM     26  O   UNL     1       6.694  -0.663  24.078  0.00  0.00    -0.453 OA
BRANCH  26  28
ATOM     27  C   UNL     1       8.500   0.945  23.659  0.00  0.00    +0.221 C 
ATOM     28  C   UNL     1       7.930  -0.145  24.600  0.00  0.00    +0.340 C 
ATOM     29  O   UNL     1       8.914  -1.163  24.831  0.00  0.00    -0.337 OA
ATOM     30  C   UNL     1       9.323  -1.828  23.640  0.00  0.00    +0.198 C 
ATOM     31  C   UNL     1       9.866  -0.881  22.572  0.00  0.00    +0.171 C 
ATOM     32  C   UNL     1       8.876   0.272  22.331  0.00  0.00    +0.180 C 
BRANCH  31  33
ATOM     33  O   UNL     1      10.120  -1.629  21.378  0.00  0.00    -0.387 OA
ATOM     34  H   UNL     1       9.753  -2.524  21.494  0.00  0.00    +0.210 HD
ENDBRANCH  31  33
BRANCH  32  35
ATOM     35  O   UNL     1       9.450   1.232  21.433  0.00  0.00    -0.386 OA
ATOM     36  H   UNL     1       9.133   0.988  20.540  0.00  0.00    +0.210 HD
ENDBRANCH  32  35
BRANCH  27  37
ATOM     37  O   UNL     1       9.698   1.600  24.159  0.00  0.00    -0.337 OA
BRANCH  37  40
ATOM     38  C   UNL     1       8.242   4.891  23.759  0.00  0.00    +0.197 C 
ATOM     39  O   UNL     1       8.464   3.495  23.553  0.00  0.00    -0.346 OA
ATOM     40  C   UNL     1       9.578   3.020  24.310  0.00  0.00    +0.282 C 
ATOM     41  C   UNL     1      10.859   3.703  23.784  0.00  0.00    +0.201 C 
ATOM     42  C   UNL     1      10.724   5.214  24.009  0.00  0.00    +0.178 C 
ATOM     43  C   UNL     1       9.441   5.750  23.347  0.00  0.00    +0.171 C 
BRANCH  41  44
ATOM     44  O   UNL     1      11.039   3.480  22.368  0.00  0.00    -0.384 OA
ATOM     45  H   UNL     1      10.332   3.983  21.917  0.00  0.00    +0.210 HD
ENDBRANCH  41  44
BRANCH  42  46
ATOM     46  O   UNL     1      11.863   5.901  23.479  0.00  0.00    -0.386 OA
ATOM     47  H   UNL     1      12.185   5.349  22.735  0.00  0.00    +0.210 HD
ENDBRANCH  42  46
BRANCH  43  48
ATOM     48  O   UNL     1       9.173   7.107  23.710  0.00  0.00    -0.387 OA
ATOM     49  H   UNL     1       8.743   7.550  22.954  0.00  0.00    +0.210 HD
ENDBRANCH  43  48
ENDBRANCH  37  40
ENDBRANCH  27  37
ENDBRANCH  26  28
ENDBRANCH   1  26
TORSDOF 14
ENDMDL
MODEL 6
REMARK VINA RESULT:      -7.0      2.078      5.788
REMARK  Name = 
REMARK  14 active torsions:
REMARK  status: ('A' for Active; 'I' for Inactive)
REMARK    1  A    between atoms: C_2  and  O_40
REMARK    2  A    between atoms: C_3  and  O_39
REMARK    3  A    between atoms: C_4  and  O_38
REMARK    4  A    between atoms: C_5  and  O_7
REMARK    5  A    between atoms: O_7  and  C_8
REMARK    6  A    between atoms: C_9  and  O_37
REMARK    7  A    between atoms: C_10  and  O_36
REMARK    8  A    between atoms: C_13  and  O_14
REMARK    9  A    between atoms: O_14  and  C_15
REMARK   10  A    between atoms: C_16  and  C_28
REMARK   11  A    between atoms: C_20  and  O_27
REMARK   12  A    between atoms: C_22  and  O_26
REMARK   13  A    between atoms: C_30  and  O_35
REMARK   14  A    between atoms: C_31  and  O_34
REMARK                            x       y       z     vdW  Elec       q    Type
REMARK                         _______ _______ _______ _____ _____    ______ ____
ROOT
ATOM      1  C   UNL     1       7.662   1.341  24.757  0.00  0.00    +0.214 A 
ATOM      2  C   UNL     1       7.897   2.777  25.125  0.00  0.00    +0.238 A 
ATOM      3  O   UNL     1       7.216   3.343  25.969  0.00  0.00    -0.283 OA
ATOM      4  C   UNL     1       9.038   3.459  24.474  0.00  0.00    +0.109 A 
ATOM      5  C   UNL     1       9.918   2.689  23.713  0.00  0.00    +0.147 A 
ATOM      6  C   UNL     1      11.050   3.269  23.138  0.00  0.00    +0.092 A 
ATOM      7  C   UNL     1      11.294   4.625  23.329  0.00  0.00    +0.124 A 
ATOM      8  C   UNL     1      10.425   5.410  24.066  0.00  0.00    +0.091 A 
ATOM      9  O   UNL     1       9.737   1.344  23.498  0.00  0.00    -0.451 OA
ATOM     10  C   UNL     1       9.288   4.830  24.641  0.00  0.00    +0.135 A 
ATOM     11  C   UNL     1       8.603   0.737  24.005  0.00  0.00    +0.181 A 
ENDROOT
BRANCH  11  12
ATOM     12  C   UNL     1       8.507  -0.691  23.651  0.00  0.00    +0.025 A 
ATOM     13  C   UNL     1       7.533  -1.136  22.742  0.00  0.00    +0.015 A 
ATOM     14  C   UNL     1       7.387  -2.496  22.464  0.00  0.00    +0.050 A 
ATOM     15  C   UNL     1       8.230  -3.408  23.085  0.00  0.00    +0.158 A 
ATOM     16  C   UNL     1       9.208  -2.977  23.977  0.00  0.00    +0.159 A 
ATOM     17  C   UNL     1       9.363  -1.622  24.256  0.00  0.00    +0.060 A 
BRANCH  15  18
ATOM     18  O   UNL     1       8.082  -4.736  22.821  0.00  0.00    -0.503 OA
ATOM     19  H   UNL     1       8.531  -4.872  21.962  0.00  0.00    +0.292 HD
ENDBRANCH  15  18
BRANCH  16  20
ATOM     20  O   UNL     1       9.975  -3.937  24.576  0.00  0.00    -0.503 OA
ATOM     21  H   UNL     1       9.376  -4.611  24.949  0.00  0.00    +0.292 HD
ENDBRANCH  16  20
ENDBRANCH  11  12
BRANCH   7  22
ATOM     22  O   UNL     1      12.392   5.241  22.802  0.00  0.00    -0.507 OA
ATOM     23  H   UNL     1      13.080   5.289  23.479  0.00  0.00    +0.292 HD
ENDBRANCH   7  22
BRANCH  10  24
ATOM     24  O   UNL     1       8.436   5.623  25.347  0.00  0.00    -0.506 OA
ATOM     25  H   UNL     1       8.912   6.087  26.058  0.00  0.00    +0.292 HD
ENDBRANCH  10  24
BRANCH   1  26
ATOM     26  O   UNL     1       6.562   0.625  25.231  0.00  0.00    -0.453 OA
BRANCH  26  28
ATOM     27  C   UNL     1       5.757  -1.548  26.039  0.00  0.00    +0.221 C 
ATOM     28  C   UNL     1       6.849  -0.454  26.138  0.00  0.00    +0.340 C 
ATOM     29  O   UNL     1       6.995  -0.022  27.498  0.00  0.00    -0.337 OA
ATOM     30  C   UNL     1       5.804   0.542  28.038  0.00  0.00    +0.198 C 
ATOM     31  C   UNL     1       4.601  -0.396  27.967  0.00  0.00    +0.171 C 
ATOM     32  C   UNL     1       4.437  -0.943  26.539  0.00  0.00    +0.180 C 
BRANCH  31  33
ATOM     33  O   UNL     1       3.438   0.311  28.408  0.00  0.00    -0.387 OA
ATOM     34  H   UNL     1       2.719  -0.333  28.542  0.00  0.00    +0.210 HD
ENDBRANCH  31  33
BRANCH  32  35
ATOM     35  O   UNL     1       3.396  -1.930  26.509  0.00  0.00    -0.386 OA
ATOM     36  H   UNL     1       2.566  -1.440  26.341  0.00  0.00    +0.210 HD
ENDBRANCH  32  35
BRANCH  27  37
ATOM     37  O   UNL     1       6.018  -2.728  26.847  0.00  0.00    -0.337 OA
BRANCH  37  40
ATOM     38  C   UNL     1       4.998  -5.005  24.223  0.00  0.00    +0.197 C 
ATOM     39  O   UNL     1       5.037  -3.825  25.026  0.00  0.00    -0.346 OA
ATOM     40  C   UNL     1       5.928  -3.967  26.133  0.00  0.00    +0.282 C 
ATOM     41  C   UNL     1       5.377  -5.063  27.071  0.00  0.00    +0.201 C 
ATOM     42  C   UNL     1       5.344  -6.386  26.297  0.00  0.00    +0.178 C 
ATOM     43  C   UNL     1       4.526  -6.237  25.000  0.00  0.00    +0.171 C 
BRANCH  41  44
ATOM     44  O   UNL     1       4.030  -4.768  27.503  0.00  0.00    -0.384 OA
ATOM     45  H   UNL     1       3.786  -3.918  27.085  0.00  0.00    +0.210 HD
ENDBRANCH  41  44
BRANCH  42  46
ATOM     46  O   UNL     1       4.780  -7.423  27.106  0.00  0.00    -0.386 OA
ATOM     47  H   UNL     1       4.477  -8.115  26.481  0.00  0.00    +0.210 HD
ENDBRANCH  42  46
BRANCH  43  48
ATOM     48  O   UNL     1       4.646  -7.383  24.153  0.00  0.00    -0.387 OA
ATOM     49  H   UNL     1       3.792  -7.523  23.701  0.00  0.00    +0.210 HD
ENDBRANCH  43  48
ENDBRANCH  37  40
ENDBRANCH  27  37
ENDBRANCH  26  28
ENDBRANCH   1  26
TORSDOF 14
ENDMDL
MODEL 7
REMARK VINA RESULT:      -6.9      1.965      6.829
REMARK  Name = 
REMARK  14 active torsions:
REMARK  status: ('A' for Active; 'I' for Inactive)
REMARK    1  A    between atoms: C_2  and  O_40
REMARK    2  A    between atoms: C_3  and  O_39
REMARK    3  A    between atoms: C_4  and  O_38
REMARK    4  A    between atoms: C_5  and  O_7
REMARK    5  A    between atoms: O_7  and  C_8
REMARK    6  A    between atoms: C_9  and  O_37
REMARK    7  A    between atoms: C_10  and  O_36
REMARK    8  A    between atoms: C_13  and  O_14
REMARK    9  A    between atoms: O_14  and  C_15
REMARK   10  A    between atoms: C_16  and  C_28
REMARK   11  A    between atoms: C_20  and  O_27
REMARK   12  A    between atoms: C_22  and  O_26
REMARK   13  A    between atoms: C_30  and  O_35
REMARK   14  A    between atoms: C_31  and  O_34
REMARK                            x       y       z     vdW  Elec       q    Type
REMARK                         _______ _______ _______ _____ _____    ______ ____
ROOT
ATOM      1  C   UNL     1       6.315  -3.401  25.921  0.00  0.00    +0.214 A 
ATOM      2  C   UNL     1       6.878  -2.105  26.427  0.00  0.00    +0.238 A 
ATOM      3  O   UNL     1       8.044  -1.792  26.232  0.00  0.00    -0.283 OA
ATOM      4  C   UNL     1       5.939  -1.187  27.110  0.00  0.00    +0.109 A 
ATOM      5  C   UNL     1       4.579  -1.494  27.081  0.00  0.00    +0.147 A 
ATOM      6  C   UNL     1       3.643  -0.625  27.645  0.00  0.00    +0.092 A 
ATOM      7  C   UNL     1       4.081   0.553  28.242  0.00  0.00    +0.124 A 
ATOM      8  C   UNL     1       5.427   0.869  28.297  0.00  0.00    +0.091 A 
ATOM      9  O   UNL     1       4.084  -2.636  26.497  0.00  0.00    -0.451 OA
ATOM     10  C   UNL     1       6.365  -0.003  27.733  0.00  0.00    +0.135 A 
ATOM     11  C   UNL     1       4.977  -3.551  25.969  0.00  0.00    +0.181 A 
ENDROOT
BRANCH  11  12
ATOM     12  C   UNL     1       4.316  -4.754  25.429  0.00  0.00    +0.025 A 
ATOM     13  C   UNL     1       4.585  -6.020  25.974  0.00  0.00    +0.015 A 
ATOM     14  C   UNL     1       4.023  -7.170  25.416  0.00  0.00    +0.050 A 
ATOM     15  C   UNL     1       3.178  -7.047  24.321  0.00  0.00    +0.158 A 
ATOM     16  C   UNL     1       2.894  -5.795  23.781  0.00  0.00    +0.159 A 
ATOM     17  C   UNL     1       3.447  -4.644  24.335  0.00  0.00    +0.060 A 
BRANCH  15  18
ATOM     18  O   UNL     1       2.637  -8.168  23.770  0.00  0.00    -0.503 OA
ATOM     19  H   UNL     1       3.358  -8.557  23.234  0.00  0.00    +0.292 HD
ENDBRANCH  15  18
BRANCH  16  20
ATOM     20  O   UNL     1       2.082  -5.758  22.681  0.00  0.00    -0.503 OA
ATOM     21  H   UNL     1       2.103  -4.850  22.324  0.00  0.00    +0.292 HD
ENDBRANCH  16  20
ENDBRANCH  11  12
BRANCH   7  22
ATOM     22  O   UNL     1       3.211   1.446  28.797  0.00  0.00    -0.507 OA
ATOM     23  H   UNL     1       2.490   1.610  28.175  0.00  0.00    +0.292 HD
ENDBRANCH   7  22
BRANCH  10  24
ATOM     24  O   UNL     1       7.686   0.317  27.814  0.00  0.00    -0.506 OA
ATOM     25  H   UNL     1       8.079  -0.059  28.621  0.00  0.00    +0.292 HD
ENDBRANCH  10  24
BRANCH   1  26
ATOM     26  O   UNL     1       7.121  -4.386  25.349  0.00  0.00    -0.453 OA
BRANCH  26  28
ATOM     27  C   UNL     1       7.240  -3.119  23.251  0.00  0.00    +0.221 C 
ATOM     28  C   UNL     1       8.010  -3.952  24.304  0.00  0.00    +0.340 C 
ATOM     29  O   UNL     1       8.702  -5.036  23.669  0.00  0.00    -0.337 OA
ATOM     30  C   UNL     1       7.831  -5.939  22.994  0.00  0.00    +0.198 C 
ATOM     31  C   UNL     1       6.949  -5.263  21.947  0.00  0.00    +0.171 C 
ATOM     32  C   UNL     1       6.231  -4.049  22.560  0.00  0.00    +0.180 C 
BRANCH  31  33
ATOM     33  O   UNL     1       6.026  -6.228  21.429  0.00  0.00    -0.387 OA
ATOM     34  H   UNL     1       6.498  -7.073  21.316  0.00  0.00    +0.210 HD
ENDBRANCH  31  33
BRANCH  32  35
ATOM     35  O   UNL     1       5.516  -3.337  21.541  0.00  0.00    -0.386 OA
ATOM     36  H   UNL     1       4.623  -3.735  21.511  0.00  0.00    +0.210 HD
ENDBRANCH  32  35
BRANCH  27  37
ATOM     37  O   UNL     1       8.078  -2.551  22.207  0.00  0.00    -0.337 OA
BRANCH  37  40
ATOM     38  C   UNL     1       8.972   0.835  21.290  0.00  0.00    +0.197 C 
ATOM     39  O   UNL     1       8.728  -0.565  21.153  0.00  0.00    -0.346 OA
ATOM     40  C   UNL     1       8.420  -1.174  22.407  0.00  0.00    +0.282 C 
ATOM     41  C   UNL     1       9.662  -1.080  23.319  0.00  0.00    +0.201 C 
ATOM     42  C   UNL     1       9.971   0.403  23.558  0.00  0.00    +0.178 C 
ATOM     43  C   UNL     1      10.149   1.144  22.220  0.00  0.00    +0.171 C 
BRANCH  41  44
ATOM     44  O   UNL     1      10.823  -1.681  22.703  0.00  0.00    -0.384 OA
ATOM     45  H   UNL     1      10.499  -2.454  22.199  0.00  0.00    +0.210 HD
ENDBRANCH  41  44
BRANCH  42  46
ATOM     46  O   UNL     1      11.156   0.544  24.350  0.00  0.00    -0.386 OA
ATOM     47  H   UNL     1      11.856   0.052  23.872  0.00  0.00    +0.210 HD
ENDBRANCH  42  46
BRANCH  43  48
ATOM     48  O   UNL     1      10.230   2.562  22.396  0.00  0.00    -0.387 OA
ATOM     49  H   UNL     1       9.639   2.987  21.746  0.00  0.00    +0.210 HD
ENDBRANCH  43  48
ENDBRANCH  37  40
ENDBRANCH  27  37
ENDBRANCH  26  28
ENDBRANCH   1  26
TORSDOF 14
ENDMDL
MODEL 8
REMARK VINA RESULT:      -6.8      3.889      6.175
REMARK  Name = 
REMARK  14 active torsions:
REMARK  status: ('A' for Active; 'I' for Inactive)
REMARK    1  A    between atoms: C_2  and  O_40
REMARK    2  A    between atoms: C_3  and  O_39
REMARK    3  A    between atoms: C_4  and  O_38
REMARK    4  A    between atoms: C_5  and  O_7
REMARK    5  A    between atoms: O_7  and  C_8
REMARK    6  A    between atoms: C_9  and  O_37
REMARK    7  A    between atoms: C_10  and  O_36
REMARK    8  A    between atoms: C_13  and  O_14
REMARK    9  A    between atoms: O_14  and  C_15
REMARK   10  A    between atoms: C_16  and  C_28
REMARK   11  A    between atoms: C_20  and  O_27
REMARK   12  A    between atoms: C_22  and  O_26
REMARK   13  A    between atoms: C_30  and  O_35
REMARK   14  A    between atoms: C_31  and  O_34
REMARK                            x       y       z     vdW  Elec       q    Type
REMARK                         _______ _______ _______ _____ _____    ______ ____
ROOT
ATOM      1  C   UNL     1       6.014   3.682  23.932  0.00  0.00    +0.214 A 
ATOM      2  C   UNL     1       4.629   3.233  23.563  0.00  0.00    +0.238 A 
ATOM      3  O   UNL     1       4.212   2.124  23.866  0.00  0.00    -0.283 OA
ATOM      4  C   UNL     1       3.763   4.221  22.881  0.00  0.00    +0.109 A 
ATOM      5  C   UNL     1       4.213   5.538  22.787  0.00  0.00    +0.147 A 
ATOM      6  C   UNL     1       3.404   6.524  22.219  0.00  0.00    +0.092 A 
ATOM      7  C   UNL     1       2.143   6.180  21.743  0.00  0.00    +0.124 A 
ATOM      8  C   UNL     1       1.685   4.876  21.810  0.00  0.00    +0.091 A 
ATOM      9  O   UNL     1       5.443   5.941  23.249  0.00  0.00    -0.451 OA
ATOM     10  C   UNL     1       2.496   3.887  22.378  0.00  0.00    +0.135 A 
ATOM     11  C   UNL     1       6.299   4.989  23.774  0.00  0.00    +0.181 A 
ENDROOT
BRANCH  11  12
ATOM     12  C   UNL     1       7.603   5.547  24.176  0.00  0.00    +0.025 A 
ATOM     13  C   UNL     1       8.605   5.777  23.219  0.00  0.00    +0.015 A 
ATOM     14  C   UNL     1       9.868   6.232  23.606  0.00  0.00    +0.050 A 
ATOM     15  C   UNL     1      10.119   6.471  24.950  0.00  0.00    +0.158 A 
ATOM     16  C   UNL     1       9.128   6.260  25.906  0.00  0.00    +0.159 A 
ATOM     17  C   UNL     1       7.865   5.812  25.528  0.00  0.00    +0.060 A 
BRANCH  15  18
ATOM     18  O   UNL     1      11.352   6.905  25.329  0.00  0.00    -0.503 OA
ATOM     19  H   UNL     1      11.376   7.849  25.070  0.00  0.00    +0.292 HD
ENDBRANCH  15  18
BRANCH  16  20
ATOM     20  O   UNL     1       9.462   6.483  27.213  0.00  0.00    -0.503 OA
ATOM     21  H   UNL     1      10.430   6.394  27.294  0.00  0.00    +0.292 HD
ENDBRANCH  16  20
ENDBRANCH  11  12
BRANCH   7  22
ATOM     22  O   UNL     1       1.305   7.105  21.190  0.00  0.00    -0.507 OA
ATOM     23  H   UNL     1       0.409   6.745  21.171  0.00  0.00    +0.292 HD
ENDBRANCH   7  22
BRANCH  10  24
ATOM     24  O   UNL     1       2.034   2.606  22.418  0.00  0.00    -0.506 OA
ATOM     25  H   UNL     1       1.551   2.393  21.601  0.00  0.00    +0.292 HD
ENDBRANCH  10  24
BRANCH   1  26
ATOM     26  O   UNL     1       6.951   2.811  24.489  0.00  0.00    -0.453 OA
BRANCH  26  28
ATOM     27  C   UNL     1       8.230   0.717  24.506  0.00  0.00    +0.221 C 
ATOM     28  C   UNL     1       7.268   1.639  23.717  0.00  0.00    +0.340 C 
ATOM     29  O   UNL     1       7.821   1.947  22.430  0.00  0.00    -0.337 OA
ATOM     30  C   UNL     1       9.070   2.629  22.504  0.00  0.00    +0.198 C 
ATOM     31  C   UNL     1      10.128   1.873  23.304  0.00  0.00    +0.171 C 
ATOM     32  C   UNL     1       9.564   1.460  24.674  0.00  0.00    +0.180 C 
BRANCH  31  33
ATOM     33  O   UNL     1      11.289   2.701  23.430  0.00  0.00    -0.387 OA
ATOM     34  H   UNL     1      12.023   2.151  23.763  0.00  0.00    +0.210 HD
ENDBRANCH  31  33
BRANCH  32  35
ATOM     35  O   UNL     1      10.509   0.631  25.364  0.00  0.00    -0.386 OA
ATOM     36  H   UNL     1      11.246   0.485  24.737  0.00  0.00    +0.210 HD
ENDBRANCH  32  35
BRANCH  27  37
ATOM     37  O   UNL     1       8.526  -0.544  23.845  0.00  0.00    -0.337 OA
BRANCH  37  40
ATOM     38  C   UNL     1       8.411  -2.703  26.749  0.00  0.00    +0.197 C 
ATOM     39  O   UNL     1       8.797  -1.614  25.909  0.00  0.00    -0.346 OA
ATOM     40  C   UNL     1       8.201  -1.707  24.615  0.00  0.00    +0.282 C 
ATOM     41  C   UNL     1       8.754  -2.963  23.907  0.00  0.00    +0.201 C 
ATOM     42  C   UNL     1       8.343  -4.194  24.724  0.00  0.00    +0.178 C 
ATOM     43  C   UNL     1       8.824  -4.065  26.182  0.00  0.00    +0.171 C 
BRANCH  41  44
ATOM     44  O   UNL     1      10.196  -2.942  23.832  0.00  0.00    -0.384 OA
ATOM     45  H   UNL     1      10.476  -2.063  24.155  0.00  0.00    +0.210 HD
ENDBRANCH  41  44
BRANCH  42  46
ATOM     46  O   UNL     1       8.887  -5.384  24.141  0.00  0.00    -0.386 OA
ATOM     47  H   UNL     1       9.566  -5.704  24.771  0.00  0.00    +0.210 HD
ENDBRANCH  42  46
BRANCH  43  48
ATOM     48  O   UNL     1       8.283  -5.089  27.021  0.00  0.00    -0.387 OA
ATOM     49  H   UNL     1       8.442  -5.953  26.594  0.00  0.00    +0.210 HD
ENDBRANCH  43  48
ENDBRANCH  37  40
ENDBRANCH  27  37
ENDBRANCH  26  28
ENDBRANCH   1  26
TORSDOF 14
ENDMDL
MODEL 9
REMARK VINA RESULT:      -6.7      1.849      5.546
REMARK  Name = 
REMARK  14 active torsions:
REMARK  status: ('A' for Active; 'I' for Inactive)
REMARK    1  A    between atoms: C_2  and  O_40
REMARK    2  A    between atoms: C_3  and  O_39
REMARK    3  A    between atoms: C_4  and  O_38
REMARK    4  A    between atoms: C_5  and  O_7
REMARK    5  A    between atoms: O_7  and  C_8
REMARK    6  A    between atoms: C_9  and  O_37
REMARK    7  A    between atoms: C_10  and  O_36
REMARK    8  A    between atoms: C_13  and  O_14
REMARK    9  A    between atoms: O_14  and  C_15
REMARK   10  A    between atoms: C_16  and  C_28
REMARK   11  A    between atoms: C_20  and  O_27
REMARK   12  A    between atoms: C_22  and  O_26
REMARK   13  A    between atoms: C_30  and  O_35
REMARK   14  A    between atoms: C_31  and  O_34
REMARK                            x       y       z     vdW  Elec       q    Type
REMARK                         _______ _______ _______ _____ _____    ______ ____
ROOT
ATOM      1  C   UNL     1       6.613   0.132  24.497  0.00  0.00    +0.214 A 
ATOM      2  C   UNL     1       6.880   1.539  24.946  0.00  0.00    +0.238 A 
ATOM      3  O   UNL     1       6.178   2.091  25.782  0.00  0.00    -0.283 OA
ATOM      4  C   UNL     1       8.077   2.206  24.387  0.00  0.00    +0.109 A 
ATOM      5  C   UNL     1       8.966   1.440  23.633  0.00  0.00    +0.147 A 
ATOM      6  C   UNL     1      10.147   2.002  23.144  0.00  0.00    +0.092 A 
ATOM      7  C   UNL     1      10.429   3.337  23.413  0.00  0.00    +0.124 A 
ATOM      8  C   UNL     1       9.552   4.120  24.144  0.00  0.00    +0.091 A 
ATOM      9  O   UNL     1       8.749   0.114  23.344  0.00  0.00    -0.451 OA
ATOM     10  C   UNL     1       8.368   3.557  24.633  0.00  0.00    +0.135 A 
ATOM     11  C   UNL     1       7.569  -0.471  23.764  0.00  0.00    +0.181 A 
ENDROOT
BRANCH  11  12
ATOM     12  C   UNL     1       7.439  -1.876  23.336  0.00  0.00    +0.025 A 
ATOM     13  C   UNL     1       6.492  -2.241  22.366  0.00  0.00    +0.015 A 
ATOM     14  C   UNL     1       6.312  -3.581  22.014  0.00  0.00    +0.050 A 
ATOM     15  C   UNL     1       7.094  -4.552  22.625  0.00  0.00    +0.158 A 
ATOM     16  C   UNL     1       8.046  -4.200  23.578  0.00  0.00    +0.159 A 
ATOM     17  C   UNL     1       8.235  -2.866  23.930  0.00  0.00    +0.060 A 
BRANCH  15  18
ATOM     18  O   UNL     1       6.913  -5.859  22.290  0.00  0.00    -0.503 OA
ATOM     19  H   UNL     1       6.156  -5.856  21.670  0.00  0.00    +0.292 HD
ENDBRANCH  15  18
BRANCH  16  20
ATOM     20  O   UNL     1       8.753  -5.215  24.161  0.00  0.00    -0.503 OA
ATOM     21  H   UNL     1       9.359  -5.582  23.491  0.00  0.00    +0.292 HD
ENDBRANCH  16  20
ENDBRANCH  11  12
BRANCH   7  22
ATOM     22  O   UNL     1      11.575   3.935  22.973  0.00  0.00    -0.507 OA
ATOM     23  H   UNL     1      11.992   4.397  23.711  0.00  0.00    +0.292 HD
ENDBRANCH   7  22
BRANCH  10  24
ATOM     24  O   UNL     1       7.509   4.349  25.334  0.00  0.00    -0.506 OA
ATOM     25  H   UNL     1       7.644   5.285  25.104  0.00  0.00    +0.292 HD
ENDBRANCH  10  24
BRANCH   1  26
ATOM     26  O   UNL     1       5.464  -0.562  24.879  0.00  0.00    -0.453 OA
BRANCH  26  28
ATOM     27  C   UNL     1       4.328  -2.428  25.998  0.00  0.00    +0.221 C 
ATOM     28  C   UNL     1       5.662  -1.676  25.769  0.00  0.00    +0.340 C 
ATOM     29  O   UNL     1       6.239  -1.296  27.026  0.00  0.00    -0.337 OA
ATOM     30  C   UNL     1       5.406  -0.424  27.785  0.00  0.00    +0.198 C 
ATOM     31  C   UNL     1       4.017  -0.996  28.056  0.00  0.00    +0.171 C 
ATOM     32  C   UNL     1       3.376  -1.482  26.745  0.00  0.00    +0.180 C 
BRANCH  31  33
ATOM     33  O   UNL     1       3.224   0.006  28.703  0.00  0.00    -0.387 OA
ATOM     34  H   UNL     1       3.479   0.039  29.643  0.00  0.00    +0.210 HD
ENDBRANCH  31  33
BRANCH  32  35
ATOM     35  O   UNL     1       2.134  -2.144  27.022  0.00  0.00    -0.386 OA
ATOM     36  H   UNL     1       1.463  -1.437  27.095  0.00  0.00    +0.210 HD
ENDBRANCH  32  35
BRANCH  27  37
ATOM     37  O   UNL     1       4.450  -3.631  26.805  0.00  0.00    -0.337 OA
BRANCH  37  40
ATOM     38  C   UNL     1       2.862  -6.885  26.764  0.00  0.00    +0.197 C 
ATOM     39  O   UNL     1       3.584  -5.757  27.262  0.00  0.00    -0.346 OA
ATOM     40  C   UNL     1       3.823  -4.789  26.240  0.00  0.00    +0.282 C 
ATOM     41  C   UNL     1       4.754  -5.413  25.179  0.00  0.00    +0.201 C 
ATOM     42  C   UNL     1       4.034  -6.614  24.555  0.00  0.00    +0.178 C 
ATOM     43  C   UNL     1       3.606  -7.617  25.643  0.00  0.00    +0.171 C 
BRANCH  41  44
ATOM     44  O   UNL     1       5.986  -5.889  25.764  0.00  0.00    -0.384 OA
ATOM     45  H   UNL     1       6.709  -5.551  25.198  0.00  0.00    +0.210 HD
ENDBRANCH  41  44
BRANCH  42  46
ATOM     46  O   UNL     1       4.885  -7.268  23.606  0.00  0.00    -0.386 OA
ATOM     47  H   UNL     1       4.284  -7.704  22.966  0.00  0.00    +0.210 HD
ENDBRANCH  42  46
BRANCH  43  48
ATOM     48  O   UNL     1       2.753  -8.642  25.125  0.00  0.00    -0.387 OA
ATOM     49  H   UNL     1       3.312  -9.370  24.795  0.00  0.00    +0.210 HD
ENDBRANCH  43  48
ENDBRANCH  37  40
ENDBRANCH  27  37
ENDBRANCH  26  28
ENDBRANCH   1  26
TORSDOF 14
ENDMDL
