MODEL 1
REMARK VINA RESULT:      -7.8      0.000      0.000
REMARK  Name = 
REMARK  13 active torsions:
REMARK  status: ('A' for Active; 'I' for Inactive)
REMARK    1  A    between atoms: C_1  and  O_2
REMARK    2  A    between atoms: O_2  and  C_3
REMARK    3  A    between atoms: C_4  and  C_31
REMARK    4  A    between atoms: C_8  and  O_15
REMARK    5  A    between atoms: C_10  and  O_14
REMARK    6  A    between atoms: O_15  and  C_16
REMARK    7  A    between atoms: C_18  and  O_30
REMARK    8  A    between atoms: C_19  and  O_29
REMARK    9  A    between atoms: C_21  and  O_28
REMARK   10  A    between atoms: C_23  and  C_25
REMARK   11  A    between atoms: C_25  and  O_27
REMARK   12  A    between atoms: C_33  and  O_38
REMARK   13  A    between atoms: C_34  and  O_37
REMARK                            x       y       z     vdW  Elec       q    Type
REMARK                         _______ _______ _______ _____ _____    ______ ____
ROOT
ATOM      1  C   UNL     1       9.177   1.369  23.986  0.00  0.00    +0.211 A 
ATOM      2  C   UNL     1       9.659  -0.051  23.911  0.00  0.00    +0.238 A 
ATOM      3  O   UNL     1      10.849  -0.327  24.001  0.00  0.00    -0.283 OA
ATOM      4  C   UNL     1       8.641  -1.102  23.693  0.00  0.00    +0.109 A 
ATOM      5  C   UNL     1       7.323  -0.703  23.509  0.00  0.00    +0.147 A 
ATOM      6  C   UNL     1       6.301  -1.654  23.360  0.00  0.00    +0.093 A 
ATOM      7  C   UNL     1       6.594  -3.022  23.395  0.00  0.00    +0.131 A 
ATOM      8  C   UNL     1       7.925  -3.422  23.506  0.00  0.00    +0.092 A 
ATOM      9  O   UNL     1       6.937   0.613  23.456  0.00  0.00    -0.451 OA
ATOM     10  C   UNL     1       8.940  -2.472  23.666  0.00  0.00    +0.135 A 
ATOM     11  C   UNL     1       7.878   1.598  23.708  0.00  0.00    +0.181 A 
ENDROOT
BRANCH  11  12
ATOM     12  C   UNL     1       7.297   2.953  23.598  0.00  0.00    +0.025 A 
ATOM     13  C   UNL     1       6.300   3.378  24.491  0.00  0.00    +0.015 A 
ATOM     14  C   UNL     1       5.665   4.617  24.314  0.00  0.00    +0.050 A 
ATOM     15  C   UNL     1       6.035   5.427  23.251  0.00  0.00    +0.158 A 
ATOM     16  C   UNL     1       7.046   5.030  22.382  0.00  0.00    +0.159 A 
ATOM     17  C   UNL     1       7.675   3.799  22.542  0.00  0.00    +0.060 A 
BRANCH  15  18
ATOM     18  O   UNL     1       5.395   6.617  23.060  0.00  0.00    -0.503 OA
ATOM     19  H   UNL     1       4.503   6.482  23.438  0.00  0.00    +0.292 HD
ENDBRANCH  15  18
BRANCH  16  20
ATOM     20  O   UNL     1       7.381   5.893  21.372  0.00  0.00    -0.503 OA
ATOM     21  H   UNL     1       8.107   6.460  21.687  0.00  0.00    +0.292 HD
ENDBRANCH  16  20
ENDBRANCH  11  12
BRANCH   1  23
ATOM     22  C   UNL     1      10.879   2.810  23.158  0.00  0.00    +0.277 C 
ATOM     23  O   UNL     1      10.050   2.420  24.255  0.00  0.00    -0.488 OA
ENDBRANCH   1  23
BRANCH  10  24
ATOM     24  O   UNL     1      10.222  -2.914  23.813  0.00  0.00    -0.506 OA
ATOM     25  H   UNL     1      10.851  -2.308  23.389  0.00  0.00    +0.292 HD
ENDBRANCH  10  24
BRANCH   7  26
ATOM     26  O   UNL     1       5.687  -4.054  23.352  0.00  0.00    -0.461 OA
BRANCH  26  27
ATOM     27  C   UNL     1       4.733  -4.107  24.424  0.00  0.00    +0.340 C 
ATOM     28  O   UNL     1       5.402  -4.199  25.695  0.00  0.00    -0.322 OA
ATOM     29  C   UNL     1       6.013  -5.491  25.899  0.00  0.00    +0.261 C 
ATOM     30  C   UNL     1       4.934  -6.571  25.971  0.00  0.00    +0.185 C 
ATOM     31  C   UNL     1       4.238  -6.637  24.607  0.00  0.00    +0.180 C 
ATOM     32  C   UNL     1       3.704  -5.253  24.205  0.00  0.00    +0.214 C 
BRANCH  29  33
ATOM     33  C   UNL     1       6.839  -5.482  27.178  0.00  0.00    +0.337 C 
ATOM     34  O   UNL     1       6.406  -5.184  28.283  0.00  0.00    -0.248 OA
BRANCH  33  35
ATOM     35  O   UNL     1       8.112  -5.903  26.966  0.00  0.00    -0.479 OA
ATOM     36  H   UNL     1       8.227  -6.048  25.998  0.00  0.00    +0.295 HD
ENDBRANCH  33  35
ENDBRANCH  29  33
BRANCH  30  37
ATOM     37  O   UNL     1       3.965  -6.199  26.963  0.00  0.00    -0.386 OA
ATOM     38  H   UNL     1       3.926  -5.226  27.002  0.00  0.00    +0.210 HD
ENDBRANCH  30  37
BRANCH  31  39
ATOM     39  O   UNL     1       5.097  -7.169  23.591  0.00  0.00    -0.386 OA
ATOM     40  H   UNL     1       4.788  -6.882  22.712  0.00  0.00    +0.210 HD
ENDBRANCH  31  39
BRANCH  32  41
ATOM     41  O   UNL     1       3.214  -5.282  22.858  0.00  0.00    -0.383 OA
ATOM     42  H   UNL     1       3.411  -6.168  22.492  0.00  0.00    +0.210 HD
ENDBRANCH  32  41
ENDBRANCH  26  27
ENDBRANCH   7  26
TORSDOF 12
ENDMDL
MODEL 2
REMARK VINA RESULT:      -7.7      1.705      9.052
REMARK  Name = 
REMARK  13 active torsions:
REMARK  status: ('A' for Active; 'I' for Inactive)
REMARK    1  A    between atoms: C_1  and  O_2
REMARK    2  A    between atoms: O_2  and  C_3
REMARK    3  A    between atoms: C_4  and  C_31
REMARK    4  A    between atoms: C_8  and  O_15
REMARK    5  A    between atoms: C_10  and  O_14
REMARK    6  A    between atoms: O_15  and  C_16
REMARK    7  A    between atoms: C_18  and  O_30
REMARK    8  A    between atoms: C_19  and  O_29
REMARK    9  A    between atoms: C_21  and  O_28
REMARK   10  A    between atoms: C_23  and  C_25
REMARK   11  A    between atoms: C_25  and  O_27
REMARK   12  A    between atoms: C_33  and  O_38
REMARK   13  A    between atoms: C_34  and  O_37
REMARK                            x       y       z     vdW  Elec       q    Type
REMARK                         _______ _______ _______ _____ _____    ______ ____
ROOT
ATOM      1  C   UNL     1       8.158  -3.935  24.075  0.00  0.00    +0.211 A 
ATOM      2  C   UNL     1       9.073  -2.747  24.003  0.00  0.00    +0.238 A 
ATOM      3  O   UNL     1      10.278  -2.879  23.825  0.00  0.00    -0.283 OA
ATOM      4  C   UNL     1       8.465  -1.411  24.184  0.00  0.00    +0.109 A 
ATOM      5  C   UNL     1       7.107  -1.347  24.473  0.00  0.00    +0.147 A 
ATOM      6  C   UNL     1       6.459  -0.108  24.595  0.00  0.00    +0.093 A 
ATOM      7  C   UNL     1       7.170   1.085  24.428  0.00  0.00    +0.131 A 
ATOM      8  C   UNL     1       8.546   1.023  24.211  0.00  0.00    +0.092 A 
ATOM      9  O   UNL     1       6.326  -2.460  24.659  0.00  0.00    -0.451 OA
ATOM     10  C   UNL     1       9.188  -0.214  24.079  0.00  0.00    +0.135 A 
ATOM     11  C   UNL     1       6.881  -3.712  24.442  0.00  0.00    +0.181 A 
ENDROOT
BRANCH  11  12
ATOM     12  C   UNL     1       5.907  -4.794  24.699  0.00  0.00    +0.025 A 
ATOM     13  C   UNL     1       5.857  -5.430  25.950  0.00  0.00    +0.015 A 
ATOM     14  C   UNL     1       5.016  -6.534  26.156  0.00  0.00    +0.050 A 
ATOM     15  C   UNL     1       4.224  -6.991  25.114  0.00  0.00    +0.158 A 
ATOM     16  C   UNL     1       4.239  -6.346  23.881  0.00  0.00    +0.159 A 
ATOM     17  C   UNL     1       5.078  -5.257  23.663  0.00  0.00    +0.060 A 
BRANCH  15  18
ATOM     18  O   UNL     1       3.431  -8.086  25.305  0.00  0.00    -0.503 OA
ATOM     19  H   UNL     1       2.723  -7.778  25.906  0.00  0.00    +0.292 HD
ENDBRANCH  15  18
BRANCH  16  20
ATOM     20  O   UNL     1       3.410  -6.834  22.907  0.00  0.00    -0.503 OA
ATOM     21  H   UNL     1       2.727  -7.379  23.337  0.00  0.00    +0.292 HD
ENDBRANCH  16  20
ENDBRANCH  11  12
BRANCH   1  23
ATOM     22  C   UNL     1       9.302  -5.825  24.959  0.00  0.00    +0.277 C 
ATOM     23  O   UNL     1       8.625  -5.228  23.851  0.00  0.00    -0.488 OA
ENDBRANCH   1  23
BRANCH  10  24
ATOM     24  O   UNL     1      10.528  -0.223  23.825  0.00  0.00    -0.506 OA
ATOM     25  H   UNL     1      10.886   0.679  23.805  0.00  0.00    +0.292 HD
ENDBRANCH  10  24
BRANCH   7  26
ATOM     26  O   UNL     1       6.647   2.356  24.431  0.00  0.00    -0.461 OA
BRANCH  26  27
ATOM     27  C   UNL     1       6.013   2.786  23.216  0.00  0.00    +0.340 C 
ATOM     28  O   UNL     1       6.787   3.816  22.576  0.00  0.00    -0.322 OA
ATOM     29  C   UNL     1       6.730   5.068  23.293  0.00  0.00    +0.261 C 
ATOM     30  C   UNL     1       5.303   5.614  23.273  0.00  0.00    +0.185 C 
ATOM     31  C   UNL     1       4.412   4.637  24.047  0.00  0.00    +0.180 C 
ATOM     32  C   UNL     1       4.541   3.217  23.473  0.00  0.00    +0.214 C 
BRANCH  29  33
ATOM     33  C   UNL     1       7.689   6.072  22.666  0.00  0.00    +0.337 C 
ATOM     34  O   UNL     1       8.569   6.666  23.274  0.00  0.00    -0.248 OA
BRANCH  33  35
ATOM     35  O   UNL     1       7.496   6.193  21.328  0.00  0.00    -0.479 OA
ATOM     36  H   UNL     1       8.223   5.711  20.871  0.00  0.00    +0.295 HD
ENDBRANCH  33  35
ENDBRANCH  29  33
BRANCH  30  37
ATOM     37  O   UNL     1       4.844   5.675  21.914  0.00  0.00    -0.386 OA
ATOM     38  H   UNL     1       4.916   4.785  21.527  0.00  0.00    +0.210 HD
ENDBRANCH  30  37
BRANCH  31  39
ATOM     39  O   UNL     1       4.695   4.649  25.451  0.00  0.00    -0.386 OA
ATOM     40  H   UNL     1       5.445   4.057  25.643  0.00  0.00    +0.210 HD
ENDBRANCH  31  39
BRANCH  32  41
ATOM     41  O   UNL     1       3.846   2.279  24.307  0.00  0.00    -0.383 OA
ATOM     42  H   UNL     1       3.969   1.391  23.916  0.00  0.00    +0.210 HD
ENDBRANCH  32  41
ENDBRANCH  26  27
ENDBRANCH   7  26
TORSDOF 12
ENDMDL
MODEL 3
REMARK VINA RESULT:      -7.6      1.737      9.165
REMARK  Name = 
REMARK  13 active torsions:
REMARK  status: ('A' for Active; 'I' for Inactive)
REMARK    1  A    between atoms: C_1  and  O_2
REMARK    2  A    between atoms: O_2  and  C_3
REMARK    3  A    between atoms: C_4  and  C_31
REMARK    4  A    between atoms: C_8  and  O_15
REMARK    5  A    between atoms: C_10  and  O_14
REMARK    6  A    between atoms: O_15  and  C_16
REMARK    7  A    between atoms: C_18  and  O_30
REMARK    8  A    between atoms: C_19  and  O_29
REMARK    9  A    between atoms: C_21  and  O_28
REMARK   10  A    between atoms: C_23  and  C_25
REMARK   11  A    between atoms: C_25  and  O_27
REMARK   12  A    between atoms: C_33  and  O_38
REMARK   13  A    between atoms: C_34  and  O_37
REMARK                            x       y       z     vdW  Elec       q    Type
REMARK                         _______ _______ _______ _____ _____    ______ ____
ROOT
ATOM      1  C   UNL     1       8.401  -3.836  24.223  0.00  0.00    +0.211 A 
ATOM      2  C   UNL     1       9.334  -2.695  23.940  0.00  0.00    +0.238 A 
ATOM      3  O   UNL     1      10.516  -2.884  23.680  0.00  0.00    -0.283 OA
ATOM      4  C   UNL     1       8.775  -1.327  24.017  0.00  0.00    +0.109 A 
ATOM      5  C   UNL     1       7.448  -1.188  24.407  0.00  0.00    +0.147 A 
ATOM      6  C   UNL     1       6.841   0.078  24.439  0.00  0.00    +0.093 A 
ATOM      7  C   UNL     1       7.563   1.221  24.078  0.00  0.00    +0.131 A 
ATOM      8  C   UNL     1       8.913   1.090  23.757  0.00  0.00    +0.092 A 
ATOM      9  O   UNL     1       6.661  -2.246  24.782  0.00  0.00    -0.451 OA
ATOM     10  C   UNL     1       9.513  -0.173  23.715  0.00  0.00    +0.135 A 
ATOM     11  C   UNL     1       7.166  -3.532  24.666  0.00  0.00    +0.181 A 
ENDROOT
BRANCH  11  12
ATOM     12  C   UNL     1       6.193  -4.546  25.124  0.00  0.00    +0.025 A 
ATOM     13  C   UNL     1       5.807  -4.610  26.473  0.00  0.00    +0.015 A 
ATOM     14  C   UNL     1       4.976  -5.645  26.929  0.00  0.00    +0.050 A 
ATOM     15  C   UNL     1       4.530  -6.605  26.035  0.00  0.00    +0.158 A 
ATOM     16  C   UNL     1       4.878  -6.531  24.690  0.00  0.00    +0.159 A 
ATOM     17  C   UNL     1       5.710  -5.515  24.228  0.00  0.00    +0.060 A 
BRANCH  15  18
ATOM     18  O   UNL     1       3.749  -7.630  26.485  0.00  0.00    -0.503 OA
ATOM     19  H   UNL     1       3.605  -7.434  27.432  0.00  0.00    +0.292 HD
ENDBRANCH  15  18
BRANCH  16  20
ATOM     20  O   UNL     1       4.377  -7.498  23.857  0.00  0.00    -0.503 OA
ATOM     21  H   UNL     1       5.050  -8.196  23.767  0.00  0.00    +0.292 HD
ENDBRANCH  16  20
ENDBRANCH  11  12
BRANCH   1  23
ATOM     22  C   UNL     1       9.506  -5.675  25.254  0.00  0.00    +0.277 C 
ATOM     23  O   UNL     1       8.818  -5.160  24.111  0.00  0.00    -0.488 OA
ENDBRANCH   1  23
BRANCH  10  24
ATOM     24  O   UNL     1      10.826  -0.254  23.355  0.00  0.00    -0.506 OA
ATOM     25  H   UNL     1      10.925  -0.226  22.390  0.00  0.00    +0.292 HD
ENDBRANCH  10  24
BRANCH   7  26
ATOM     26  O   UNL     1       7.071   2.501  23.979  0.00  0.00    -0.461 OA
BRANCH  26  27
ATOM     27  C   UNL     1       7.231   3.147  22.705  0.00  0.00    +0.340 C 
ATOM     28  O   UNL     1       8.270   4.140  22.767  0.00  0.00    -0.322 OA
ATOM     29  C   UNL     1       7.876   5.296  23.537  0.00  0.00    +0.261 C 
ATOM     30  C   UNL     1       6.720   6.014  22.841  0.00  0.00    +0.185 C 
ATOM     31  C   UNL     1       5.512   5.072  22.835  0.00  0.00    +0.180 C 
ATOM     32  C   UNL     1       5.881   3.724  22.195  0.00  0.00    +0.214 C 
BRANCH  29  33
ATOM     33  C   UNL     1       9.060   6.239  23.705  0.00  0.00    +0.337 C 
ATOM     34  O   UNL     1       9.147   7.097  24.572  0.00  0.00    -0.248 OA
BRANCH  33  35
ATOM     35  O   UNL     1      10.048   5.981  22.811  0.00  0.00    -0.479 OA
ATOM     36  H   UNL     1      10.874   6.407  23.138  0.00  0.00    +0.295 HD
ENDBRANCH  33  35
ENDBRANCH  29  33
BRANCH  30  37
ATOM     37  O   UNL     1       7.092   6.292  21.482  0.00  0.00    -0.386 OA
ATOM     38  H   UNL     1       6.849   7.213  21.282  0.00  0.00    +0.210 HD
ENDBRANCH  30  37
BRANCH  31  39
ATOM     39  O   UNL     1       4.972   4.883  24.149  0.00  0.00    -0.386 OA
ATOM     40  H   UNL     1       5.494   5.389  24.798  0.00  0.00    +0.210 HD
ENDBRANCH  31  39
BRANCH  32  41
ATOM     41  O   UNL     1       4.805   2.789  22.351  0.00  0.00    -0.383 OA
ATOM     42  H   UNL     1       5.195   1.936  22.629  0.00  0.00    +0.210 HD
ENDBRANCH  32  41
ENDBRANCH  26  27
ENDBRANCH   7  26
TORSDOF 12
ENDMDL
MODEL 4
REMARK VINA RESULT:      -7.5      1.696      2.674
REMARK  Name = 
REMARK  13 active torsions:
REMARK  status: ('A' for Active; 'I' for Inactive)
REMARK    1  A    between atoms: C_1  and  O_2
REMARK    2  A    between atoms: O_2  and  C_3
REMARK    3  A    between atoms: C_4  and  C_31
REMARK    4  A    between atoms: C_8  and  O_15
REMARK    5  A    between atoms: C_10  and  O_14
REMARK    6  A    between atoms: O_15  and  C_16
REMARK    7  A    between atoms: C_18  and  O_30
REMARK    8  A    between atoms: C_19  and  O_29
REMARK    9  A    between atoms: C_21  and  O_28
REMARK   10  A    between atoms: C_23  and  C_25
REMARK   11  A    between atoms: C_25  and  O_27
REMARK   12  A    between atoms: C_33  and  O_38
REMARK   13  A    between atoms: C_34  and  O_37
REMARK                            x       y       z     vdW  Elec       q    Type
REMARK                         _______ _______ _______ _____ _____    ______ ____
ROOT
ATOM      1  C   UNL     1       8.897  -1.168  23.570  0.00  0.00    +0.211 A 
ATOM      2  C   UNL     1       8.951  -2.667  23.646  0.00  0.00    +0.238 A 
ATOM      3  O   UNL     1       9.998  -3.258  23.877  0.00  0.00    -0.283 OA
ATOM      4  C   UNL     1       7.692  -3.403  23.400  0.00  0.00    +0.109 A 
ATOM      5  C   UNL     1       6.565  -2.668  23.054  0.00  0.00    +0.147 A 
ATOM      6  C   UNL     1       5.326  -3.302  22.869  0.00  0.00    +0.093 A 
ATOM      7  C   UNL     1       5.205  -4.686  23.031  0.00  0.00    +0.131 A 
ATOM      8  C   UNL     1       6.350  -5.433  23.307  0.00  0.00    +0.092 A 
ATOM      9  O   UNL     1       6.583  -1.309  22.869  0.00  0.00    -0.451 OA
ATOM     10  C   UNL     1       7.581  -4.798  23.501  0.00  0.00    +0.135 A 
ATOM     11  C   UNL     1       7.747  -0.610  23.145  0.00  0.00    +0.181 A 
ENDROOT
BRANCH  11  12
ATOM     12  C   UNL     1       7.595   0.836  22.879  0.00  0.00    +0.025 A 
ATOM     13  C   UNL     1       7.995   1.385  21.650  0.00  0.00    +0.015 A 
ATOM     14  C   UNL     1       7.960   2.773  21.442  0.00  0.00    +0.050 A 
ATOM     15  C   UNL     1       7.518   3.603  22.461  0.00  0.00    +0.158 A 
ATOM     16  C   UNL     1       7.085   3.067  23.669  0.00  0.00    +0.159 A 
ATOM     17  C   UNL     1       7.126   1.693  23.890  0.00  0.00    +0.060 A 
BRANCH  15  18
ATOM     18  O   UNL     1       7.515   4.954  22.270  0.00  0.00    -0.503 OA
ATOM     19  H   UNL     1       8.124   5.100  21.519  0.00  0.00    +0.292 HD
ENDBRANCH  15  18
BRANCH  16  20
ATOM     20  O   UNL     1       6.634   3.944  24.620  0.00  0.00    -0.503 OA
ATOM     21  H   UNL     1       7.394   4.218  25.163  0.00  0.00    +0.292 HD
ENDBRANCH  16  20
ENDBRANCH  11  12
BRANCH   1  23
ATOM     22  C   UNL     1      10.149   0.004  25.220  0.00  0.00    +0.277 C 
ATOM     23  O   UNL     1      10.015  -0.386  23.851  0.00  0.00    -0.488 OA
ENDBRANCH   1  23
BRANCH  10  24
ATOM     24  O   UNL     1       8.665  -5.567  23.811  0.00  0.00    -0.506 OA
ATOM     25  H   UNL     1       9.470  -5.030  23.865  0.00  0.00    +0.292 HD
ENDBRANCH  10  24
BRANCH   7  26
ATOM     26  O   UNL     1       4.044  -5.419  22.969  0.00  0.00    -0.461 OA
BRANCH  26  27
ATOM     27  C   UNL     1       3.039  -5.103  23.947  0.00  0.00    +0.340 C 
ATOM     28  O   UNL     1       3.571  -5.226  25.278  0.00  0.00    -0.322 OA
ATOM     29  C   UNL     1       3.798  -6.602  25.652  0.00  0.00    +0.261 C 
ATOM     30  C   UNL     1       2.466  -7.349  25.716  0.00  0.00    +0.185 C 
ATOM     31  C   UNL     1       1.872  -7.381  24.304  0.00  0.00    +0.180 C 
ATOM     32  C   UNL     1       1.759  -5.959  23.733  0.00  0.00    +0.214 C 
BRANCH  29  33
ATOM     33  C   UNL     1       4.507  -6.667  26.998  0.00  0.00    +0.337 C 
ATOM     34  O   UNL     1       3.948  -6.856  28.070  0.00  0.00    -0.248 OA
BRANCH  33  35
ATOM     35  O   UNL     1       5.853  -6.550  26.871  0.00  0.00    -0.479 OA
ATOM     36  H   UNL     1       6.056  -6.393  25.920  0.00  0.00    +0.295 HD
ENDBRANCH  33  35
ENDBRANCH  29  33
BRANCH  30  37
ATOM     37  O   UNL     1       1.568  -6.630  26.576  0.00  0.00    -0.386 OA
ATOM     38  H   UNL     1       1.090  -7.276  27.126  0.00  0.00    +0.210 HD
ENDBRANCH  30  37
BRANCH  31  39
ATOM     39  O   UNL     1       2.624  -8.227  23.425  0.00  0.00    -0.386 OA
ATOM     40  H   UNL     1       3.507  -8.396  23.802  0.00  0.00    +0.210 HD
ENDBRANCH  31  39
BRANCH  32  41
ATOM     41  O   UNL     1       1.371  -6.007  22.353  0.00  0.00    -0.383 OA
ATOM     42  H   UNL     1       2.184  -6.133  21.823  0.00  0.00    +0.210 HD
ENDBRANCH  32  41
ENDBRANCH  26  27
ENDBRANCH   7  26
TORSDOF 12
ENDMDL
MODEL 5
REMARK VINA RESULT:      -7.4      1.309      1.377
REMARK  Name = 
REMARK  13 active torsions:
REMARK  status: ('A' for Active; 'I' for Inactive)
REMARK    1  A    between atoms: C_1  and  O_2
REMARK    2  A    between atoms: O_2  and  C_3
REMARK    3  A    between atoms: C_4  and  C_31
REMARK    4  A    between atoms: C_8  and  O_15
REMARK    5  A    between atoms: C_10  and  O_14
REMARK    6  A    between atoms: O_15  and  C_16
REMARK    7  A    between atoms: C_18  and  O_30
REMARK    8  A    between atoms: C_19  and  O_29
REMARK    9  A    between atoms: C_21  and  O_28
REMARK   10  A    between atoms: C_23  and  C_25
REMARK   11  A    between atoms: C_25  and  O_27
REMARK   12  A    between atoms: C_33  and  O_38
REMARK   13  A    between atoms: C_34  and  O_37
REMARK                            x       y       z     vdW  Elec       q    Type
REMARK                         _______ _______ _______ _____ _____    ______ ____
ROOT
ATOM      1  C   UNL     1       8.478   2.105  22.840  0.00  0.00    +0.211 A 
ATOM      2  C   UNL     1       9.072   0.816  22.352  0.00  0.00    +0.238 A 
ATOM      3  O   UNL     1      10.165   0.784  21.800  0.00  0.00    -0.283 OA
ATOM      4  C   UNL     1       8.270  -0.413  22.539  0.00  0.00    +0.109 A 
ATOM      5  C   UNL     1       7.001  -0.285  23.090  0.00  0.00    +0.147 A 
ATOM      6  C   UNL     1       6.216  -1.419  23.350  0.00  0.00    +0.093 A 
ATOM      7  C   UNL     1       6.699  -2.700  23.058  0.00  0.00    +0.131 A 
ATOM      8  C   UNL     1       7.942  -2.824  22.437  0.00  0.00    +0.092 A 
ATOM      9  O   UNL     1       6.439   0.926  23.407  0.00  0.00    -0.451 OA
ATOM     10  C   UNL     1       8.727  -1.693  22.190  0.00  0.00    +0.135 A 
ATOM     11  C   UNL     1       7.205   2.074  23.279  0.00  0.00    +0.181 A 
ENDROOT
BRANCH  11  12
ATOM     12  C   UNL     1       6.442   3.285  23.649  0.00  0.00    +0.025 A 
ATOM     13  C   UNL     1       6.322   3.672  24.994  0.00  0.00    +0.015 A 
ATOM     14  C   UNL     1       5.501   4.752  25.355  0.00  0.00    +0.050 A 
ATOM     15  C   UNL     1       4.812   5.443  24.371  0.00  0.00    +0.158 A 
ATOM     16  C   UNL     1       4.952   5.090  23.032  0.00  0.00    +0.159 A 
ATOM     17  C   UNL     1       5.755   4.014  22.664  0.00  0.00    +0.060 A 
BRANCH  15  18
ATOM     18  O   UNL     1       3.988   6.471  24.726  0.00  0.00    -0.503 OA
ATOM     19  H   UNL     1       3.893   6.390  25.696  0.00  0.00    +0.292 HD
ENDBRANCH  15  18
BRANCH  16  20
ATOM     20  O   UNL     1       4.264   5.835  22.111  0.00  0.00    -0.503 OA
ATOM     21  H   UNL     1       4.739   6.676  21.989  0.00  0.00    +0.292 HD
ENDBRANCH  16  20
ENDBRANCH  11  12
BRANCH   1  23
ATOM     22  C   UNL     1      10.112   3.521  23.834  0.00  0.00    +0.277 C 
ATOM     23  O   UNL     1       9.184   3.304  22.769  0.00  0.00    -0.488 OA
ENDBRANCH   1  23
BRANCH  10  24
ATOM     24  O   UNL     1       9.954  -1.869  21.619  0.00  0.00    -0.506 OA
ATOM     25  H   UNL     1      10.076  -1.273  20.864  0.00  0.00    +0.292 HD
ENDBRANCH  10  24
BRANCH   7  26
ATOM     26  O   UNL     1       6.078  -3.893  23.341  0.00  0.00    -0.461 OA
BRANCH  26  27
ATOM     27  C   UNL     1       5.171  -3.889  24.455  0.00  0.00    +0.340 C 
ATOM     28  O   UNL     1       5.888  -4.029  25.695  0.00  0.00    -0.322 OA
ATOM     29  C   UNL     1       6.424  -5.358  25.869  0.00  0.00    +0.261 C 
ATOM     30  C   UNL     1       5.282  -6.366  25.988  0.00  0.00    +0.185 C 
ATOM     31  C   UNL     1       4.523  -6.382  24.657  0.00  0.00    +0.180 C 
ATOM     32  C   UNL     1       4.062  -4.965  24.281  0.00  0.00    +0.214 C 
BRANCH  29  33
ATOM     33  C   UNL     1       7.305  -5.406  27.111  0.00  0.00    +0.337 C 
ATOM     34  O   UNL     1       7.151  -6.183  28.043  0.00  0.00    -0.248 OA
BRANCH  33  35
ATOM     35  O   UNL     1       8.330  -4.520  27.042  0.00  0.00    -0.479 OA
ATOM     36  H   UNL     1       8.400  -4.067  27.914  0.00  0.00    +0.295 HD
ENDBRANCH  33  35
ENDBRANCH  29  33
BRANCH  30  37
ATOM     37  O   UNL     1       4.384  -5.937  27.023  0.00  0.00    -0.386 OA
ATOM     38  H   UNL     1       3.510  -5.782  26.624  0.00  0.00    +0.210 HD
ENDBRANCH  30  37
BRANCH  31  39
ATOM     39  O   UNL     1       5.300  -6.964  23.603  0.00  0.00    -0.386 OA
ATOM     40  H   UNL     1       6.191  -7.187  23.932  0.00  0.00    +0.210 HD
ENDBRANCH  31  39
BRANCH  32  41
ATOM     41  O   UNL     1       3.511  -4.958  22.957  0.00  0.00    -0.383 OA
ATOM     42  H   UNL     1       3.756  -4.106  22.542  0.00  0.00    +0.210 HD
ENDBRANCH  32  41
ENDBRANCH  26  27
ENDBRANCH   7  26
TORSDOF 12
ENDMDL
MODEL 6
REMARK VINA RESULT:      -7.1      1.993      8.976
REMARK  Name = 
REMARK  13 active torsions:
REMARK  status: ('A' for Active; 'I' for Inactive)
REMARK    1  A    between atoms: C_1  and  O_2
REMARK    2  A    between atoms: O_2  and  C_3
REMARK    3  A    between atoms: C_4  and  C_31
REMARK    4  A    between atoms: C_8  and  O_15
REMARK    5  A    between atoms: C_10  and  O_14
REMARK    6  A    between atoms: O_15  and  C_16
REMARK    7  A    between atoms: C_18  and  O_30
REMARK    8  A    between atoms: C_19  and  O_29
REMARK    9  A    between atoms: C_21  and  O_28
REMARK   10  A    between atoms: C_23  and  C_25
REMARK   11  A    between atoms: C_25  and  O_27
REMARK   12  A    between atoms: C_33  and  O_38
REMARK   13  A    between atoms: C_34  and  O_37
REMARK                            x       y       z     vdW  Elec       q    Type
REMARK                         _______ _______ _______ _____ _____    ______ ____
ROOT
ATOM      1  C   UNL     1       8.287  -3.958  24.070  0.00  0.00    +0.211 A 
ATOM      2  C   UNL     1       9.175  -2.792  23.745  0.00  0.00    +0.238 A 
ATOM      3  O   UNL     1      10.391  -2.916  23.667  0.00  0.00    -0.283 OA
ATOM      4  C   UNL     1       8.523  -1.478  23.550  0.00  0.00    +0.109 A 
ATOM      5  C   UNL     1       7.149  -1.398  23.745  0.00  0.00    +0.147 A 
ATOM      6  C   UNL     1       6.464  -0.195  23.515  0.00  0.00    +0.093 A 
ATOM      7  C   UNL     1       7.152   0.945  23.087  0.00  0.00    +0.131 A 
ATOM      8  C   UNL     1       8.540   0.885  22.962  0.00  0.00    +0.092 A 
ATOM      9  O   UNL     1       6.388  -2.458  24.167  0.00  0.00    -0.451 OA
ATOM     10  C   UNL     1       9.220  -0.318  23.181  0.00  0.00    +0.135 A 
ATOM     11  C   UNL     1       6.986  -3.701  24.304  0.00  0.00    +0.181 A 
ENDROOT
BRANCH  11  12
ATOM     12  C   UNL     1       6.027  -4.721  24.778  0.00  0.00    +0.025 A 
ATOM     13  C   UNL     1       5.912  -5.015  26.146  0.00  0.00    +0.015 A 
ATOM     14  C   UNL     1       5.089  -6.064  26.584  0.00  0.00    +0.050 A 
ATOM     15  C   UNL     1       4.380  -6.808  25.654  0.00  0.00    +0.158 A 
ATOM     16  C   UNL     1       4.458  -6.501  24.299  0.00  0.00    +0.159 A 
ATOM     17  C   UNL     1       5.279  -5.470  23.852  0.00  0.00    +0.060 A 
BRANCH  15  18
ATOM     18  O   UNL     1       3.605  -7.849  26.077  0.00  0.00    -0.503 OA
ATOM     19  H   UNL     1       4.225  -8.445  26.545  0.00  0.00    +0.292 HD
ENDBRANCH  15  18
BRANCH  16  20
ATOM     20  O   UNL     1       3.707  -7.259  23.439  0.00  0.00    -0.503 OA
ATOM     21  H   UNL     1       2.771  -7.155  23.686  0.00  0.00    +0.292 HD
ENDBRANCH  16  20
ENDBRANCH  11  12
BRANCH   1  23
ATOM     22  C   UNL     1       9.483  -5.497  25.436  0.00  0.00    +0.277 C 
ATOM     23  O   UNL     1       8.800  -5.246  24.206  0.00  0.00    -0.488 OA
ENDBRANCH   1  23
BRANCH  10  24
ATOM     24  O   UNL     1      10.573  -0.338  23.005  0.00  0.00    -0.506 OA
ATOM     25  H   UNL     1      11.035  -0.316  23.857  0.00  0.00    +0.292 HD
ENDBRANCH  10  24
BRANCH   7  26
ATOM     26  O   UNL     1       6.598   2.154  22.740  0.00  0.00    -0.461 OA
BRANCH  26  27
ATOM     27  C   UNL     1       5.868   2.838  23.772  0.00  0.00    +0.340 C 
ATOM     28  O   UNL     1       4.468   2.902  23.445  0.00  0.00    -0.322 OA
ATOM     29  C   UNL     1       4.201   3.817  22.362  0.00  0.00    +0.261 C 
ATOM     30  C   UNL     1       4.545   5.243  22.790  0.00  0.00    +0.185 C 
ATOM     31  C   UNL     1       6.055   5.310  23.044  0.00  0.00    +0.180 C 
ATOM     32  C   UNL     1       6.480   4.238  24.060  0.00  0.00    +0.214 C 
BRANCH  29  33
ATOM     33  C   UNL     1       2.737   3.727  21.951  0.00  0.00    +0.337 C 
ATOM     34  O   UNL     1       1.795   3.718  22.731  0.00  0.00    -0.248 OA
BRANCH  33  35
ATOM     35  O   UNL     1       2.586   3.718  20.602  0.00  0.00    -0.479 OA
ATOM     36  H   UNL     1       2.194   4.580  20.333  0.00  0.00    +0.295 HD
ENDBRANCH  33  35
ENDBRANCH  29  33
BRANCH  30  37
ATOM     37  O   UNL     1       3.860   5.543  24.015  0.00  0.00    -0.386 OA
ATOM     38  H   UNL     1       2.923   5.300  23.908  0.00  0.00    +0.210 HD
ENDBRANCH  30  37
BRANCH  31  39
ATOM     39  O   UNL     1       6.809   5.193  21.831  0.00  0.00    -0.386 OA
ATOM     40  H   UNL     1       6.351   4.596  21.212  0.00  0.00    +0.210 HD
ENDBRANCH  31  39
BRANCH  32  41
ATOM     41  O   UNL     1       7.909   4.188  24.160  0.00  0.00    -0.383 OA
ATOM     42  H   UNL     1       8.181   3.258  24.017  0.00  0.00    +0.210 HD
ENDBRANCH  32  41
ENDBRANCH  26  27
ENDBRANCH   7  26
TORSDOF 12
ENDMDL
MODEL 7
REMARK VINA RESULT:      -7.1      1.705      2.288
REMARK  Name = 
REMARK  13 active torsions:
REMARK  status: ('A' for Active; 'I' for Inactive)
REMARK    1  A    between atoms: C_1  and  O_2
REMARK    2  A    between atoms: O_2  and  C_3
REMARK    3  A    between atoms: C_4  and  C_31
REMARK    4  A    between atoms: C_8  and  O_15
REMARK    5  A    between atoms: C_10  and  O_14
REMARK    6  A    between atoms: O_15  and  C_16
REMARK    7  A    between atoms: C_18  and  O_30
REMARK    8  A    between atoms: C_19  and  O_29
REMARK    9  A    between atoms: C_21  and  O_28
REMARK   10  A    between atoms: C_23  and  C_25
REMARK   11  A    between atoms: C_25  and  O_27
REMARK   12  A    between atoms: C_33  and  O_38
REMARK   13  A    between atoms: C_34  and  O_37
REMARK                            x       y       z     vdW  Elec       q    Type
REMARK                         _______ _______ _______ _____ _____    ______ ____
ROOT
ATOM      1  C   UNL     1       9.171  -0.664  23.784  0.00  0.00    +0.211 A 
ATOM      2  C   UNL     1       9.156  -2.164  23.730  0.00  0.00    +0.238 A 
ATOM      3  O   UNL     1      10.145  -2.801  23.391  0.00  0.00    -0.283 OA
ATOM      4  C   UNL     1       7.887  -2.842  24.074  0.00  0.00    +0.109 A 
ATOM      5  C   UNL     1       6.782  -2.049  24.359  0.00  0.00    +0.147 A 
ATOM      6  C   UNL     1       5.567  -2.631  24.754  0.00  0.00    +0.093 A 
ATOM      7  C   UNL     1       5.447  -4.020  24.865  0.00  0.00    +0.131 A 
ATOM      8  C   UNL     1       6.533  -4.819  24.509  0.00  0.00    +0.092 A 
ATOM      9  O   UNL     1       6.798  -0.680  24.275  0.00  0.00    -0.451 OA
ATOM     10  C   UNL     1       7.747  -4.237  24.127  0.00  0.00    +0.135 A 
ATOM     11  C   UNL     1       7.996  -0.040  24.000  0.00  0.00    +0.181 A 
ENDROOT
BRANCH  11  12
ATOM     12  C   UNL     1       7.831   1.428  23.933  0.00  0.00    +0.025 A 
ATOM     13  C   UNL     1       8.081   2.228  25.060  0.00  0.00    +0.015 A 
ATOM     14  C   UNL     1       7.810   3.605  25.031  0.00  0.00    +0.050 A 
ATOM     15  C   UNL     1       7.299   4.175  23.875  0.00  0.00    +0.158 A 
ATOM     16  C   UNL     1       7.082   3.397  22.742  0.00  0.00    +0.159 A 
ATOM     17  C   UNL     1       7.337   2.029  22.763  0.00  0.00    +0.060 A 
BRANCH  15  18
ATOM     18  O   UNL     1       7.005   5.508  23.858  0.00  0.00    -0.503 OA
ATOM     19  H   UNL     1       7.752   5.933  24.324  0.00  0.00    +0.292 HD
ENDBRANCH  15  18
BRANCH  16  20
ATOM     20  O   UNL     1       6.603   4.032  21.627  0.00  0.00    -0.503 OA
ATOM     21  H   UNL     1       6.057   3.397  21.129  0.00  0.00    +0.292 HD
ENDBRANCH  16  20
ENDBRANCH  11  12
BRANCH   1  23
ATOM     22  C   UNL     1      11.095   0.388  24.708  0.00  0.00    +0.277 C 
ATOM     23  O   UNL     1      10.335   0.061  23.542  0.00  0.00    -0.488 OA
ENDBRANCH   1  23
BRANCH  10  24
ATOM     24  O   UNL     1       8.793  -5.059  23.828  0.00  0.00    -0.506 OA
ATOM     25  H   UNL     1       9.327  -4.696  23.104  0.00  0.00    +0.292 HD
ENDBRANCH  10  24
BRANCH   7  26
ATOM     26  O   UNL     1       4.352  -4.713  25.323  0.00  0.00    -0.461 OA
BRANCH  26  27
ATOM     27  C   UNL     1       3.972  -4.473  26.688  0.00  0.00    +0.340 C 
ATOM     28  O   UNL     1       5.052  -4.802  27.581  0.00  0.00    -0.322 OA
ATOM     29  C   UNL     1       5.269  -6.225  27.675  0.00  0.00    +0.261 C 
ATOM     30  C   UNL     1       4.051  -6.897  28.307  0.00  0.00    +0.185 C 
ATOM     31  C   UNL     1       2.861  -6.707  27.360  0.00  0.00    +0.180 C 
ATOM     32  C   UNL     1       2.654  -5.218  27.043  0.00  0.00    +0.214 C 
BRANCH  29  33
ATOM     33  C   UNL     1       6.517  -6.509  28.500  0.00  0.00    +0.337 C 
ATOM     34  O   UNL     1       6.533  -7.155  29.538  0.00  0.00    -0.248 OA
BRANCH  33  35
ATOM     35  O   UNL     1       7.638  -6.009  27.918  0.00  0.00    -0.479 OA
ATOM     36  H   UNL     1       7.367  -5.522  27.106  0.00  0.00    +0.295 HD
ENDBRANCH  33  35
ENDBRANCH  29  33
BRANCH  30  37
ATOM     37  O   UNL     1       3.753  -6.248  29.553  0.00  0.00    -0.386 OA
ATOM     38  H   UNL     1       3.086  -5.559  29.387  0.00  0.00    +0.210 HD
ENDBRANCH  30  37
BRANCH  31  39
ATOM     39  O   UNL     1       3.006  -7.471  26.156  0.00  0.00    -0.386 OA
ATOM     40  H   UNL     1       3.448  -6.933  25.474  0.00  0.00    +0.210 HD
ENDBRANCH  31  39
BRANCH  32  41
ATOM     41  O   UNL     1       1.658  -5.061  26.024  0.00  0.00    -0.383 OA
ATOM     42  H   UNL     1       1.794  -4.183  25.612  0.00  0.00    +0.210 HD
ENDBRANCH  32  41
ENDBRANCH  26  27
ENDBRANCH   7  26
TORSDOF 12
ENDMDL
MODEL 8
REMARK VINA RESULT:      -7.0      1.996      3.902
REMARK  Name = 
REMARK  13 active torsions:
REMARK  status: ('A' for Active; 'I' for Inactive)
REMARK    1  A    between atoms: C_1  and  O_2
REMARK    2  A    between atoms: O_2  and  C_3
REMARK    3  A    between atoms: C_4  and  C_31
REMARK    4  A    between atoms: C_8  and  O_15
REMARK    5  A    between atoms: C_10  and  O_14
REMARK    6  A    between atoms: O_15  and  C_16
REMARK    7  A    between atoms: C_18  and  O_30
REMARK    8  A    between atoms: C_19  and  O_29
REMARK    9  A    between atoms: C_21  and  O_28
REMARK   10  A    between atoms: C_23  and  C_25
REMARK   11  A    between atoms: C_25  and  O_27
REMARK   12  A    between atoms: C_33  and  O_38
REMARK   13  A    between atoms: C_34  and  O_37
REMARK                            x       y       z     vdW  Elec       q    Type
REMARK                         _______ _______ _______ _____ _____    ______ ____
ROOT
ATOM      1  C   UNL     1       8.448   3.910  24.003  0.00  0.00    +0.211 A 
ATOM      2  C   UNL     1       9.648   3.009  23.997  0.00  0.00    +0.238 A 
ATOM      3  O   UNL     1      10.766   3.435  23.734  0.00  0.00    -0.283 OA
ATOM      4  C   UNL     1       9.423   1.577  24.294  0.00  0.00    +0.109 A 
ATOM      5  C   UNL     1       8.115   1.152  24.493  0.00  0.00    +0.147 A 
ATOM      6  C   UNL     1       7.841  -0.180  24.839  0.00  0.00    +0.093 A 
ATOM      7  C   UNL     1       8.881  -1.104  24.990  0.00  0.00    +0.131 A 
ATOM      8  C   UNL     1      10.187  -0.696  24.719  0.00  0.00    +0.092 A 
ATOM      9  O   UNL     1       7.028   1.980  24.365  0.00  0.00    -0.451 OA
ATOM     10  C   UNL     1      10.458   0.636  24.385  0.00  0.00    +0.135 A 
ATOM     11  C   UNL     1       7.238   3.331  24.135  0.00  0.00    +0.181 A 
ENDROOT
BRANCH  11  12
ATOM     12  C   UNL     1       5.964   4.070  24.011  0.00  0.00    +0.025 A 
ATOM     13  C   UNL     1       5.339   4.613  25.145  0.00  0.00    +0.015 A 
ATOM     14  C   UNL     1       4.073   5.211  25.045  0.00  0.00    +0.050 A 
ATOM     15  C   UNL     1       3.443   5.269  23.811  0.00  0.00    +0.158 A 
ATOM     16  C   UNL     1       4.070   4.766  22.675  0.00  0.00    +0.159 A 
ATOM     17  C   UNL     1       5.321   4.162  22.765  0.00  0.00    +0.060 A 
BRANCH  15  18
ATOM     18  O   UNL     1       2.198   5.821  23.719  0.00  0.00    -0.503 OA
ATOM     19  H   UNL     1       2.076   6.002  22.766  0.00  0.00    +0.292 HD
ENDBRANCH  15  18
BRANCH  16  20
ATOM     20  O   UNL     1       3.402   4.885  21.485  0.00  0.00    -0.503 OA
ATOM     21  H   UNL     1       3.701   4.167  20.899  0.00  0.00    +0.292 HD
ENDBRANCH  16  20
ENDBRANCH  11  12
BRANCH   1  23
ATOM     22  C   UNL     1       8.900   6.037  24.969  0.00  0.00    +0.277 C 
ATOM     23  O   UNL     1       8.568   5.283  23.801  0.00  0.00    -0.488 OA
ENDBRANCH   1  23
BRANCH  10  24
ATOM     24  O   UNL     1      11.756   0.997  24.170  0.00  0.00    -0.506 OA
ATOM     25  H   UNL     1      12.180   1.280  24.995  0.00  0.00    +0.292 HD
ENDBRANCH  10  24
BRANCH   7  26
ATOM     26  O   UNL     1       8.763  -2.407  25.410  0.00  0.00    -0.461 OA
BRANCH  26  27
ATOM     27  C   UNL     1       9.098  -3.419  24.447  0.00  0.00    +0.340 C 
ATOM     28  O   UNL     1       8.280  -3.289  23.270  0.00  0.00    -0.322 OA
ATOM     29  C   UNL     1       6.910  -3.677  23.510  0.00  0.00    +0.261 C 
ATOM     30  C   UNL     1       6.844  -5.167  23.843  0.00  0.00    +0.185 C 
ATOM     31  C   UNL     1       7.590  -5.392  25.162  0.00  0.00    +0.180 C 
ATOM     32  C   UNL     1       9.022  -4.840  25.074  0.00  0.00    +0.214 C 
BRANCH  29  33
ATOM     33  C   UNL     1       6.058  -3.370  22.286  0.00  0.00    +0.337 C 
ATOM     34  O   UNL     1       5.693  -4.200  21.466  0.00  0.00    -0.248 OA
BRANCH  33  35
ATOM     35  O   UNL     1       5.693  -2.063  22.235  0.00  0.00    -0.479 OA
ATOM     36  H   UNL     1       5.006  -1.966  21.536  0.00  0.00    +0.295 HD
ENDBRANCH  33  35
ENDBRANCH  29  33
BRANCH  30  37
ATOM     37  O   UNL     1       7.508  -5.908  22.808  0.00  0.00    -0.386 OA
ATOM     38  H   UNL     1       6.940  -5.902  22.017  0.00  0.00    +0.210 HD
ENDBRANCH  30  37
BRANCH  31  39
ATOM     39  O   UNL     1       6.891  -4.826  26.278  0.00  0.00    -0.386 OA
ATOM     40  H   UNL     1       5.949  -4.710  26.055  0.00  0.00    +0.210 HD
ENDBRANCH  31  39
BRANCH  32  41
ATOM     41  O   UNL     1       9.654  -4.892  26.360  0.00  0.00    -0.383 OA
ATOM     42  H   UNL     1      10.084  -5.767  26.441  0.00  0.00    +0.210 HD
ENDBRANCH  32  41
ENDBRANCH  26  27
ENDBRANCH   7  26
TORSDOF 12
ENDMDL
MODEL 9
REMARK VINA RESULT:      -6.9      1.903      8.811
REMARK  Name = 
REMARK  13 active torsions:
REMARK  status: ('A' for Active; 'I' for Inactive)
REMARK    1  A    between atoms: C_1  and  O_2
REMARK    2  A    between atoms: O_2  and  C_3
REMARK    3  A    between atoms: C_4  and  C_31
REMARK    4  A    between atoms: C_8  and  O_15
REMARK    5  A    between atoms: C_10  and  O_14
REMARK    6  A    between atoms: O_15  and  C_16
REMARK    7  A    between atoms: C_18  and  O_30
REMARK    8  A    between atoms: C_19  and  O_29
REMARK    9  A    between atoms: C_21  and  O_28
REMARK   10  A    between atoms: C_23  and  C_25
REMARK   11  A    between atoms: C_25  and  O_27
REMARK   12  A    between atoms: C_33  and  O_38
REMARK   13  A    between atoms: C_34  and  O_37
REMARK                            x       y       z     vdW  Elec       q    Type
REMARK                         _______ _______ _______ _____ _____    ______ ____
ROOT
ATOM      1  C   UNL     1       8.267  -3.833  24.122  0.00  0.00    +0.211 A 
ATOM      2  C   UNL     1       9.145  -2.657  23.806  0.00  0.00    +0.238 A 
ATOM      3  O   UNL     1      10.354  -2.784  23.660  0.00  0.00    -0.283 OA
ATOM      4  C   UNL     1       8.493  -1.333  23.707  0.00  0.00    +0.109 A 
ATOM      5  C   UNL     1       7.132  -1.255  23.975  0.00  0.00    +0.147 A 
ATOM      6  C   UNL     1       6.444  -0.040  23.838  0.00  0.00    +0.093 A 
ATOM      7  C   UNL     1       7.118   1.116  23.428  0.00  0.00    +0.131 A 
ATOM      8  C   UNL     1       8.497   1.055  23.229  0.00  0.00    +0.092 A 
ATOM      9  O   UNL     1       6.385  -2.330  24.386  0.00  0.00    -0.451 OA
ATOM     10  C   UNL     1       9.178  -0.160  23.356  0.00  0.00    +0.135 A 
ATOM     11  C   UNL     1       6.980  -3.581  24.433  0.00  0.00    +0.181 A 
ENDROOT
BRANCH  11  12
ATOM     12  C   UNL     1       6.040  -4.618  24.907  0.00  0.00    +0.025 A 
ATOM     13  C   UNL     1       5.867  -4.853  26.281  0.00  0.00    +0.015 A 
ATOM     14  C   UNL     1       5.064  -5.915  26.728  0.00  0.00    +0.050 A 
ATOM     15  C   UNL     1       4.434  -6.730  25.800  0.00  0.00    +0.158 A 
ATOM     16  C   UNL     1       4.570  -6.483  24.437  0.00  0.00    +0.159 A 
ATOM     17  C   UNL     1       5.372  -5.439  23.983  0.00  0.00    +0.060 A 
BRANCH  15  18
ATOM     18  O   UNL     1       3.681  -7.782  26.234  0.00  0.00    -0.503 OA
ATOM     19  H   UNL     1       3.452  -7.559  27.158  0.00  0.00    +0.292 HD
ENDBRANCH  15  18
BRANCH  16  20
ATOM     20  O   UNL     1       3.895  -7.310  23.579  0.00  0.00    -0.503 OA
ATOM     21  H   UNL     1       2.998  -7.445  23.933  0.00  0.00    +0.292 HD
ENDBRANCH  16  20
ENDBRANCH  11  12
BRANCH   1  23
ATOM     22  C   UNL     1       9.455  -5.464  25.382  0.00  0.00    +0.277 C 
ATOM     23  O   UNL     1       8.776  -5.129  24.170  0.00  0.00    -0.488 OA
ENDBRANCH   1  23
BRANCH  10  24
ATOM     24  O   UNL     1      10.520  -0.178  23.111  0.00  0.00    -0.506 OA
ATOM     25  H   UNL     1      10.812  -1.059  22.829  0.00  0.00    +0.292 HD
ENDBRANCH  10  24
BRANCH   7  26
ATOM     26  O   UNL     1       6.555   2.343  23.168  0.00  0.00    -0.461 OA
BRANCH  26  27
ATOM     27  C   UNL     1       7.128   3.465  23.858  0.00  0.00    +0.340 C 
ATOM     28  O   UNL     1       6.542   3.610  25.164  0.00  0.00    -0.322 OA
ATOM     29  C   UNL     1       5.179   4.080  25.103  0.00  0.00    +0.261 C 
ATOM     30  C   UNL     1       5.142   5.493  24.523  0.00  0.00    +0.185 C 
ATOM     31  C   UNL     1       5.636   5.424  23.075  0.00  0.00    +0.180 C 
ATOM     32  C   UNL     1       7.022   4.762  23.007  0.00  0.00    +0.214 C 
BRANCH  29  33
ATOM     33  C   UNL     1       4.558   4.062  26.493  0.00  0.00    +0.337 C 
ATOM     34  O   UNL     1       3.419   3.692  26.742  0.00  0.00    -0.248 OA
BRANCH  33  35
ATOM     35  O   UNL     1       5.439   4.453  27.450  0.00  0.00    -0.479 OA
ATOM     36  H   UNL     1       6.072   3.714  27.601  0.00  0.00    +0.295 HD
ENDBRANCH  33  35
ENDBRANCH  29  33
BRANCH  30  37
ATOM     37  O   UNL     1       6.035   6.330  25.273  0.00  0.00    -0.386 OA
ATOM     38  H   UNL     1       5.511   6.829  25.925  0.00  0.00    +0.210 HD
ENDBRANCH  30  37
BRANCH  31  39
ATOM     39  O   UNL     1       4.704   4.748  22.221  0.00  0.00    -0.386 OA
ATOM     40  H   UNL     1       4.526   3.854  22.567  0.00  0.00    +0.210 HD
ENDBRANCH  31  39
BRANCH  32  41
ATOM     41  O   UNL     1       7.400   4.540  21.642  0.00  0.00    -0.383 OA
ATOM     42  H   UNL     1       6.914   5.188  21.093  0.00  0.00    +0.210 HD
ENDBRANCH  32  41
ENDBRANCH  26  27
ENDBRANCH   7  26
TORSDOF 12
ENDMDL
