MODEL 1
REMARK VINA RESULT:      -7.3      0.000      0.000
REMARK  Name = 
REMARK  14 active torsions:
REMARK  status: ('A' for Active; 'I' for Inactive)
REMARK    1  A    between atoms: C_1  and  C_2
REMARK    2  A    between atoms: C_2  and  C_3
REMARK    3  A    between atoms: C_3  and  C_4
REMARK    4  A    between atoms: C_4  and  C_5
REMARK    5  A    between atoms: C_5  and  C_6
REMARK    6  A    between atoms: C_6  and  C_7
REMARK    7  A    between atoms: C_7  and  C_8
REMARK    8  A    between atoms: C_8  and  O_10
REMARK    9  A    between atoms: O_10  and  C_11
REMARK   10  A    between atoms: C_12  and  O_31
REMARK   11  A    between atoms: C_15  and  C_17
REMARK   12  A    between atoms: C_18  and  O_30
REMARK   13  A    between atoms: C_22  and  O_29
REMARK   14  A    between atoms: C_24  and  O_28
REMARK                            x       y       z     vdW  Elec       q    Type
REMARK                         _______ _______ _______ _____ _____    ______ ____
ROOT
ATOM      1  C   UNL     1       7.910   0.942  22.693  0.00  0.00    +0.173 A 
ATOM      2  C   UNL     1       7.261  -0.177  23.212  0.00  0.00    +0.061 A 
ATOM      3  C   UNL     1       7.729  -1.456  22.903  0.00  0.00    +0.025 A 
ATOM      4  C   UNL     1       8.858  -1.608  22.091  0.00  0.00    +0.015 A 
ATOM      5  C   UNL     1       9.501  -0.482  21.567  0.00  0.00    +0.050 A 
ATOM      6  C   UNL     1       9.011   0.788  21.855  0.00  0.00    +0.159 A 
ENDROOT
BRANCH   3   7
ATOM      7  C   UNL     1       6.948  -2.613  23.350  0.00  0.00    +0.181 A 
ATOM      8  O   UNL     1       7.448  -3.128  24.532  0.00  0.00    -0.451 OA
ATOM      9  C   UNL     1       6.815  -4.200  25.098  0.00  0.00    +0.147 A 
ATOM     10  C   UNL     1       5.706  -4.810  24.523  0.00  0.00    +0.109 A 
ATOM     11  C   UNL     1       5.095  -5.888  25.173  0.00  0.00    +0.135 A 
ATOM     12  C   UNL     1       5.594  -6.351  26.390  0.00  0.00    +0.091 A 
ATOM     13  C   UNL     1       6.713  -5.736  26.944  0.00  0.00    +0.124 A 
ATOM     14  C   UNL     1       5.205  -4.292  23.243  0.00  0.00    +0.238 A 
ATOM     15  O   UNL     1       4.247  -4.838  22.701  0.00  0.00    -0.283 OA
ATOM     16  C   UNL     1       7.329  -4.663  26.308  0.00  0.00    +0.092 A 
ATOM     17  C   UNL     1       5.905  -3.112  22.663  0.00  0.00    +0.208 A 
BRANCH  11  18
ATOM     18  O   UNL     1       3.998  -6.533  24.672  0.00  0.00    -0.506 OA
ATOM     19  H   UNL     1       3.572  -7.030  25.410  0.00  0.00    +0.292 HD
ENDBRANCH  11  18
BRANCH  13  20
ATOM     20  O   UNL     1       7.240  -6.152  28.131  0.00  0.00    -0.507 OA
ATOM     21  H   UNL     1       8.207  -6.070  28.090  0.00  0.00    +0.292 HD
ENDBRANCH  13  20
BRANCH  17  22
ATOM     22  O   UNL     1       5.443  -2.613  21.459  0.00  0.00    -0.501 OA
ATOM     23  H   UNL     1       5.879  -1.765  21.268  0.00  0.00    +0.292 HD
ENDBRANCH  17  22
ENDBRANCH   3   7
BRANCH   6  24
ATOM     24  O   UNL     1       9.621   1.854  21.260  0.00  0.00    -0.503 OA
ATOM     25  H   UNL     1       9.226   2.660  21.639  0.00  0.00    +0.292 HD
ENDBRANCH   6  24
BRANCH   1  26
ATOM     26  O   UNL     1       7.357   2.221  22.860  0.00  0.00    -0.422 OA
BRANCH  26  27
ATOM     27  C   UNL     1       7.179   2.636  24.177  0.00  0.00    +0.312 C 
ATOM     28  O   UNL     1       6.109   2.804  24.746  0.00  0.00    -0.250 OA
BRANCH  27  29
ATOM     29  C   UNL     1       8.530   2.903  24.797  0.00  0.00    +0.121 C 
BRANCH  29  30
ATOM     30  C   UNL     1       8.848   4.388  24.844  0.00  0.00    +0.011 C 
BRANCH  30  31
ATOM     31  C   UNL     1       9.798   4.799  23.719  0.00  0.00    +0.001 C 
BRANCH  31  32
ATOM     32  C   UNL     1      10.405   6.171  23.992  0.00  0.00    +0.000 C 
BRANCH  32  33
ATOM     33  C   UNL     1      11.924   6.081  24.117  0.00  0.00    -0.000 C 
BRANCH  33  35
ATOM     34  C   UNL     1      13.346   5.609  22.098  0.00  0.00    +0.004 C 
ATOM     35  C   UNL     1      12.486   5.003  23.194  0.00  0.00    -0.003 C 
ENDBRANCH  33  35
ENDBRANCH  32  33
ENDBRANCH  31  32
ENDBRANCH  30  31
ENDBRANCH  29  30
ENDBRANCH  27  29
ENDBRANCH  26  27
ENDBRANCH   1  26
TORSDOF 13
ENDMDL
MODEL 2
REMARK VINA RESULT:      -7.3      1.492      2.049
REMARK  Name = 
REMARK  14 active torsions:
REMARK  status: ('A' for Active; 'I' for Inactive)
REMARK    1  A    between atoms: C_1  and  C_2
REMARK    2  A    between atoms: C_2  and  C_3
REMARK    3  A    between atoms: C_3  and  C_4
REMARK    4  A    between atoms: C_4  and  C_5
REMARK    5  A    between atoms: C_5  and  C_6
REMARK    6  A    between atoms: C_6  and  C_7
REMARK    7  A    between atoms: C_7  and  C_8
REMARK    8  A    between atoms: C_8  and  O_10
REMARK    9  A    between atoms: O_10  and  C_11
REMARK   10  A    between atoms: C_12  and  O_31
REMARK   11  A    between atoms: C_15  and  C_17
REMARK   12  A    between atoms: C_18  and  O_30
REMARK   13  A    between atoms: C_22  and  O_29
REMARK   14  A    between atoms: C_24  and  O_28
REMARK                            x       y       z     vdW  Elec       q    Type
REMARK                         _______ _______ _______ _____ _____    ______ ____
ROOT
ATOM      1  C   UNL     1       7.277   0.721  22.392  0.00  0.00    +0.173 A 
ATOM      2  C   UNL     1       6.731  -0.434  22.951  0.00  0.00    +0.061 A 
ATOM      3  C   UNL     1       7.404  -1.651  22.826  0.00  0.00    +0.025 A 
ATOM      4  C   UNL     1       8.633  -1.702  22.160  0.00  0.00    +0.015 A 
ATOM      5  C   UNL     1       9.174  -0.543  21.595  0.00  0.00    +0.050 A 
ATOM      6  C   UNL     1       8.483   0.660  21.697  0.00  0.00    +0.159 A 
ENDROOT
BRANCH   3   7
ATOM      7  C   UNL     1       6.742  -2.867  23.303  0.00  0.00    +0.181 A 
ATOM      8  O   UNL     1       7.102  -3.156  24.607  0.00  0.00    -0.451 OA
ATOM      9  C   UNL     1       6.550  -4.251  25.211  0.00  0.00    +0.147 A 
ATOM     10  C   UNL     1       5.662  -5.102  24.562  0.00  0.00    +0.109 A 
ATOM     11  C   UNL     1       5.118  -6.191  25.253  0.00  0.00    +0.135 A 
ATOM     12  C   UNL     1       5.464  -6.424  26.584  0.00  0.00    +0.091 A 
ATOM     13  C   UNL     1       6.364  -5.568  27.213  0.00  0.00    +0.124 A 
ATOM     14  C   UNL     1       5.318  -4.823  23.162  0.00  0.00    +0.238 A 
ATOM     15  O   UNL     1       4.561  -5.580  22.561  0.00  0.00    -0.283 OA
ATOM     16  C   UNL     1       6.911  -4.483  26.537  0.00  0.00    +0.092 A 
ATOM     17  C   UNL     1       5.920  -3.611  22.539  0.00  0.00    +0.208 A 
BRANCH  11  18
ATOM     18  O   UNL     1       4.234  -7.065  24.684  0.00  0.00    -0.506 OA
ATOM     19  H   UNL     1       4.580  -7.979  24.817  0.00  0.00    +0.292 HD
ENDBRANCH  11  18
BRANCH  13  20
ATOM     20  O   UNL     1       6.734  -5.754  28.512  0.00  0.00    -0.507 OA
ATOM     21  H   UNL     1       6.105  -6.365  28.932  0.00  0.00    +0.292 HD
ENDBRANCH  13  20
BRANCH  17  22
ATOM     22  O   UNL     1       5.604  -3.334  21.222  0.00  0.00    -0.501 OA
ATOM     23  H   UNL     1       4.969  -3.995  20.894  0.00  0.00    +0.292 HD
ENDBRANCH  17  22
ENDBRANCH   3   7
BRANCH   6  24
ATOM     24  O   UNL     1       9.007   1.750  21.065  0.00  0.00    -0.503 OA
ATOM     25  H   UNL     1       8.301   2.419  21.010  0.00  0.00    +0.292 HD
ENDBRANCH   6  24
BRANCH   1  26
ATOM     26  O   UNL     1       6.538   1.913  22.366  0.00  0.00    -0.422 OA
BRANCH  26  27
ATOM     27  C   UNL     1       5.927   2.271  23.566  0.00  0.00    +0.312 C 
ATOM     28  O   UNL     1       4.747   2.116  23.852  0.00  0.00    -0.250 OA
BRANCH  27  29
ATOM     29  C   UNL     1       6.945   2.941  24.457  0.00  0.00    +0.121 C 
BRANCH  29  30
ATOM     30  C   UNL     1       7.706   4.035  23.726  0.00  0.00    +0.011 C 
BRANCH  30  31
ATOM     31  C   UNL     1       9.218   3.839  23.829  0.00  0.00    +0.001 C 
BRANCH  31  32
ATOM     32  C   UNL     1       9.550   2.553  24.578  0.00  0.00    +0.000 C 
BRANCH  32  33
ATOM     33  C   UNL     1      10.821   1.912  24.025  0.00  0.00    -0.000 C 
BRANCH  33  35
ATOM     34  C   UNL     1       9.740   0.015  25.273  0.00  0.00    +0.004 C 
ATOM     35  C   UNL     1      10.993   0.492  24.559  0.00  0.00    -0.003 C 
ENDBRANCH  33  35
ENDBRANCH  32  33
ENDBRANCH  31  32
ENDBRANCH  30  31
ENDBRANCH  29  30
ENDBRANCH  27  29
ENDBRANCH  26  27
ENDBRANCH   1  26
TORSDOF 13
ENDMDL
MODEL 3
REMARK VINA RESULT:      -7.2      1.705      2.539
REMARK  Name = 
REMARK  14 active torsions:
REMARK  status: ('A' for Active; 'I' for Inactive)
REMARK    1  A    between atoms: C_1  and  C_2
REMARK    2  A    between atoms: C_2  and  C_3
REMARK    3  A    between atoms: C_3  and  C_4
REMARK    4  A    between atoms: C_4  and  C_5
REMARK    5  A    between atoms: C_5  and  C_6
REMARK    6  A    between atoms: C_6  and  C_7
REMARK    7  A    between atoms: C_7  and  C_8
REMARK    8  A    between atoms: C_8  and  O_10
REMARK    9  A    between atoms: O_10  and  C_11
REMARK   10  A    between atoms: C_12  and  O_31
REMARK   11  A    between atoms: C_15  and  C_17
REMARK   12  A    between atoms: C_18  and  O_30
REMARK   13  A    between atoms: C_22  and  O_29
REMARK   14  A    between atoms: C_24  and  O_28
REMARK                            x       y       z     vdW  Elec       q    Type
REMARK                         _______ _______ _______ _____ _____    ______ ____
ROOT
ATOM      1  C   UNL     1       9.733   1.047  23.552  0.00  0.00    +0.173 A 
ATOM      2  C   UNL     1       9.205  -0.087  24.168  0.00  0.00    +0.061 A 
ATOM      3  C   UNL     1       8.819  -1.182  23.393  0.00  0.00    +0.025 A 
ATOM      4  C   UNL     1       8.981  -1.145  22.004  0.00  0.00    +0.015 A 
ATOM      5  C   UNL     1       9.505  -0.002  21.390  0.00  0.00    +0.050 A 
ATOM      6  C   UNL     1       9.859   1.096  22.166  0.00  0.00    +0.159 A 
ENDROOT
BRANCH   3   7
ATOM      7  C   UNL     1       8.143  -2.302  24.053  0.00  0.00    +0.181 A 
ATOM      8  O   UNL     1       6.799  -2.035  24.242  0.00  0.00    -0.451 OA
ATOM      9  C   UNL     1       6.018  -2.993  24.825  0.00  0.00    +0.147 A 
ATOM     10  C   UNL     1       6.520  -4.214  25.260  0.00  0.00    +0.109 A 
ATOM     11  C   UNL     1       5.655  -5.157  25.826  0.00  0.00    +0.135 A 
ATOM     12  C   UNL     1       4.295  -4.875  25.956  0.00  0.00    +0.091 A 
ATOM     13  C   UNL     1       3.812  -3.642  25.527  0.00  0.00    +0.124 A 
ATOM     14  C   UNL     1       7.957  -4.478  25.103  0.00  0.00    +0.238 A 
ATOM     15  O   UNL     1       8.427  -5.537  25.510  0.00  0.00    -0.283 OA
ATOM     16  C   UNL     1       4.662  -2.698  24.962  0.00  0.00    +0.092 A 
ATOM     17  C   UNL     1       8.777  -3.422  24.446  0.00  0.00    +0.208 A 
BRANCH  11  18
ATOM     18  O   UNL     1       6.075  -6.380  26.269  0.00  0.00    -0.506 OA
ATOM     19  H   UNL     1       7.058  -6.357  26.345  0.00  0.00    +0.292 HD
ENDBRANCH  11  18
BRANCH  13  20
ATOM     20  O   UNL     1       2.492  -3.319  25.633  0.00  0.00    -0.507 OA
ATOM     21  H   UNL     1       2.090  -3.350  24.749  0.00  0.00    +0.292 HD
ENDBRANCH  13  20
BRANCH  17  22
ATOM     22  O   UNL     1      10.130  -3.657  24.289  0.00  0.00    -0.501 OA
ATOM     23  H   UNL     1      10.358  -3.634  23.344  0.00  0.00    +0.292 HD
ENDBRANCH  17  22
ENDBRANCH   3   7
BRANCH   6  24
ATOM     24  O   UNL     1      10.292   2.218  21.521  0.00  0.00    -0.503 OA
ATOM     25  H   UNL     1       9.518   2.796  21.396  0.00  0.00    +0.292 HD
ENDBRANCH   6  24
BRANCH   1  26
ATOM     26  O   UNL     1       9.972   2.211  24.298  0.00  0.00    -0.422 OA
BRANCH  26  27
ATOM     27  C   UNL     1       8.838   2.889  24.740  0.00  0.00    +0.312 C 
ATOM     28  O   UNL     1       8.056   2.508  25.601  0.00  0.00    -0.250 OA
BRANCH  27  29
ATOM     29  C   UNL     1       8.687   4.164  23.947  0.00  0.00    +0.121 C 
BRANCH  29  30
ATOM     30  C   UNL     1       8.446   5.366  24.846  0.00  0.00    +0.011 C 
BRANCH  30  31
ATOM     31  C   UNL     1       9.675   6.271  24.921  0.00  0.00    +0.001 C 
BRANCH  31  32
ATOM     32  C   UNL     1      10.554   6.100  23.687  0.00  0.00    +0.000 C 
BRANCH  32  33
ATOM     33  C   UNL     1      12.022   5.945  24.078  0.00  0.00    -0.000 C 
BRANCH  33  35
ATOM     34  C   UNL     1      13.394   5.664  21.990  0.00  0.00    +0.004 C 
ATOM     35  C   UNL     1      12.731   4.955  23.158  0.00  0.00    -0.003 C 
ENDBRANCH  33  35
ENDBRANCH  32  33
ENDBRANCH  31  32
ENDBRANCH  30  31
ENDBRANCH  29  30
ENDBRANCH  27  29
ENDBRANCH  26  27
ENDBRANCH   1  26
TORSDOF 13
ENDMDL
MODEL 4
REMARK VINA RESULT:      -7.2      1.348      2.728
REMARK  Name = 
REMARK  14 active torsions:
REMARK  status: ('A' for Active; 'I' for Inactive)
REMARK    1  A    between atoms: C_1  and  C_2
REMARK    2  A    between atoms: C_2  and  C_3
REMARK    3  A    between atoms: C_3  and  C_4
REMARK    4  A    between atoms: C_4  and  C_5
REMARK    5  A    between atoms: C_5  and  C_6
REMARK    6  A    between atoms: C_6  and  C_7
REMARK    7  A    between atoms: C_7  and  C_8
REMARK    8  A    between atoms: C_8  and  O_10
REMARK    9  A    between atoms: O_10  and  C_11
REMARK   10  A    between atoms: C_12  and  O_31
REMARK   11  A    between atoms: C_15  and  C_17
REMARK   12  A    between atoms: C_18  and  O_30
REMARK   13  A    between atoms: C_22  and  O_29
REMARK   14  A    between atoms: C_24  and  O_28
REMARK                            x       y       z     vdW  Elec       q    Type
REMARK                         _______ _______ _______ _____ _____    ______ ____
ROOT
ATOM      1  C   UNL     1       7.592   0.128  22.676  0.00  0.00    +0.173 A 
ATOM      2  C   UNL     1       7.134  -0.877  23.527  0.00  0.00    +0.061 A 
ATOM      3  C   UNL     1       7.877  -2.050  23.678  0.00  0.00    +0.025 A 
ATOM      4  C   UNL     1       9.086  -2.203  22.991  0.00  0.00    +0.015 A 
ATOM      5  C   UNL     1       9.537  -1.195  22.132  0.00  0.00    +0.050 A 
ATOM      6  C   UNL     1       8.777  -0.043  21.964  0.00  0.00    +0.159 A 
ENDROOT
BRANCH   3   7
ATOM      7  C   UNL     1       7.306  -3.142  24.470  0.00  0.00    +0.181 A 
ATOM      8  O   UNL     1       6.320  -3.809  23.766  0.00  0.00    -0.451 OA
ATOM      9  C   UNL     1       5.701  -4.875  24.358  0.00  0.00    +0.147 A 
ATOM     10  C   UNL     1       6.001  -5.301  25.647  0.00  0.00    +0.109 A 
ATOM     11  C   UNL     1       5.343  -6.416  26.178  0.00  0.00    +0.135 A 
ATOM     12  C   UNL     1       4.390  -7.097  25.421  0.00  0.00    +0.091 A 
ATOM     13  C   UNL     1       4.093  -6.648  24.137  0.00  0.00    +0.124 A 
ATOM     14  C   UNL     1       7.014  -4.562  26.412  0.00  0.00    +0.238 A 
ATOM     15  O   UNL     1       7.271  -4.901  27.564  0.00  0.00    -0.283 OA
ATOM     16  C   UNL     1       4.740  -5.542  23.599  0.00  0.00    +0.092 A 
ATOM     17  C   UNL     1       7.684  -3.418  25.732  0.00  0.00    +0.208 A 
BRANCH  11  18
ATOM     18  O   UNL     1       5.592  -6.897  27.434  0.00  0.00    -0.506 OA
ATOM     19  H   UNL     1       4.852  -6.613  28.021  0.00  0.00    +0.292 HD
ENDBRANCH  11  18
BRANCH  13  20
ATOM     20  O   UNL     1       3.168  -7.279  23.359  0.00  0.00    -0.507 OA
ATOM     21  H   UNL     1       2.293  -6.900  23.543  0.00  0.00    +0.292 HD
ENDBRANCH  13  20
BRANCH  17  22
ATOM     22  O   UNL     1       8.641  -2.715  26.439  0.00  0.00    -0.501 OA
ATOM     23  H   UNL     1       9.470  -2.690  25.931  0.00  0.00    +0.292 HD
ENDBRANCH  17  22
ENDBRANCH   3   7
BRANCH   6  24
ATOM     24  O   UNL     1       9.213   0.881  21.058  0.00  0.00    -0.503 OA
ATOM     25  H   UNL     1      10.110   0.615  20.785  0.00  0.00    +0.292 HD
ENDBRANCH   6  24
BRANCH   1  26
ATOM     26  O   UNL     1       6.780   1.235  22.388  0.00  0.00    -0.422 OA
BRANCH  26  27
ATOM     27  C   UNL     1       7.297   2.475  22.756  0.00  0.00    +0.312 C 
ATOM     28  O   UNL     1       7.584   3.394  22.001  0.00  0.00    -0.250 OA
BRANCH  27  29
ATOM     29  C   UNL     1       7.502   2.499  24.252  0.00  0.00    +0.121 C 
BRANCH  29  30
ATOM     30  C   UNL     1       8.790   3.209  24.636  0.00  0.00    +0.011 C 
BRANCH  30  31
ATOM     31  C   UNL     1      10.023   2.432  24.176  0.00  0.00    +0.001 C 
BRANCH  31  32
ATOM     32  C   UNL     1      10.999   3.344  23.442  0.00  0.00    +0.000 C 
BRANCH  32  33
ATOM     33  C   UNL     1      10.602   4.811  23.601  0.00  0.00    -0.000 C 
BRANCH  33  35
ATOM     34  C   UNL     1      12.991   5.262  22.958  0.00  0.00    +0.004 C 
ATOM     35  C   UNL     1      11.829   5.686  23.841  0.00  0.00    -0.003 C 
ENDBRANCH  33  35
ENDBRANCH  32  33
ENDBRANCH  31  32
ENDBRANCH  30  31
ENDBRANCH  29  30
ENDBRANCH  27  29
ENDBRANCH  26  27
ENDBRANCH   1  26
TORSDOF 13
ENDMDL
MODEL 5
REMARK VINA RESULT:      -7.2      2.404      8.479
REMARK  Name = 
REMARK  14 active torsions:
REMARK  status: ('A' for Active; 'I' for Inactive)
REMARK    1  A    between atoms: C_1  and  C_2
REMARK    2  A    between atoms: C_2  and  C_3
REMARK    3  A    between atoms: C_3  and  C_4
REMARK    4  A    between atoms: C_4  and  C_5
REMARK    5  A    between atoms: C_5  and  C_6
REMARK    6  A    between atoms: C_6  and  C_7
REMARK    7  A    between atoms: C_7  and  C_8
REMARK    8  A    between atoms: C_8  and  O_10
REMARK    9  A    between atoms: O_10  and  C_11
REMARK   10  A    between atoms: C_12  and  O_31
REMARK   11  A    between atoms: C_15  and  C_17
REMARK   12  A    between atoms: C_18  and  O_30
REMARK   13  A    between atoms: C_22  and  O_29
REMARK   14  A    between atoms: C_24  and  O_28
REMARK                            x       y       z     vdW  Elec       q    Type
REMARK                         _______ _______ _______ _____ _____    ______ ____
ROOT
ATOM      1  C   UNL     1       6.787  -4.022  26.705  0.00  0.00    +0.173 A 
ATOM      2  C   UNL     1       7.055  -2.957  25.846  0.00  0.00    +0.061 A 
ATOM      3  C   UNL     1       8.281  -2.893  25.180  0.00  0.00    +0.025 A 
ATOM      4  C   UNL     1       9.227  -3.908  25.363  0.00  0.00    +0.015 A 
ATOM      5  C   UNL     1       8.956  -4.970  26.232  0.00  0.00    +0.050 A 
ATOM      6  C   UNL     1       7.745  -5.011  26.914  0.00  0.00    +0.159 A 
ENDROOT
BRANCH   3   7
ATOM      7  C   UNL     1       8.587  -1.697  24.393  0.00  0.00    +0.181 A 
ATOM      8  O   UNL     1       8.312  -0.544  25.106  0.00  0.00    -0.451 OA
ATOM      9  C   UNL     1       8.567   0.665  24.519  0.00  0.00    +0.147 A 
ATOM     10  C   UNL     1       9.066   0.785  23.227  0.00  0.00    +0.109 A 
ATOM     11  C   UNL     1       9.326   2.056  22.702  0.00  0.00    +0.135 A 
ATOM     12  C   UNL     1       9.086   3.196  23.467  0.00  0.00    +0.091 A 
ATOM     13  C   UNL     1       8.573   3.057  24.754  0.00  0.00    +0.124 A 
ATOM     14  C   UNL     1       9.312  -0.439  22.453  0.00  0.00    +0.238 A 
ATOM     15  O   UNL     1       9.722  -0.354  21.298  0.00  0.00    -0.283 OA
ATOM     16  C   UNL     1       8.312   1.800  25.287  0.00  0.00    +0.092 A 
ATOM     17  C   UNL     1       9.043  -1.739  23.127  0.00  0.00    +0.208 A 
BRANCH  11  18
ATOM     18  O   UNL     1       9.824   2.252  21.443  0.00  0.00    -0.506 OA
ATOM     19  H   UNL     1       9.554   3.152  21.144  0.00  0.00    +0.292 HD
ENDBRANCH  11  18
BRANCH  13  20
ATOM     20  O   UNL     1       8.320   4.141  25.540  0.00  0.00    -0.507 OA
ATOM     21  H   UNL     1       8.586   3.936  26.451  0.00  0.00    +0.292 HD
ENDBRANCH  13  20
BRANCH  17  22
ATOM     22  O   UNL     1       9.272  -2.900  22.411  0.00  0.00    -0.501 OA
ATOM     23  H   UNL     1      10.176  -2.889  22.052  0.00  0.00    +0.292 HD
ENDBRANCH  17  22
ENDBRANCH   3   7
BRANCH   6  24
ATOM     24  O   UNL     1       7.554  -6.023  27.811  0.00  0.00    -0.503 OA
ATOM     25  H   UNL     1       6.846  -6.591  27.458  0.00  0.00    +0.292 HD
ENDBRANCH   6  24
BRANCH   1  26
ATOM     26  O   UNL     1       5.633  -4.015  27.502  0.00  0.00    -0.422 OA
BRANCH  26  27
ATOM     27  C   UNL     1       4.574  -4.793  27.041  0.00  0.00    +0.312 C 
ATOM     28  O   UNL     1       4.471  -6.009  27.142  0.00  0.00    -0.250 OA
BRANCH  27  29
ATOM     29  C   UNL     1       3.578  -3.903  26.337  0.00  0.00    +0.121 C 
BRANCH  29  30
ATOM     30  C   UNL     1       3.128  -4.494  25.011  0.00  0.00    +0.011 C 
BRANCH  30  31
ATOM     31  C   UNL     1       4.030  -4.053  23.860  0.00  0.00    +0.001 C 
BRANCH  31  32
ATOM     32  C   UNL     1       4.490  -5.252  23.038  0.00  0.00    +0.000 C 
BRANCH  32  33
ATOM     33  C   UNL     1       5.711  -5.915  23.673  0.00  0.00    -0.000 C 
BRANCH  33  35
ATOM     34  C   UNL     1       6.741  -5.578  21.404  0.00  0.00    +0.004 C 
ATOM     35  C   UNL     1       6.982  -5.568  22.903  0.00  0.00    -0.003 C 
ENDBRANCH  33  35
ENDBRANCH  32  33
ENDBRANCH  31  32
ENDBRANCH  30  31
ENDBRANCH  29  30
ENDBRANCH  27  29
ENDBRANCH  26  27
ENDBRANCH   1  26
TORSDOF 13
ENDMDL
MODEL 6
REMARK VINA RESULT:      -7.1      2.263      3.113
REMARK  Name = 
REMARK  14 active torsions:
REMARK  status: ('A' for Active; 'I' for Inactive)
REMARK    1  A    between atoms: C_1  and  C_2
REMARK    2  A    between atoms: C_2  and  C_3
REMARK    3  A    between atoms: C_3  and  C_4
REMARK    4  A    between atoms: C_4  and  C_5
REMARK    5  A    between atoms: C_5  and  C_6
REMARK    6  A    between atoms: C_6  and  C_7
REMARK    7  A    between atoms: C_7  and  C_8
REMARK    8  A    between atoms: C_8  and  O_10
REMARK    9  A    between atoms: O_10  and  C_11
REMARK   10  A    between atoms: C_12  and  O_31
REMARK   11  A    between atoms: C_15  and  C_17
REMARK   12  A    between atoms: C_18  and  O_30
REMARK   13  A    between atoms: C_22  and  O_29
REMARK   14  A    between atoms: C_24  and  O_28
REMARK                            x       y       z     vdW  Elec       q    Type
REMARK                         _______ _______ _______ _____ _____    ______ ____
ROOT
ATOM      1  C   UNL     1       7.595   0.770  22.532  0.00  0.00    +0.173 A 
ATOM      2  C   UNL     1       6.989  -0.373  23.053  0.00  0.00    +0.061 A 
ATOM      3  C   UNL     1       7.563  -1.626  22.829  0.00  0.00    +0.025 A 
ATOM      4  C   UNL     1       8.753  -1.728  22.101  0.00  0.00    +0.015 A 
ATOM      5  C   UNL     1       9.354  -0.579  21.574  0.00  0.00    +0.050 A 
ATOM      6  C   UNL     1       8.760   0.663  21.776  0.00  0.00    +0.159 A 
ENDROOT
BRANCH   3   7
ATOM      7  C   UNL     1       6.834  -2.817  23.270  0.00  0.00    +0.181 A 
ATOM      8  O   UNL     1       7.233  -3.209  24.535  0.00  0.00    -0.451 OA
ATOM      9  C   UNL     1       6.628  -4.295  25.105  0.00  0.00    +0.147 A 
ATOM     10  C   UNL     1       5.648  -5.038  24.457  0.00  0.00    +0.109 A 
ATOM     11  C   UNL     1       5.056  -6.123  25.113  0.00  0.00    +0.135 A 
ATOM     12  C   UNL     1       5.446  -6.460  26.409  0.00  0.00    +0.091 A 
ATOM     13  C   UNL     1       6.439  -5.713  27.037  0.00  0.00    +0.124 A 
ATOM     14  C   UNL     1       5.259  -4.651  23.095  0.00  0.00    +0.238 A 
ATOM     15  O   UNL     1       4.419  -5.313  22.492  0.00  0.00    -0.283 OA
ATOM     16  C   UNL     1       7.034  -4.632  26.396  0.00  0.00    +0.092 A 
ATOM     17  C   UNL     1       5.922  -3.452  22.510  0.00  0.00    +0.208 A 
BRANCH  11  18
ATOM     18  O   UNL     1       4.082  -6.895  24.543  0.00  0.00    -0.506 OA
ATOM     19  H   UNL     1       4.252  -7.834  24.791  0.00  0.00    +0.292 HD
ENDBRANCH  11  18
BRANCH  13  20
ATOM     20  O   UNL     1       6.855  -6.003  28.302  0.00  0.00    -0.507 OA
ATOM     21  H   UNL     1       6.085  -6.000  28.893  0.00  0.00    +0.292 HD
ENDBRANCH  13  20
BRANCH  17  22
ATOM     22  O   UNL     1       5.564  -3.074  21.229  0.00  0.00    -0.501 OA
ATOM     23  H   UNL     1       4.871  -2.392  21.272  0.00  0.00    +0.292 HD
ENDBRANCH  17  22
ENDBRANCH   3   7
BRANCH   6  24
ATOM     24  O   UNL     1       9.335   1.747  21.179  0.00  0.00    -0.503 OA
ATOM     25  H   UNL     1       9.603   2.358  21.888  0.00  0.00    +0.292 HD
ENDBRANCH   6  24
BRANCH   1  26
ATOM     26  O   UNL     1       6.947   2.012  22.608  0.00  0.00    -0.422 OA
BRANCH  26  27
ATOM     27  C   UNL     1       7.299   2.812  23.692  0.00  0.00    +0.312 C 
ATOM     28  O   UNL     1       8.359   3.406  23.840  0.00  0.00    -0.250 OA
BRANCH  27  29
ATOM     29  C   UNL     1       6.176   2.797  24.701  0.00  0.00    +0.121 C 
BRANCH  29  30
ATOM     30  C   UNL     1       6.559   2.042  25.963  0.00  0.00    +0.011 C 
BRANCH  30  31
ATOM     31  C   UNL     1       5.676   0.813  26.177  0.00  0.00    +0.001 C 
BRANCH  31  32
ATOM     32  C   UNL     1       6.507  -0.382  26.631  0.00  0.00    +0.000 C 
BRANCH  32  33
ATOM     33  C   UNL     1       7.942   0.038  26.945  0.00  0.00    -0.000 C 
BRANCH  33  35
ATOM     34  C   UNL     1       9.877   0.018  25.341  0.00  0.00    +0.004 C 
ATOM     35  C   UNL     1       8.943  -0.829  26.187  0.00  0.00    -0.003 C 
ENDBRANCH  33  35
ENDBRANCH  32  33
ENDBRANCH  31  32
ENDBRANCH  30  31
ENDBRANCH  29  30
ENDBRANCH  27  29
ENDBRANCH  26  27
ENDBRANCH   1  26
TORSDOF 13
ENDMDL
MODEL 7
REMARK VINA RESULT:      -7.0      1.134      2.527
REMARK  Name = 
REMARK  14 active torsions:
REMARK  status: ('A' for Active; 'I' for Inactive)
REMARK    1  A    between atoms: C_1  and  C_2
REMARK    2  A    between atoms: C_2  and  C_3
REMARK    3  A    between atoms: C_3  and  C_4
REMARK    4  A    between atoms: C_4  and  C_5
REMARK    5  A    between atoms: C_5  and  C_6
REMARK    6  A    between atoms: C_6  and  C_7
REMARK    7  A    between atoms: C_7  and  C_8
REMARK    8  A    between atoms: C_8  and  O_10
REMARK    9  A    between atoms: O_10  and  C_11
REMARK   10  A    between atoms: C_12  and  O_31
REMARK   11  A    between atoms: C_15  and  C_17
REMARK   12  A    between atoms: C_18  and  O_30
REMARK   13  A    between atoms: C_22  and  O_29
REMARK   14  A    between atoms: C_24  and  O_28
REMARK                            x       y       z     vdW  Elec       q    Type
REMARK                         _______ _______ _______ _____ _____    ______ ____
ROOT
ATOM      1  C   UNL     1       8.309   1.202  23.046  0.00  0.00    +0.173 A 
ATOM      2  C   UNL     1       7.809   0.101  23.741  0.00  0.00    +0.061 A 
ATOM      3  C   UNL     1       8.442  -1.138  23.628  0.00  0.00    +0.025 A 
ATOM      4  C   UNL     1       9.587  -1.266  22.834  0.00  0.00    +0.015 A 
ATOM      5  C   UNL     1      10.081  -0.161  22.132  0.00  0.00    +0.050 A 
ATOM      6  C   UNL     1       9.426   1.063  22.226  0.00  0.00    +0.159 A 
ENDROOT
BRANCH   3   7
ATOM      7  C   UNL     1       7.817  -2.302  24.260  0.00  0.00    +0.181 A 
ATOM      8  O   UNL     1       6.924  -2.918  23.402  0.00  0.00    -0.451 OA
ATOM      9  C   UNL     1       6.271  -4.040  23.832  0.00  0.00    +0.147 A 
ATOM     10  C   UNL     1       6.448  -4.574  25.103  0.00  0.00    +0.109 A 
ATOM     11  C   UNL     1       5.763  -5.740  25.464  0.00  0.00    +0.135 A 
ATOM     12  C   UNL     1       4.908  -6.364  24.557  0.00  0.00    +0.091 A 
ATOM     13  C   UNL     1       4.734  -5.808  23.293  0.00  0.00    +0.124 A 
ATOM     14  C   UNL     1       7.360  -3.892  26.030  0.00  0.00    +0.238 A 
ATOM     15  O   UNL     1       7.506  -4.329  27.169  0.00  0.00    -0.283 OA
ATOM     16  C   UNL     1       5.408  -4.650  22.922  0.00  0.00    +0.092 A 
ATOM     17  C   UNL     1       8.070  -2.684  25.525  0.00  0.00    +0.208 A 
BRANCH  11  18
ATOM     18  O   UNL     1       5.893  -6.327  26.693  0.00  0.00    -0.506 OA
ATOM     19  H   UNL     1       6.824  -6.636  26.788  0.00  0.00    +0.292 HD
ENDBRANCH  11  18
BRANCH  13  20
ATOM     20  O   UNL     1       3.908  -6.380  22.372  0.00  0.00    -0.507 OA
ATOM     21  H   UNL     1       4.189  -7.298  22.227  0.00  0.00    +0.292 HD
ENDBRANCH  13  20
BRANCH  17  22
ATOM     22  O   UNL     1       8.935  -2.034  26.386  0.00  0.00    -0.501 OA
ATOM     23  H   UNL     1       8.676  -2.214  27.306  0.00  0.00    +0.292 HD
ENDBRANCH  17  22
ENDBRANCH   3   7
BRANCH   6  24
ATOM     24  O   UNL     1       9.894   2.095  21.464  0.00  0.00    -0.503 OA
ATOM     25  H   UNL     1       9.370   2.883  21.693  0.00  0.00    +0.292 HD
ENDBRANCH   6  24
BRANCH   1  26
ATOM     26  O   UNL     1       7.592   2.407  23.019  0.00  0.00    -0.422 OA
BRANCH  26  27
ATOM     27  C   UNL     1       7.314   2.972  24.261  0.00  0.00    +0.312 C 
ATOM     28  O   UNL     1       6.205   3.121  24.758  0.00  0.00    -0.250 OA
BRANCH  27  29
ATOM     29  C   UNL     1       8.605   3.432  24.894  0.00  0.00    +0.121 C 
BRANCH  29  30
ATOM     30  C   UNL     1       8.487   4.834  25.468  0.00  0.00    +0.011 C 
BRANCH  30  31
ATOM     31  C   UNL     1       9.254   5.855  24.628  0.00  0.00    +0.001 C 
BRANCH  31  32
ATOM     32  C   UNL     1      10.296   5.168  23.753  0.00  0.00    +0.000 C 
BRANCH  32  33
ATOM     33  C   UNL     1      11.653   5.857  23.874  0.00  0.00    -0.000 C 
BRANCH  33  35
ATOM     34  C   UNL     1      13.354   5.685  22.030  0.00  0.00    +0.004 C 
ATOM     35  C   UNL     1      12.756   5.007  23.251  0.00  0.00    -0.003 C 
ENDBRANCH  33  35
ENDBRANCH  32  33
ENDBRANCH  31  32
ENDBRANCH  30  31
ENDBRANCH  29  30
ENDBRANCH  27  29
ENDBRANCH  26  27
ENDBRANCH   1  26
TORSDOF 13
ENDMDL
MODEL 8
REMARK VINA RESULT:      -6.9      2.557      3.926
REMARK  Name = 
REMARK  14 active torsions:
REMARK  status: ('A' for Active; 'I' for Inactive)
REMARK    1  A    between atoms: C_1  and  C_2
REMARK    2  A    between atoms: C_2  and  C_3
REMARK    3  A    between atoms: C_3  and  C_4
REMARK    4  A    between atoms: C_4  and  C_5
REMARK    5  A    between atoms: C_5  and  C_6
REMARK    6  A    between atoms: C_6  and  C_7
REMARK    7  A    between atoms: C_7  and  C_8
REMARK    8  A    between atoms: C_8  and  O_10
REMARK    9  A    between atoms: O_10  and  C_11
REMARK   10  A    between atoms: C_12  and  O_31
REMARK   11  A    between atoms: C_15  and  C_17
REMARK   12  A    between atoms: C_18  and  O_30
REMARK   13  A    between atoms: C_22  and  O_29
REMARK   14  A    between atoms: C_24  and  O_28
REMARK                            x       y       z     vdW  Elec       q    Type
REMARK                         _______ _______ _______ _____ _____    ______ ____
ROOT
ATOM      1  C   UNL     1       9.953   1.250  23.630  0.00  0.00    +0.173 A 
ATOM      2  C   UNL     1       9.556   0.178  24.429  0.00  0.00    +0.061 A 
ATOM      3  C   UNL     1       9.095  -0.998  23.834  0.00  0.00    +0.025 A 
ATOM      4  C   UNL     1       9.053  -1.104  22.439  0.00  0.00    +0.015 A 
ATOM      5  C   UNL     1       9.445  -0.023  21.642  0.00  0.00    +0.050 A 
ATOM      6  C   UNL     1       9.874   1.156  22.242  0.00  0.00    +0.159 A 
ENDROOT
BRANCH   3   7
ATOM      7  C   UNL     1       8.559  -2.054  24.696  0.00  0.00    +0.181 A 
ATOM      8  O   UNL     1       7.438  -1.620  25.381  0.00  0.00    -0.451 OA
ATOM      9  C   UNL     1       6.799  -2.496  26.213  0.00  0.00    +0.147 A 
ATOM     10  C   UNL     1       7.243  -3.798  26.421  0.00  0.00    +0.109 A 
ATOM     11  C   UNL     1       6.523  -4.646  27.269  0.00  0.00    +0.135 A 
ATOM     12  C   UNL     1       5.368  -4.192  27.904  0.00  0.00    +0.091 A 
ATOM     13  C   UNL     1       4.946  -2.882  27.694  0.00  0.00    +0.124 A 
ATOM     14  C   UNL     1       8.460  -4.242  25.730  0.00  0.00    +0.238 A 
ATOM     15  O   UNL     1       8.888  -5.378  25.925  0.00  0.00    -0.283 OA
ATOM     16  C   UNL     1       5.652  -2.029  26.854  0.00  0.00    +0.092 A 
ATOM     17  C   UNL     1       9.121  -3.270  24.816  0.00  0.00    +0.208 A 
BRANCH  11  18
ATOM     18  O   UNL     1       6.893  -5.940  27.515  0.00  0.00    -0.506 OA
ATOM     19  H   UNL     1       6.370  -6.526  26.920  0.00  0.00    +0.292 HD
ENDBRANCH  11  18
BRANCH  13  20
ATOM     20  O   UNL     1       3.824  -2.391  28.294  0.00  0.00    -0.507 OA
ATOM     21  H   UNL     1       3.128  -3.067  28.257  0.00  0.00    +0.292 HD
ENDBRANCH  13  20
BRANCH  17  22
ATOM     22  O   UNL     1      10.267  -3.676  24.158  0.00  0.00    -0.501 OA
ATOM     23  H   UNL     1      10.298  -3.270  23.275  0.00  0.00    +0.292 HD
ENDBRANCH  17  22
ENDBRANCH   3   7
BRANCH   6  24
ATOM     24  O   UNL     1      10.173   2.211  21.430  0.00  0.00    -0.503 OA
ATOM     25  H   UNL     1      10.422   2.956  22.005  0.00  0.00    +0.292 HD
ENDBRANCH   6  24
BRANCH   1  26
ATOM     26  O   UNL     1      10.261   2.489  24.210  0.00  0.00    -0.422 OA
BRANCH  26  27
ATOM     27  C   UNL     1       9.170   3.272  24.578  0.00  0.00    +0.312 C 
ATOM     28  O   UNL     1       8.336   3.000  25.431  0.00  0.00    -0.250 OA
BRANCH  27  29
ATOM     29  C   UNL     1       9.137   4.509  23.712  0.00  0.00    +0.121 C 
BRANCH  29  30
ATOM     30  C   UNL     1       7.720   4.885  23.313  0.00  0.00    +0.011 C 
BRANCH  30  31
ATOM     31  C   UNL     1       7.222   4.045  22.138  0.00  0.00    +0.001 C 
BRANCH  31  32
ATOM     32  C   UNL     1       5.999   3.224  22.534  0.00  0.00    +0.000 C 
BRANCH  32  33
ATOM     33  C   UNL     1       6.345   1.740  22.628  0.00  0.00    -0.000 C 
BRANCH  33  35
ATOM     34  C   UNL     1       5.011   2.091  24.730  0.00  0.00    +0.004 C 
ATOM     35  C   UNL     1       5.985   1.181  24.002  0.00  0.00    -0.003 C 
ENDBRANCH  33  35
ENDBRANCH  32  33
ENDBRANCH  31  32
ENDBRANCH  30  31
ENDBRANCH  29  30
ENDBRANCH  27  29
ENDBRANCH  26  27
ENDBRANCH   1  26
TORSDOF 13
ENDMDL
MODEL 9
REMARK VINA RESULT:      -6.9      3.515      8.996
REMARK  Name = 
REMARK  14 active torsions:
REMARK  status: ('A' for Active; 'I' for Inactive)
REMARK    1  A    between atoms: C_1  and  C_2
REMARK    2  A    between atoms: C_2  and  C_3
REMARK    3  A    between atoms: C_3  and  C_4
REMARK    4  A    between atoms: C_4  and  C_5
REMARK    5  A    between atoms: C_5  and  C_6
REMARK    6  A    between atoms: C_6  and  C_7
REMARK    7  A    between atoms: C_7  and  C_8
REMARK    8  A    between atoms: C_8  and  O_10
REMARK    9  A    between atoms: O_10  and  C_11
REMARK   10  A    between atoms: C_12  and  O_31
REMARK   11  A    between atoms: C_15  and  C_17
REMARK   12  A    between atoms: C_18  and  O_30
REMARK   13  A    between atoms: C_22  and  O_29
REMARK   14  A    between atoms: C_24  and  O_28
REMARK                            x       y       z     vdW  Elec       q    Type
REMARK                         _______ _______ _______ _____ _____    ______ ____
ROOT
ATOM      1  C   UNL     1       4.676  -6.729  26.824  0.00  0.00    +0.173 A 
ATOM      2  C   UNL     1       5.500  -5.955  26.007  0.00  0.00    +0.061 A 
ATOM      3  C   UNL     1       6.608  -5.305  26.553  0.00  0.00    +0.025 A 
ATOM      4  C   UNL     1       6.899  -5.449  27.914  0.00  0.00    +0.015 A 
ATOM      5  C   UNL     1       6.066  -6.220  28.732  0.00  0.00    +0.050 A 
ATOM      6  C   UNL     1       4.947  -6.840  28.186  0.00  0.00    +0.159 A 
ENDROOT
BRANCH   3   7
ATOM      7  C   UNL     1       7.374  -4.393  25.701  0.00  0.00    +0.181 A 
ATOM      8  O   UNL     1       6.595  -3.333  25.274  0.00  0.00    -0.451 OA
ATOM      9  C   UNL     1       7.169  -2.374  24.487  0.00  0.00    +0.147 A 
ATOM     10  C   UNL     1       8.496  -2.431  24.076  0.00  0.00    +0.109 A 
ATOM     11  C   UNL     1       9.021  -1.399  23.290  0.00  0.00    +0.135 A 
ATOM     12  C   UNL     1       8.221  -0.319  22.920  0.00  0.00    +0.091 A 
ATOM     13  C   UNL     1       6.891  -0.285  23.330  0.00  0.00    +0.124 A 
ATOM     14  C   UNL     1       9.309  -3.582  24.490  0.00  0.00    +0.238 A 
ATOM     15  O   UNL     1      10.474  -3.668  24.110  0.00  0.00    -0.283 OA
ATOM     16  C   UNL     1       6.357  -1.304  24.111  0.00  0.00    +0.092 A 
ATOM     17  C   UNL     1       8.660  -4.599  25.363  0.00  0.00    +0.208 A 
BRANCH  11  18
ATOM     18  O   UNL     1      10.318  -1.383  22.855  0.00  0.00    -0.506 OA
ATOM     19  H   UNL     1      10.338  -1.754  21.941  0.00  0.00    +0.292 HD
ENDBRANCH  11  18
BRANCH  13  20
ATOM     20  O   UNL     1       6.068   0.748  22.993  0.00  0.00    -0.507 OA
ATOM     21  H   UNL     1       5.154   0.504  23.211  0.00  0.00    +0.292 HD
ENDBRANCH  13  20
BRANCH  17  22
ATOM     22  O   UNL     1       9.415  -5.686  25.762  0.00  0.00    -0.501 OA
ATOM     23  H   UNL     1       9.609  -5.617  26.712  0.00  0.00    +0.292 HD
ENDBRANCH  17  22
ENDBRANCH   3   7
BRANCH   6  24
ATOM     24  O   UNL     1       4.118  -7.517  29.033  0.00  0.00    -0.503 OA
ATOM     25  H   UNL     1       4.680  -7.955  29.697  0.00  0.00    +0.292 HD
ENDBRANCH   6  24
BRANCH   1  26
ATOM     26  O   UNL     1       3.474  -7.250  26.326  0.00  0.00    -0.422 OA
BRANCH  26  27
ATOM     27  C   UNL     1       2.364  -6.414  26.424  0.00  0.00    +0.312 C 
ATOM     28  O   UNL     1       1.891  -5.956  27.456  0.00  0.00    -0.250 OA
BRANCH  27  29
ATOM     29  C   UNL     1       1.789  -6.194  25.046  0.00  0.00    +0.121 C 
BRANCH  29  30
ATOM     30  C   UNL     1       2.524  -7.002  23.989  0.00  0.00    +0.011 C 
BRANCH  30  31
ATOM     31  C   UNL     1       3.018  -6.120  22.843  0.00  0.00    +0.001 C 
BRANCH  31  32
ATOM     32  C   UNL     1       3.748  -4.892  23.377  0.00  0.00    +0.000 C 
BRANCH  32  33
ATOM     33  C   UNL     1       4.989  -4.588  22.541  0.00  0.00    -0.000 C 
BRANCH  33  35
ATOM     34  C   UNL     1       7.193  -5.758  22.235  0.00  0.00    +0.004 C 
ATOM     35  C   UNL     1       5.684  -5.875  22.107  0.00  0.00    -0.003 C 
ENDBRANCH  33  35
ENDBRANCH  32  33
ENDBRANCH  31  32
ENDBRANCH  30  31
ENDBRANCH  29  30
ENDBRANCH  27  29
ENDBRANCH  26  27
ENDBRANCH   1  26
TORSDOF 13
ENDMDL
