MODEL 1
REMARK VINA RESULT:      -6.5      0.000      0.000
REMARK  Name = 
REMARK  26 active torsions:
REMARK  status: ('A' for Active; 'I' for Inactive)
REMARK    1  A    between atoms: C_2  and  O_72
REMARK    2  A    between atoms: C_4  and  O_71
REMARK    3  A    between atoms: C_5  and  O_59
REMARK    4  A    between atoms: C_6  and  O_9
REMARK    5  A    between atoms: O_9  and  C_10
REMARK    6  A    between atoms: C_11  and  O_58
REMARK    7  A    between atoms: C_13  and  O_57
REMARK    8  A    between atoms: C_15  and  C_55
REMARK    9  A    between atoms: C_17  and  O_19
REMARK   10  A    between atoms: O_19  and  C_20
REMARK   11  A    between atoms: C_21  and  C_47
REMARK   12  A    between atoms: C_25  and  O_32
REMARK   13  A    between atoms: C_27  and  O_31
REMARK   14  A    between atoms: O_32  and  C_33
REMARK   15  A    between atoms: C_35  and  O_46
REMARK   16  A    between atoms: C_36  and  O_45
REMARK   17  A    between atoms: C_37  and  O_44
REMARK   18  A    between atoms: C_39  and  C_42
REMARK   19  A    between atoms: C_42  and  O_43
REMARK   20  A    between atoms: C_49  and  O_54
REMARK   21  A    between atoms: C_50  and  O_53
REMARK   22  A    between atoms: C_55  and  O_56
REMARK   23  A    between atoms: O_59  and  C_60
REMARK   24  A    between atoms: C_60  and  C_62
REMARK   25  A    between atoms: C_63  and  C_64
REMARK   26  A    between atoms: C_67  and  O_70
REMARK                            x       y       z     vdW  Elec       q    Type
REMARK                         _______ _______ _______ _____ _____    ______ ____
ROOT
ATOM      1  C   UNL     1       5.316  -1.361  26.726  0.00  0.00    +0.214 A 
ATOM      2  C   UNL     1       4.573  -0.033  26.722  0.00  0.00    +0.238 A 
ATOM      3  O   UNL     1       3.363   0.042  26.533  0.00  0.00    -0.283 OA
ATOM      4  C   UNL     1       5.361   1.214  26.847  0.00  0.00    +0.109 A 
ATOM      5  C   UNL     1       6.734   1.091  26.829  0.00  0.00    +0.147 A 
ATOM      6  C   UNL     1       7.569   2.216  26.838  0.00  0.00    +0.093 A 
ATOM      7  C   UNL     1       7.033   3.500  26.831  0.00  0.00    +0.131 A 
ATOM      8  C   UNL     1       5.641   3.639  26.905  0.00  0.00    +0.092 A 
ATOM      9  O   UNL     1       7.377  -0.102  26.784  0.00  0.00    -0.451 OA
ATOM     10  C   UNL     1       4.815   2.503  26.924  0.00  0.00    +0.135 A 
ATOM     11  C   UNL     1       6.667  -1.290  26.722  0.00  0.00    +0.181 A 
ENDROOT
BRANCH  11  12
ATOM     12  C   UNL     1       7.631  -2.423  26.536  0.00  0.00    +0.025 A 
ATOM     13  C   UNL     1       8.722  -2.245  25.649  0.00  0.00    +0.015 A 
ATOM     14  C   UNL     1       9.492  -3.320  25.197  0.00  0.00    +0.050 A 
ATOM     15  C   UNL     1       9.191  -4.589  25.643  0.00  0.00    +0.158 A 
ATOM     16  C   UNL     1       8.155  -4.793  26.554  0.00  0.00    +0.159 A 
ATOM     17  C   UNL     1       7.378  -3.724  27.006  0.00  0.00    +0.060 A 
BRANCH  16  18
ATOM     18  O   UNL     1       7.888  -6.083  26.930  0.00  0.00    -0.503 OA
ATOM     19  H   UNL     1       7.304  -6.047  27.709  0.00  0.00    +0.292 HD
ENDBRANCH  16  18
BRANCH  15  20
ATOM     20  O   UNL     1       9.886  -5.655  25.149  0.00  0.00    -0.503 OA
ATOM     21  H   UNL     1      10.629  -5.779  25.773  0.00  0.00    +0.292 HD
ENDBRANCH  15  20
ENDBRANCH  11  12
BRANCH  10  22
ATOM     22  O   UNL     1       3.463   2.680  27.026  0.00  0.00    -0.506 OA
ATOM     23  H   UNL     1       3.005   2.247  26.289  0.00  0.00    +0.292 HD
ENDBRANCH  10  22
BRANCH   7  24
ATOM     24  O   UNL     1       7.765   4.662  26.763  0.00  0.00    -0.461 OA
BRANCH  24  25
ATOM     25  C   UNL     1       7.328   5.639  25.798  0.00  0.00    +0.339 C 
ATOM     26  O   UNL     1       6.594   5.051  24.723  0.00  0.00    -0.331 OA
ATOM     27  C   UNL     1       7.367   4.117  23.946  0.00  0.00    +0.179 C 
ATOM     28  C   UNL     1       8.603   4.784  23.321  0.00  0.00    +0.177 C 
ATOM     29  C   UNL     1       9.411   5.549  24.372  0.00  0.00    +0.180 C 
ATOM     30  C   UNL     1       8.505   6.450  25.215  0.00  0.00    +0.214 C 
BRANCH  30  31
ATOM     31  O   UNL     1       9.316   7.103  26.204  0.00  0.00    -0.383 OA
ATOM     32  H   UNL     1      10.134   7.407  25.770  0.00  0.00    +0.210 HD
ENDBRANCH  30  31
BRANCH  29  33
ATOM     33  O   UNL     1      10.385   6.359  23.682  0.00  0.00    -0.386 OA
ATOM     34  H   UNL     1      10.245   6.182  22.730  0.00  0.00    +0.210 HD
ENDBRANCH  29  33
BRANCH  28  35
ATOM     35  O   UNL     1       8.214   5.713  22.296  0.00  0.00    -0.386 OA
ATOM     36  H   UNL     1       7.550   6.293  22.724  0.00  0.00    +0.210 HD
ENDBRANCH  28  35
BRANCH  27  37
ATOM     37  C   UNL     1       6.442   3.534  22.868  0.00  0.00    +0.190 C 
BRANCH  37  38
ATOM     38  O   UNL     1       7.146   3.270  21.650  0.00  0.00    -0.392 OA
ATOM     39  H   UNL     1       6.746   2.492  21.227  0.00  0.00    +0.210 HD
ENDBRANCH  37  38
ENDBRANCH  27  37
ENDBRANCH  24  25
ENDBRANCH   7  24
BRANCH   1  40
ATOM     40  O   UNL     1       4.663  -2.605  26.666  0.00  0.00    -0.453 OA
BRANCH  40  42
ATOM     41  C   UNL     1       2.655  -3.962  27.124  0.00  0.00    +0.221 C 
ATOM     42  C   UNL     1       3.654  -2.889  27.650  0.00  0.00    +0.340 C 
ATOM     43  O   UNL     1       4.226  -3.350  28.898  0.00  0.00    -0.331 OA
ATOM     44  C   UNL     1       3.237  -3.519  29.946  0.00  0.00    +0.179 C 
ATOM     45  C   UNL     1       2.134  -4.505  29.510  0.00  0.00    +0.177 C 
ATOM     46  C   UNL     1       1.535  -4.045  28.175  0.00  0.00    +0.180 C 
BRANCH  46  47
ATOM     47  O   UNL     1       0.447  -4.903  27.794  0.00  0.00    -0.386 OA
ATOM     48  H   UNL     1       0.288  -5.508  28.544  0.00  0.00    +0.210 HD
ENDBRANCH  46  47
BRANCH  45  49
ATOM     49  O   UNL     1       1.094  -4.613  30.485  0.00  0.00    -0.386 OA
ATOM     50  H   UNL     1       0.439  -5.228  30.097  0.00  0.00    +0.210 HD
ENDBRANCH  45  49
BRANCH  44  51
ATOM     51  C   UNL     1       2.640  -2.180  30.453  0.00  0.00    +0.190 C 
BRANCH  51  52
ATOM     52  O   UNL     1       3.570  -1.103  30.329  0.00  0.00    -0.392 OA
ATOM     53  H   UNL     1       4.251  -1.383  29.691  0.00  0.00    +0.210 HD
ENDBRANCH  51  52
ENDBRANCH  44  51
BRANCH  41  54
ATOM     54  O   UNL     1       3.351  -5.228  26.883  0.00  0.00    -0.336 OA
BRANCH  54  57
ATOM     55  C   UNL     1       2.121  -8.158  25.130  0.00  0.00    +0.197 C 
ATOM     56  O   UNL     1       2.920  -7.425  26.073  0.00  0.00    -0.345 OA
ATOM     57  C   UNL     1       2.813  -6.010  25.811  0.00  0.00    +0.294 C 
ATOM     58  C   UNL     1       3.492  -5.721  24.461  0.00  0.00    +0.263 C 
ATOM     59  C   UNL     1       2.684  -6.421  23.376  0.00  0.00    +0.191 C 
ATOM     60  C   UNL     1       2.548  -7.922  23.671  0.00  0.00    +0.172 C 
BRANCH  60  61
ATOM     61  O   UNL     1       1.574  -8.478  22.780  0.00  0.00    -0.387 OA
ATOM     62  H   UNL     1       0.743  -7.993  22.896  0.00  0.00    +0.210 HD
ENDBRANCH  60  61
BRANCH  59  63
ATOM     63  O   UNL     1       3.293  -6.181  22.098  0.00  0.00    -0.385 OA
ATOM     64  H   UNL     1       3.166  -5.240  21.885  0.00  0.00    +0.210 HD
ENDBRANCH  59  63
BRANCH  58  65
ATOM     65  O   UNL     1       4.834  -6.284  24.458  0.00  0.00    -0.450 OA
BRANCH  65  66
ATOM     66  C   UNL     1       5.629  -5.978  23.403  0.00  0.00    +0.332 C 
ATOM     67  O   UNL     1       5.977  -6.738  22.517  0.00  0.00    -0.246 OA
BRANCH  66  68
ATOM     68  C   UNL     1       6.062  -4.576  23.560  0.00  0.00    +0.092 C 
ATOM     69  C   UNL     1       6.431  -3.866  22.484  0.00  0.00    +0.015 C 
BRANCH  69  70
ATOM     70  C   UNL     1       6.994  -2.509  22.536  0.00  0.00    -0.025 A 
ATOM     71  C   UNL     1       6.321  -1.415  23.096  0.00  0.00    +0.011 A 
ATOM     72  C   UNL     1       6.950  -0.171  23.199  0.00  0.00    +0.046 A 
ATOM     73  C   UNL     1       8.247  -0.013  22.734  0.00  0.00    +0.117 A 
ATOM     74  C   UNL     1       8.911  -1.064  22.115  0.00  0.00    +0.046 A 
ATOM     75  C   UNL     1       8.279  -2.306  22.009  0.00  0.00    +0.011 A 
BRANCH  73  76
ATOM     76  O   UNL     1       8.848   1.197  22.914  0.00  0.00    -0.507 OA
ATOM     77  H   UNL     1       9.797   1.101  22.734  0.00  0.00    +0.292 HD
ENDBRANCH  73  76
ENDBRANCH  69  70
ENDBRANCH  66  68
ENDBRANCH  65  66
ENDBRANCH  58  65
ENDBRANCH  54  57
ENDBRANCH  41  54
ENDBRANCH  40  42
ENDBRANCH   1  40
TORSDOF 26
ENDMDL
MODEL 2
REMARK VINA RESULT:      -6.0      1.592      2.451
REMARK  Name = 
REMARK  26 active torsions:
REMARK  status: ('A' for Active; 'I' for Inactive)
REMARK    1  A    between atoms: C_2  and  O_72
REMARK    2  A    between atoms: C_4  and  O_71
REMARK    3  A    between atoms: C_5  and  O_59
REMARK    4  A    between atoms: C_6  and  O_9
REMARK    5  A    between atoms: O_9  and  C_10
REMARK    6  A    between atoms: C_11  and  O_58
REMARK    7  A    between atoms: C_13  and  O_57
REMARK    8  A    between atoms: C_15  and  C_55
REMARK    9  A    between atoms: C_17  and  O_19
REMARK   10  A    between atoms: O_19  and  C_20
REMARK   11  A    between atoms: C_21  and  C_47
REMARK   12  A    between atoms: C_25  and  O_32
REMARK   13  A    between atoms: C_27  and  O_31
REMARK   14  A    between atoms: O_32  and  C_33
REMARK   15  A    between atoms: C_35  and  O_46
REMARK   16  A    between atoms: C_36  and  O_45
REMARK   17  A    between atoms: C_37  and  O_44
REMARK   18  A    between atoms: C_39  and  C_42
REMARK   19  A    between atoms: C_42  and  O_43
REMARK   20  A    between atoms: C_49  and  O_54
REMARK   21  A    between atoms: C_50  and  O_53
REMARK   22  A    between atoms: C_55  and  O_56
REMARK   23  A    between atoms: O_59  and  C_60
REMARK   24  A    between atoms: C_60  and  C_62
REMARK   25  A    between atoms: C_63  and  C_64
REMARK   26  A    between atoms: C_67  and  O_70
REMARK                            x       y       z     vdW  Elec       q    Type
REMARK                         _______ _______ _______ _____ _____    ______ ____
ROOT
ATOM      1  C   UNL     1       5.656  -1.138  26.333  0.00  0.00    +0.214 A 
ATOM      2  C   UNL     1       5.005   0.223  26.138  0.00  0.00    +0.238 A 
ATOM      3  O   UNL     1       3.796   0.357  25.981  0.00  0.00    -0.283 OA
ATOM      4  C   UNL     1       5.882   1.412  26.029  0.00  0.00    +0.109 A 
ATOM      5  C   UNL     1       7.241   1.185  25.983  0.00  0.00    +0.147 A 
ATOM      6  C   UNL     1       8.150   2.231  25.779  0.00  0.00    +0.093 A 
ATOM      7  C   UNL     1       7.704   3.534  25.581  0.00  0.00    +0.131 A 
ATOM      8  C   UNL     1       6.330   3.787  25.680  0.00  0.00    +0.092 A 
ATOM      9  O   UNL     1       7.799  -0.045  26.112  0.00  0.00    -0.451 OA
ATOM     10  C   UNL     1       5.429   2.734  25.913  0.00  0.00    +0.135 A 
ATOM     11  C   UNL     1       7.007  -1.171  26.270  0.00  0.00    +0.181 A 
ENDROOT
BRANCH  11  12
ATOM     12  C   UNL     1       7.881  -2.388  26.238  0.00  0.00    +0.025 A 
ATOM     13  C   UNL     1       9.054  -2.358  25.443  0.00  0.00    +0.015 A 
ATOM     14  C   UNL     1       9.763  -3.520  25.126  0.00  0.00    +0.050 A 
ATOM     15  C   UNL     1       9.318  -4.728  25.619  0.00  0.00    +0.158 A 
ATOM     16  C   UNL     1       8.195  -4.786  26.445  0.00  0.00    +0.159 A 
ATOM     17  C   UNL     1       7.479  -3.630  26.761  0.00  0.00    +0.060 A 
BRANCH  16  18
ATOM     18  O   UNL     1       7.787  -6.022  26.871  0.00  0.00    -0.503 OA
ATOM     19  H   UNL     1       6.836  -5.964  27.072  0.00  0.00    +0.292 HD
ENDBRANCH  16  18
BRANCH  15  20
ATOM     20  O   UNL     1       9.958  -5.877  25.253  0.00  0.00    -0.503 OA
ATOM     21  H   UNL     1      10.790  -5.873  25.766  0.00  0.00    +0.292 HD
ENDBRANCH  15  20
ENDBRANCH  11  12
BRANCH  10  22
ATOM     22  O   UNL     1       4.098   3.026  26.032  0.00  0.00    -0.506 OA
ATOM     23  H   UNL     1       3.962   3.744  26.670  0.00  0.00    +0.292 HD
ENDBRANCH  10  22
BRANCH   7  24
ATOM     24  O   UNL     1       8.509   4.611  25.298  0.00  0.00    -0.461 OA
BRANCH  24  25
ATOM     25  C   UNL     1       8.738   4.892  23.903  0.00  0.00    +0.339 C 
ATOM     26  O   UNL     1       8.948   3.705  23.137  0.00  0.00    -0.331 OA
ATOM     27  C   UNL     1      10.114   2.963  23.538  0.00  0.00    +0.179 C 
ATOM     28  C   UNL     1      11.395   3.803  23.405  0.00  0.00    +0.177 C 
ATOM     29  C   UNL     1      11.243   5.159  24.098  0.00  0.00    +0.180 C 
ATOM     30  C   UNL     1       9.936   5.842  23.689  0.00  0.00    +0.214 C 
BRANCH  30  31
ATOM     31  O   UNL     1       9.836   7.084  24.403  0.00  0.00    -0.383 OA
ATOM     32  H   UNL     1       9.404   6.907  25.258  0.00  0.00    +0.210 HD
ENDBRANCH  30  31
BRANCH  29  33
ATOM     33  O   UNL     1      12.359   5.986  23.708  0.00  0.00    -0.386 OA
ATOM     34  H   UNL     1      12.493   6.610  24.450  0.00  0.00    +0.210 HD
ENDBRANCH  29  33
BRANCH  28  35
ATOM     35  O   UNL     1      11.704   4.041  22.023  0.00  0.00    -0.386 OA
ATOM     36  H   UNL     1      10.858   4.336  21.626  0.00  0.00    +0.210 HD
ENDBRANCH  28  35
BRANCH  27  37
ATOM     37  C   UNL     1      10.181   1.699  22.668  0.00  0.00    +0.190 C 
BRANCH  37  38
ATOM     38  O   UNL     1       9.961   1.995  21.285  0.00  0.00    -0.392 OA
ATOM     39  H   UNL     1       9.845   2.955  21.192  0.00  0.00    +0.210 HD
ENDBRANCH  37  38
ENDBRANCH  27  37
ENDBRANCH  24  25
ENDBRANCH   7  24
BRANCH   1  40
ATOM     40  O   UNL     1       4.917  -2.324  26.500  0.00  0.00    -0.453 OA
BRANCH  40  42
ATOM     41  C   UNL     1       2.836  -3.469  27.161  0.00  0.00    +0.221 C 
ATOM     42  C   UNL     1       3.851  -2.328  27.464  0.00  0.00    +0.340 C 
ATOM     43  O   UNL     1       4.343  -2.481  28.817  0.00  0.00    -0.331 OA
ATOM     44  C   UNL     1       3.298  -2.358  29.817  0.00  0.00    +0.179 C 
ATOM     45  C   UNL     1       2.178  -3.390  29.574  0.00  0.00    +0.177 C 
ATOM     46  C   UNL     1       1.663  -3.259  28.136  0.00  0.00    +0.180 C 
BRANCH  46  47
ATOM     47  O   UNL     1       0.562  -4.154  27.915  0.00  0.00    -0.386 OA
ATOM     48  H   UNL     1       0.432  -4.210  26.948  0.00  0.00    +0.210 HD
ENDBRANCH  46  47
BRANCH  45  49
ATOM     49  O   UNL     1       1.089  -3.225  30.485  0.00  0.00    -0.386 OA
ATOM     50  H   UNL     1       0.309  -3.036  29.924  0.00  0.00    +0.210 HD
ENDBRANCH  45  49
BRANCH  44  51
ATOM     51  C   UNL     1       2.733  -0.919  29.945  0.00  0.00    +0.190 C 
BRANCH  51  52
ATOM     52  O   UNL     1       3.720  -0.000  30.414  0.00  0.00    -0.392 OA
ATOM     53  H   UNL     1       3.500   0.210  31.339  0.00  0.00    +0.210 HD
ENDBRANCH  51  52
ENDBRANCH  44  51
BRANCH  41  54
ATOM     54  O   UNL     1       3.490  -4.774  27.279  0.00  0.00    -0.336 OA
BRANCH  54  57
ATOM     55  C   UNL     1       2.338  -7.622  29.210  0.00  0.00    +0.197 C 
ATOM     56  O   UNL     1       3.298  -6.752  28.591  0.00  0.00    -0.345 OA
ATOM     57  C   UNL     1       2.628  -5.838  27.698  0.00  0.00    +0.294 C 
ATOM     58  C   UNL     1       2.064  -6.650  26.519  0.00  0.00    +0.263 C 
ATOM     59  C   UNL     1       0.989  -7.580  27.068  0.00  0.00    +0.191 C 
ATOM     60  C   UNL     1       1.547  -8.463  28.193  0.00  0.00    +0.172 C 
BRANCH  60  61
ATOM     61  O   UNL     1       0.454  -9.120  28.845  0.00  0.00    -0.387 OA
ATOM     62  H   UNL     1       0.251  -8.637  29.660  0.00  0.00    +0.210 HD
ENDBRANCH  60  61
BRANCH  59  63
ATOM     63  O   UNL     1       0.443  -8.362  25.995  0.00  0.00    -0.385 OA
ATOM     64  H   UNL     1       0.271  -7.760  25.250  0.00  0.00    +0.210 HD
ENDBRANCH  59  63
BRANCH  58  65
ATOM     65  O   UNL     1       3.118  -7.470  25.940  0.00  0.00    -0.450 OA
BRANCH  65  66
ATOM     66  C   UNL     1       3.111  -7.622  24.594  0.00  0.00    +0.332 C 
ATOM     67  O   UNL     1       2.339  -8.310  23.949  0.00  0.00    -0.246 OA
BRANCH  66  68
ATOM     68  C   UNL     1       4.257  -6.867  24.051  0.00  0.00    +0.092 C 
ATOM     69  C   UNL     1       4.243  -5.527  24.071  0.00  0.00    +0.015 C 
BRANCH  69  70
ATOM     70  C   UNL     1       5.269  -4.675  23.450  0.00  0.00    -0.025 A 
ATOM     71  C   UNL     1       5.093  -3.306  23.209  0.00  0.00    +0.011 A 
ATOM     72  C   UNL     1       6.142  -2.533  22.703  0.00  0.00    +0.046 A 
ATOM     73  C   UNL     1       7.365  -3.126  22.426  0.00  0.00    +0.117 A 
ATOM     74  C   UNL     1       7.543  -4.494  22.594  0.00  0.00    +0.046 A 
ATOM     75  C   UNL     1       6.491  -5.265  23.096  0.00  0.00    +0.011 A 
BRANCH  73  76
ATOM     76  O   UNL     1       8.381  -2.326  21.998  0.00  0.00    -0.507 OA
ATOM     77  H   UNL     1       8.100  -1.400  22.077  0.00  0.00    +0.292 HD
ENDBRANCH  73  76
ENDBRANCH  69  70
ENDBRANCH  66  68
ENDBRANCH  65  66
ENDBRANCH  58  65
ENDBRANCH  54  57
ENDBRANCH  41  54
ENDBRANCH  40  42
ENDBRANCH   1  40
TORSDOF 26
ENDMDL
MODEL 3
REMARK VINA RESULT:      -5.9      1.941      3.427
REMARK  Name = 
REMARK  26 active torsions:
REMARK  status: ('A' for Active; 'I' for Inactive)
REMARK    1  A    between atoms: C_2  and  O_72
REMARK    2  A    between atoms: C_4  and  O_71
REMARK    3  A    between atoms: C_5  and  O_59
REMARK    4  A    between atoms: C_6  and  O_9
REMARK    5  A    between atoms: O_9  and  C_10
REMARK    6  A    between atoms: C_11  and  O_58
REMARK    7  A    between atoms: C_13  and  O_57
REMARK    8  A    between atoms: C_15  and  C_55
REMARK    9  A    between atoms: C_17  and  O_19
REMARK   10  A    between atoms: O_19  and  C_20
REMARK   11  A    between atoms: C_21  and  C_47
REMARK   12  A    between atoms: C_25  and  O_32
REMARK   13  A    between atoms: C_27  and  O_31
REMARK   14  A    between atoms: O_32  and  C_33
REMARK   15  A    between atoms: C_35  and  O_46
REMARK   16  A    between atoms: C_36  and  O_45
REMARK   17  A    between atoms: C_37  and  O_44
REMARK   18  A    between atoms: C_39  and  C_42
REMARK   19  A    between atoms: C_42  and  O_43
REMARK   20  A    between atoms: C_49  and  O_54
REMARK   21  A    between atoms: C_50  and  O_53
REMARK   22  A    between atoms: C_55  and  O_56
REMARK   23  A    between atoms: O_59  and  C_60
REMARK   24  A    between atoms: C_60  and  C_62
REMARK   25  A    between atoms: C_63  and  C_64
REMARK   26  A    between atoms: C_67  and  O_70
REMARK                            x       y       z     vdW  Elec       q    Type
REMARK                         _______ _______ _______ _____ _____    ______ ____
ROOT
ATOM      1  C   UNL     1       5.791  -1.002  26.749  0.00  0.00    +0.214 A 
ATOM      2  C   UNL     1       6.224   0.291  27.425  0.00  0.00    +0.238 A 
ATOM      3  O   UNL     1       5.988   0.525  28.605  0.00  0.00    -0.283 OA
ATOM      4  C   UNL     1       6.856   1.341  26.594  0.00  0.00    +0.109 A 
ATOM      5  C   UNL     1       6.894   1.124  25.233  0.00  0.00    +0.147 A 
ATOM      6  C   UNL     1       7.378   2.098  24.351  0.00  0.00    +0.093 A 
ATOM      7  C   UNL     1       7.807   3.335  24.822  0.00  0.00    +0.131 A 
ATOM      8  C   UNL     1       7.826   3.548  26.207  0.00  0.00    +0.092 A 
ATOM      9  O   UNL     1       6.459  -0.019  24.646  0.00  0.00    -0.451 OA
ATOM     10  C   UNL     1       7.364   2.552  27.084  0.00  0.00    +0.135 A 
ATOM     11  C   UNL     1       5.911  -1.042  25.402  0.00  0.00    +0.181 A 
ENDROOT
BRANCH  11  12
ATOM     12  C   UNL     1       5.390  -2.103  24.479  0.00  0.00    +0.025 A 
ATOM     13  C   UNL     1       4.587  -3.136  25.022  0.00  0.00    +0.015 A 
ATOM     14  C   UNL     1       4.303  -4.305  24.309  0.00  0.00    +0.050 A 
ATOM     15  C   UNL     1       4.805  -4.446  23.034  0.00  0.00    +0.158 A 
ATOM     16  C   UNL     1       5.558  -3.426  22.452  0.00  0.00    +0.159 A 
ATOM     17  C   UNL     1       5.850  -2.259  23.160  0.00  0.00    +0.060 A 
BRANCH  16  18
ATOM     18  O   UNL     1       6.055  -3.646  21.194  0.00  0.00    -0.503 OA
ATOM     19  H   UNL     1       5.403  -3.303  20.557  0.00  0.00    +0.292 HD
ENDBRANCH  16  18
BRANCH  15  20
ATOM     20  O   UNL     1       4.599  -5.614  22.358  0.00  0.00    -0.503 OA
ATOM     21  H   UNL     1       3.642  -5.621  22.159  0.00  0.00    +0.292 HD
ENDBRANCH  15  20
ENDBRANCH  11  12
BRANCH  10  22
ATOM     22  O   UNL     1       7.426   2.787  28.430  0.00  0.00    -0.506 OA
ATOM     23  H   UNL     1       7.533   3.735  28.606  0.00  0.00    +0.292 HD
ENDBRANCH  10  22
BRANCH   7  24
ATOM     24  O   UNL     1       8.226   4.380  24.033  0.00  0.00    -0.461 OA
BRANCH  24  25
ATOM     25  C   UNL     1       7.641   5.668  24.312  0.00  0.00    +0.339 C 
ATOM     26  O   UNL     1       6.279   5.568  24.730  0.00  0.00    -0.331 OA
ATOM     27  C   UNL     1       5.413   5.003  23.729  0.00  0.00    +0.179 C 
ATOM     28  C   UNL     1       5.416   5.838  22.439  0.00  0.00    +0.177 C 
ATOM     29  C   UNL     1       6.843   6.109  21.956  0.00  0.00    +0.180 C 
ATOM     30  C   UNL     1       7.723   6.620  23.099  0.00  0.00    +0.214 C 
BRANCH  30  31
ATOM     31  O   UNL     1       9.052   6.812  22.590  0.00  0.00    -0.383 OA
ATOM     32  H   UNL     1       9.652   6.925  23.349  0.00  0.00    +0.210 HD
ENDBRANCH  30  31
BRANCH  29  33
ATOM     33  O   UNL     1       6.780   7.106  20.916  0.00  0.00    -0.386 OA
ATOM     34  H   UNL     1       6.143   6.758  20.259  0.00  0.00    +0.210 HD
ENDBRANCH  29  33
BRANCH  28  35
ATOM     35  O   UNL     1       4.771   7.104  22.653  0.00  0.00    -0.386 OA
ATOM     36  H   UNL     1       4.749   7.211  23.627  0.00  0.00    +0.210 HD
ENDBRANCH  28  35
BRANCH  27  37
ATOM     37  C   UNL     1       4.004   4.912  24.333  0.00  0.00    +0.190 C 
BRANCH  37  38
ATOM     38  O   UNL     1       3.752   5.978  25.254  0.00  0.00    -0.392 OA
ATOM     39  H   UNL     1       2.794   6.034  25.403  0.00  0.00    +0.210 HD
ENDBRANCH  37  38
ENDBRANCH  27  37
ENDBRANCH  24  25
ENDBRANCH   7  24
BRANCH   1  40
ATOM     40  O   UNL     1       5.228  -2.083  27.451  0.00  0.00    -0.453 OA
BRANCH  40  42
ATOM     41  C   UNL     1       2.912  -2.898  27.677  0.00  0.00    +0.221 C 
ATOM     42  C   UNL     1       3.985  -1.869  28.141  0.00  0.00    +0.340 C 
ATOM     43  O   UNL     1       4.137  -1.963  29.578  0.00  0.00    -0.331 OA
ATOM     44  C   UNL     1       2.925  -1.623  30.299  0.00  0.00    +0.179 C 
ATOM     45  C   UNL     1       1.752  -2.525  29.863  0.00  0.00    +0.177 C 
ATOM     46  C   UNL     1       1.594  -2.459  28.339  0.00  0.00    +0.180 C 
BRANCH  46  47
ATOM     47  O   UNL     1       0.454  -3.227  27.921  0.00  0.00    -0.386 OA
ATOM     48  H   UNL     1      -0.105  -2.633  27.384  0.00  0.00    +0.210 HD
ENDBRANCH  46  47
BRANCH  45  49
ATOM     49  O   UNL     1       0.522  -2.146  30.485  0.00  0.00    -0.386 OA
ATOM     50  H   UNL     1       0.265  -1.305  30.057  0.00  0.00    +0.210 HD
ENDBRANCH  45  49
BRANCH  44  51
ATOM     51  C   UNL     1       2.554  -0.120  30.209  0.00  0.00    +0.190 C 
BRANCH  51  52
ATOM     52  O   UNL     1       3.674   0.722  30.483  0.00  0.00    -0.392 OA
ATOM     53  H   UNL     1       3.762   0.778  31.451  0.00  0.00    +0.210 HD
ENDBRANCH  51  52
ENDBRANCH  44  51
BRANCH  41  54
ATOM     54  O   UNL     1       3.333  -4.258  28.019  0.00  0.00    -0.336 OA
BRANCH  54  57
ATOM     55  C   UNL     1       0.744  -6.766  27.601  0.00  0.00    +0.197 C 
ATOM     56  O   UNL     1       1.683  -5.949  28.317  0.00  0.00    -0.345 OA
ATOM     57  C   UNL     1       2.573  -5.295  27.388  0.00  0.00    +0.294 C 
ATOM     58  C   UNL     1       3.455  -6.372  26.733  0.00  0.00    +0.263 C 
ATOM     59  C   UNL     1       2.550  -7.271  25.901  0.00  0.00    +0.191 C 
ATOM     60  C   UNL     1       1.421  -7.861  26.758  0.00  0.00    +0.172 C 
BRANCH  60  61
ATOM     61  O   UNL     1       0.461  -8.475  25.891  0.00  0.00    -0.387 OA
ATOM     62  H   UNL     1      -0.394  -8.039  26.025  0.00  0.00    +0.210 HD
ENDBRANCH  60  61
BRANCH  59  63
ATOM     63  O   UNL     1       3.339  -8.296  25.279  0.00  0.00    -0.385 OA
ATOM     64  H   UNL     1       3.653  -8.893  25.980  0.00  0.00    +0.210 HD
ENDBRANCH  59  63
BRANCH  58  65
ATOM     65  O   UNL     1       4.078  -7.188  27.764  0.00  0.00    -0.450 OA
BRANCH  65  66
ATOM     66  C   UNL     1       5.325  -6.835  28.161  0.00  0.00    +0.332 C 
ATOM     67  O   UNL     1       5.834  -7.075  29.242  0.00  0.00    -0.246 OA
BRANCH  66  68
ATOM     68  C   UNL     1       5.932  -6.040  27.076  0.00  0.00    +0.092 C 
ATOM     69  C   UNL     1       7.186  -5.581  27.205  0.00  0.00    +0.015 C 
BRANCH  69  70
ATOM     70  C   UNL     1       7.845  -4.681  26.247  0.00  0.00    -0.025 A 
ATOM     71  C   UNL     1       8.351  -3.422  26.595  0.00  0.00    +0.011 A 
ATOM     72  C   UNL     1       9.050  -2.654  25.658  0.00  0.00    +0.046 A 
ATOM     73  C   UNL     1       9.236  -3.137  24.371  0.00  0.00    +0.117 A 
ATOM     74  C   UNL     1       8.686  -4.353  23.984  0.00  0.00    +0.046 A 
ATOM     75  C   UNL     1       7.983  -5.116  24.920  0.00  0.00    +0.011 A 
BRANCH  73  76
ATOM     76  O   UNL     1       9.980  -2.388  23.509  0.00  0.00    -0.507 OA
ATOM     77  H   UNL     1       9.839  -2.723  22.608  0.00  0.00    +0.292 HD
ENDBRANCH  73  76
ENDBRANCH  69  70
ENDBRANCH  66  68
ENDBRANCH  65  66
ENDBRANCH  58  65
ENDBRANCH  54  57
ENDBRANCH  41  54
ENDBRANCH  40  42
ENDBRANCH   1  40
TORSDOF 26
ENDMDL
MODEL 4
REMARK VINA RESULT:      -5.6      2.237      9.843
REMARK  Name = 
REMARK  26 active torsions:
REMARK  status: ('A' for Active; 'I' for Inactive)
REMARK    1  A    between atoms: C_2  and  O_72
REMARK    2  A    between atoms: C_4  and  O_71
REMARK    3  A    between atoms: C_5  and  O_59
REMARK    4  A    between atoms: C_6  and  O_9
REMARK    5  A    between atoms: O_9  and  C_10
REMARK    6  A    between atoms: C_11  and  O_58
REMARK    7  A    between atoms: C_13  and  O_57
REMARK    8  A    between atoms: C_15  and  C_55
REMARK    9  A    between atoms: C_17  and  O_19
REMARK   10  A    between atoms: O_19  and  C_20
REMARK   11  A    between atoms: C_21  and  C_47
REMARK   12  A    between atoms: C_25  and  O_32
REMARK   13  A    between atoms: C_27  and  O_31
REMARK   14  A    between atoms: O_32  and  C_33
REMARK   15  A    between atoms: C_35  and  O_46
REMARK   16  A    between atoms: C_36  and  O_45
REMARK   17  A    between atoms: C_37  and  O_44
REMARK   18  A    between atoms: C_39  and  C_42
REMARK   19  A    between atoms: C_42  and  O_43
REMARK   20  A    between atoms: C_49  and  O_54
REMARK   21  A    between atoms: C_50  and  O_53
REMARK   22  A    between atoms: C_55  and  O_56
REMARK   23  A    between atoms: O_59  and  C_60
REMARK   24  A    between atoms: C_60  and  C_62
REMARK   25  A    between atoms: C_63  and  C_64
REMARK   26  A    between atoms: C_67  and  O_70
REMARK                            x       y       z     vdW  Elec       q    Type
REMARK                         _______ _______ _______ _____ _____    ______ ____
ROOT
ATOM      1  C   UNL     1       5.253   1.018  26.689  0.00  0.00    +0.214 A 
ATOM      2  C   UNL     1       3.905   0.723  27.330  0.00  0.00    +0.238 A 
ATOM      3  O   UNL     1       3.133   1.610  27.675  0.00  0.00    -0.283 OA
ATOM      4  C   UNL     1       3.568  -0.686  27.639  0.00  0.00    +0.109 A 
ATOM      5  C   UNL     1       4.558  -1.625  27.441  0.00  0.00    +0.147 A 
ATOM      6  C   UNL     1       4.376  -2.967  27.798  0.00  0.00    +0.093 A 
ATOM      7  C   UNL     1       3.193  -3.389  28.398  0.00  0.00    +0.131 A 
ATOM      8  C   UNL     1       2.158  -2.457  28.553  0.00  0.00    +0.092 A 
ATOM      9  O   UNL     1       5.772  -1.330  26.912  0.00  0.00    -0.451 OA
ATOM     10  C   UNL     1       2.343  -1.120  28.166  0.00  0.00    +0.135 A 
ATOM     11  C   UNL     1       6.099  -0.030  26.562  0.00  0.00    +0.181 A 
ENDROOT
BRANCH  11  12
ATOM     12  C   UNL     1       7.538   0.015  26.147  0.00  0.00    +0.025 A 
ATOM     13  C   UNL     1       8.121   1.275  25.864  0.00  0.00    +0.015 A 
ATOM     14  C   UNL     1       9.348   1.391  25.202  0.00  0.00    +0.050 A 
ATOM     15  C   UNL     1      10.016   0.244  24.833  0.00  0.00    +0.158 A 
ATOM     16  C   UNL     1       9.494  -1.012  25.141  0.00  0.00    +0.159 A 
ATOM     17  C   UNL     1       8.267  -1.135  25.796  0.00  0.00    +0.060 A 
BRANCH  16  18
ATOM     18  O   UNL     1      10.193  -2.110  24.714  0.00  0.00    -0.503 OA
ATOM     19  H   UNL     1      10.801  -1.816  24.011  0.00  0.00    +0.292 HD
ENDBRANCH  16  18
BRANCH  15  20
ATOM     20  O   UNL     1      11.176   0.346  24.118  0.00  0.00    -0.503 OA
ATOM     21  H   UNL     1      11.763   0.896  24.674  0.00  0.00    +0.292 HD
ENDBRANCH  15  20
ENDBRANCH  11  12
BRANCH  10  22
ATOM     22  O   UNL     1       1.299  -0.248  28.308  0.00  0.00    -0.506 OA
ATOM     23  H   UNL     1       0.998  -0.224  29.229  0.00  0.00    +0.292 HD
ENDBRANCH  10  22
BRANCH   7  24
ATOM     24  O   UNL     1       2.948  -4.663  28.851  0.00  0.00    -0.461 OA
BRANCH  24  25
ATOM     25  C   UNL     1       3.454  -5.741  28.040  0.00  0.00    +0.339 C 
ATOM     26  O   UNL     1       2.767  -5.852  26.793  0.00  0.00    -0.331 OA
ATOM     27  C   UNL     1       1.367  -6.155  26.937  0.00  0.00    +0.179 C 
ATOM     28  C   UNL     1       1.146  -7.482  27.680  0.00  0.00    +0.177 C 
ATOM     29  C   UNL     1       1.936  -7.522  28.991  0.00  0.00    +0.180 C 
ATOM     30  C   UNL     1       3.390  -7.100  28.769  0.00  0.00    +0.214 C 
BRANCH  30  31
ATOM     31  O   UNL     1       4.060  -7.118  30.039  0.00  0.00    -0.383 OA
ATOM     32  H   UNL     1       3.673  -6.418  30.595  0.00  0.00    +0.210 HD
ENDBRANCH  30  31
BRANCH  29  33
ATOM     33  O   UNL     1       1.899  -8.874  29.492  0.00  0.00    -0.386 OA
ATOM     34  H   UNL     1       2.194  -9.437  28.748  0.00  0.00    +0.210 HD
ENDBRANCH  29  33
BRANCH  28  35
ATOM     35  O   UNL     1       1.568  -8.592  26.872  0.00  0.00    -0.386 OA
ATOM     36  H   UNL     1       0.891  -8.658  26.166  0.00  0.00    +0.210 HD
ENDBRANCH  28  35
BRANCH  27  37
ATOM     37  C   UNL     1       0.755  -6.195  25.528  0.00  0.00    +0.190 C 
BRANCH  37  38
ATOM     38  O   UNL     1       1.693  -6.663  24.555  0.00  0.00    -0.392 OA
ATOM     39  H   UNL     1       2.577  -6.667  24.958  0.00  0.00    +0.210 HD
ENDBRANCH  37  38
ENDBRANCH  27  37
ENDBRANCH  24  25
ENDBRANCH   7  24
BRANCH   1  40
ATOM     40  O   UNL     1       5.653   2.312  26.308  0.00  0.00    -0.453 OA
BRANCH  40  42
ATOM     41  C   UNL     1       6.888   4.198  27.307  0.00  0.00    +0.221 C 
ATOM     42  C   UNL     1       5.575   3.362  27.288  0.00  0.00    +0.340 C 
ATOM     43  O   UNL     1       4.455   4.248  27.047  0.00  0.00    -0.331 OA
ATOM     44  C   UNL     1       4.281   5.236  28.095  0.00  0.00    +0.179 C 
ATOM     45  C   UNL     1       5.557   6.084  28.273  0.00  0.00    +0.177 C 
ATOM     46  C   UNL     1       6.758   5.159  28.502  0.00  0.00    +0.180 C 
BRANCH  46  47
ATOM     47  O   UNL     1       7.943   5.932  28.754  0.00  0.00    -0.386 OA
ATOM     48  H   UNL     1       7.648   6.833  28.986  0.00  0.00    +0.210 HD
ENDBRANCH  46  47
BRANCH  45  49
ATOM     49  O   UNL     1       5.446   6.999  29.366  0.00  0.00    -0.386 OA
ATOM     50  H   UNL     1       4.671   7.558  29.157  0.00  0.00    +0.210 HD
ENDBRANCH  45  49
BRANCH  44  51
ATOM     51  C   UNL     1       3.804   4.631  29.441  0.00  0.00    +0.190 C 
BRANCH  51  52
ATOM     52  O   UNL     1       2.589   3.895  29.293  0.00  0.00    -0.392 OA
ATOM     53  H   UNL     1       2.630   3.144  29.913  0.00  0.00    +0.210 HD
ENDBRANCH  51  52
ENDBRANCH  44  51
BRANCH  41  54
ATOM     54  O   UNL     1       7.083   4.865  26.017  0.00  0.00    -0.336 OA
BRANCH  54  57
ATOM     55  C   UNL     1      10.067   6.911  25.737  0.00  0.00    +0.197 C 
ATOM     56  O   UNL     1       8.659   6.630  25.749  0.00  0.00    -0.345 OA
ATOM     57  C   UNL     1       8.442   5.204  25.720  0.00  0.00    +0.294 C 
ATOM     58  C   UNL     1       8.905   4.678  24.350  0.00  0.00    +0.263 C 
ATOM     59  C   UNL     1      10.411   4.886  24.256  0.00  0.00    +0.191 C 
ATOM     60  C   UNL     1      10.779   6.358  24.490  0.00  0.00    +0.172 C 
BRANCH  60  61
ATOM     61  O   UNL     1      12.199   6.455  24.653  0.00  0.00    -0.387 OA
ATOM     62  H   UNL     1      12.570   6.864  23.857  0.00  0.00    +0.210 HD
ENDBRANCH  60  61
BRANCH  59  63
ATOM     63  O   UNL     1      10.879   4.413  22.985  0.00  0.00    -0.385 OA
ATOM     64  H   UNL     1      10.194   3.828  22.618  0.00  0.00    +0.210 HD
ENDBRANCH  59  63
BRANCH  58  65
ATOM     65  O   UNL     1       8.275   5.452  23.291  0.00  0.00    -0.450 OA
BRANCH  65  66
ATOM     66  C   UNL     1       7.245   4.870  22.630  0.00  0.00    +0.332 C 
ATOM     67  O   UNL     1       6.346   5.447  22.044  0.00  0.00    -0.246 OA
BRANCH  66  68
ATOM     68  C   UNL     1       7.363   3.410  22.812  0.00  0.00    +0.092 C 
ATOM     69  C   UNL     1       7.938   2.663  21.860  0.00  0.00    +0.015 C 
BRANCH  69  70
ATOM     70  C   UNL     1       7.999   1.193  21.880  0.00  0.00    -0.025 A 
ATOM     71  C   UNL     1       9.068   0.458  21.351  0.00  0.00    +0.011 A 
ATOM     72  C   UNL     1       9.109  -0.933  21.485  0.00  0.00    +0.046 A 
ATOM     73  C   UNL     1       8.079  -1.593  22.138  0.00  0.00    +0.117 A 
ATOM     74  C   UNL     1       6.977  -0.893  22.613  0.00  0.00    +0.046 A 
ATOM     75  C   UNL     1       6.935   0.496  22.472  0.00  0.00    +0.011 A 
BRANCH  73  76
ATOM     76  O   UNL     1       8.190  -2.941  22.307  0.00  0.00    -0.507 OA
ATOM     77  H   UNL     1       8.398  -3.344  21.448  0.00  0.00    +0.292 HD
ENDBRANCH  73  76
ENDBRANCH  69  70
ENDBRANCH  66  68
ENDBRANCH  65  66
ENDBRANCH  58  65
ENDBRANCH  54  57
ENDBRANCH  41  54
ENDBRANCH  40  42
ENDBRANCH   1  40
TORSDOF 26
ENDMDL
MODEL 5
REMARK VINA RESULT:      -5.6      2.290      3.777
REMARK  Name = 
REMARK  26 active torsions:
REMARK  status: ('A' for Active; 'I' for Inactive)
REMARK    1  A    between atoms: C_2  and  O_72
REMARK    2  A    between atoms: C_4  and  O_71
REMARK    3  A    between atoms: C_5  and  O_59
REMARK    4  A    between atoms: C_6  and  O_9
REMARK    5  A    between atoms: O_9  and  C_10
REMARK    6  A    between atoms: C_11  and  O_58
REMARK    7  A    between atoms: C_13  and  O_57
REMARK    8  A    between atoms: C_15  and  C_55
REMARK    9  A    between atoms: C_17  and  O_19
REMARK   10  A    between atoms: O_19  and  C_20
REMARK   11  A    between atoms: C_21  and  C_47
REMARK   12  A    between atoms: C_25  and  O_32
REMARK   13  A    between atoms: C_27  and  O_31
REMARK   14  A    between atoms: O_32  and  C_33
REMARK   15  A    between atoms: C_35  and  O_46
REMARK   16  A    between atoms: C_36  and  O_45
REMARK   17  A    between atoms: C_37  and  O_44
REMARK   18  A    between atoms: C_39  and  C_42
REMARK   19  A    between atoms: C_42  and  O_43
REMARK   20  A    between atoms: C_49  and  O_54
REMARK   21  A    between atoms: C_50  and  O_53
REMARK   22  A    between atoms: C_55  and  O_56
REMARK   23  A    between atoms: O_59  and  C_60
REMARK   24  A    between atoms: C_60  and  C_62
REMARK   25  A    between atoms: C_63  and  C_64
REMARK   26  A    between atoms: C_67  and  O_70
REMARK                            x       y       z     vdW  Elec       q    Type
REMARK                         _______ _______ _______ _____ _____    ______ ____
ROOT
ATOM      1  C   UNL     1       5.089  -0.797  26.301  0.00  0.00    +0.214 A 
ATOM      2  C   UNL     1       4.779   0.578  26.872  0.00  0.00    +0.238 A 
ATOM      3  O   UNL     1       4.298   0.733  27.989  0.00  0.00    -0.283 OA
ATOM      4  C   UNL     1       4.970   1.760  26.000  0.00  0.00    +0.109 A 
ATOM      5  C   UNL     1       5.295   1.520  24.682  0.00  0.00    +0.147 A 
ATOM      6  C   UNL     1       5.397   2.562  23.752  0.00  0.00    +0.093 A 
ATOM      7  C   UNL     1       5.139   3.877  24.126  0.00  0.00    +0.131 A 
ATOM      8  C   UNL     1       4.863   4.142  25.474  0.00  0.00    +0.092 A 
ATOM      9  O   UNL     1       5.521   0.279  24.182  0.00  0.00    -0.451 OA
ATOM     10  C   UNL     1       4.790   3.091  26.403  0.00  0.00    +0.135 A 
ATOM     11  C   UNL     1       5.403  -0.843  24.985  0.00  0.00    +0.181 A 
ENDROOT
BRANCH  11  12
ATOM     12  C   UNL     1       5.564  -2.068  24.137  0.00  0.00    +0.025 A 
ATOM     13  C   UNL     1       6.661  -2.131  23.242  0.00  0.00    +0.015 A 
ATOM     14  C   UNL     1       6.730  -3.085  22.222  0.00  0.00    +0.050 A 
ATOM     15  C   UNL     1       5.708  -4.001  22.095  0.00  0.00    +0.158 A 
ATOM     16  C   UNL     1       4.638  -3.997  22.990  0.00  0.00    +0.159 A 
ATOM     17  C   UNL     1       4.560  -3.044  24.008  0.00  0.00    +0.060 A 
BRANCH  16  18
ATOM     18  O   UNL     1       3.640  -4.913  22.787  0.00  0.00    -0.503 OA
ATOM     19  H   UNL     1       3.537  -5.026  21.825  0.00  0.00    +0.292 HD
ENDBRANCH  16  18
BRANCH  15  20
ATOM     20  O   UNL     1       5.727  -4.886  21.056  0.00  0.00    -0.503 OA
ATOM     21  H   UNL     1       4.915  -4.689  20.548  0.00  0.00    +0.292 HD
ENDBRANCH  15  20
ENDBRANCH  11  12
BRANCH  10  22
ATOM     22  O   UNL     1       4.546   3.393  27.714  0.00  0.00    -0.506 OA
ATOM     23  H   UNL     1       5.124   4.114  28.012  0.00  0.00    +0.292 HD
ENDBRANCH  10  22
BRANCH   7  24
ATOM     24  O   UNL     1       5.138   4.957  23.275  0.00  0.00    -0.461 OA
BRANCH  24  25
ATOM     25  C   UNL     1       4.022   5.862  23.388  0.00  0.00    +0.339 C 
ATOM     26  O   UNL     1       2.884   5.248  23.993  0.00  0.00    -0.331 OA
ATOM     27  C   UNL     1       2.358   4.143  23.235  0.00  0.00    +0.179 C 
ATOM     28  C   UNL     1       1.926   4.576  21.825  0.00  0.00    +0.177 C 
ATOM     29  C   UNL     1       3.040   5.352  21.117  0.00  0.00    +0.180 C 
ATOM     30  C   UNL     1       3.607   6.448  22.022  0.00  0.00    +0.214 C 
BRANCH  30  31
ATOM     31  O   UNL     1       4.670   7.107  21.316  0.00  0.00    -0.383 OA
ATOM     32  H   UNL     1       5.050   7.783  21.905  0.00  0.00    +0.210 HD
ENDBRANCH  30  31
BRANCH  29  33
ATOM     33  O   UNL     1       2.481   5.951  19.930  0.00  0.00    -0.386 OA
ATOM     34  H   UNL     1       2.152   6.829  20.210  0.00  0.00    +0.210 HD
ENDBRANCH  29  33
BRANCH  28  35
ATOM     35  O   UNL     1       0.766   5.421  21.887  0.00  0.00    -0.386 OA
ATOM     36  H   UNL     1       0.274   5.111  22.677  0.00  0.00    +0.210 HD
ENDBRANCH  28  35
BRANCH  27  37
ATOM     37  C   UNL     1       1.179   3.557  24.026  0.00  0.00    +0.190 C 
BRANCH  37  38
ATOM     38  O   UNL     1       1.615   2.599  24.995  0.00  0.00    -0.392 OA
ATOM     39  H   UNL     1       1.047   2.676  25.779  0.00  0.00    +0.210 HD
ENDBRANCH  37  38
ENDBRANCH  27  37
ENDBRANCH  24  25
ENDBRANCH   7  24
BRANCH   1  40
ATOM     40  O   UNL     1       4.992  -1.980  27.056  0.00  0.00    -0.453 OA
BRANCH  40  42
ATOM     41  C   UNL     1       2.963  -3.344  27.375  0.00  0.00    +0.221 C 
ATOM     42  C   UNL     1       3.833  -2.160  27.888  0.00  0.00    +0.340 C 
ATOM     43  O   UNL     1       4.189  -2.401  29.271  0.00  0.00    -0.331 OA
ATOM     44  C   UNL     1       3.036  -2.456  30.150  0.00  0.00    +0.179 C 
ATOM     45  C   UNL     1       2.045  -3.546  29.694  0.00  0.00    +0.177 C 
ATOM     46  C   UNL     1       1.679  -3.321  28.222  0.00  0.00    +0.180 C 
BRANCH  46  47
ATOM     47  O   UNL     1       0.691  -4.276  27.801  0.00  0.00    -0.386 OA
ATOM     48  H   UNL     1       0.966  -5.142  28.159  0.00  0.00    +0.210 HD
ENDBRANCH  46  47
BRANCH  45  49
ATOM     49  O   UNL     1       0.854  -3.555  30.484  0.00  0.00    -0.386 OA
ATOM     50  H   UNL     1       0.987  -4.265  31.144  0.00  0.00    +0.210 HD
ENDBRANCH  45  49
BRANCH  44  51
ATOM     51  C   UNL     1       2.334  -1.085  30.334  0.00  0.00    +0.190 C 
BRANCH  51  52
ATOM     52  O   UNL     1       3.275  -0.022  30.485  0.00  0.00    -0.392 OA
ATOM     53  H   UNL     1       3.936  -0.312  31.140  0.00  0.00    +0.210 HD
ENDBRANCH  51  52
ENDBRANCH  44  51
BRANCH  41  54
ATOM     54  O   UNL     1       3.715  -4.598  27.456  0.00  0.00    -0.336 OA
BRANCH  54  57
ATOM     55  C   UNL     1       2.048  -7.491  26.034  0.00  0.00    +0.197 C 
ATOM     56  O   UNL     1       2.644  -6.689  27.066  0.00  0.00    -0.345 OA
ATOM     57  C   UNL     1       3.350  -5.577  26.477  0.00  0.00    +0.294 C 
ATOM     58  C   UNL     1       4.561  -6.134  25.707  0.00  0.00    +0.263 C 
ATOM     59  C   UNL     1       4.030  -6.969  24.548  0.00  0.00    +0.191 C 
ATOM     60  C   UNL     1       3.081  -8.067  25.049  0.00  0.00    +0.172 C 
BRANCH  60  61
ATOM     61  O   UNL     1       2.413  -8.645  23.922  0.00  0.00    -0.387 OA
ATOM     62  H   UNL     1       2.622  -8.114  23.139  0.00  0.00    +0.210 HD
ENDBRANCH  60  61
BRANCH  59  63
ATOM     63  O   UNL     1       5.134  -7.513  23.809  0.00  0.00    -0.385 OA
ATOM     64  H   UNL     1       4.772  -7.951  23.020  0.00  0.00    +0.210 HD
ENDBRANCH  59  63
BRANCH  58  65
ATOM     65  O   UNL     1       5.334  -7.008  26.576  0.00  0.00    -0.450 OA
BRANCH  65  66
ATOM     66  C   UNL     1       6.299  -6.430  27.331  0.00  0.00    +0.332 C 
ATOM     67  O   UNL     1       6.420  -6.518  28.540  0.00  0.00    -0.246 OA
BRANCH  66  68
ATOM     68  C   UNL     1       7.136  -5.607  26.436  0.00  0.00    +0.092 C 
ATOM     69  C   UNL     1       7.740  -4.508  26.910  0.00  0.00    +0.015 C 
BRANCH  69  70
ATOM     70  C   UNL     1       8.493  -3.551  26.084  0.00  0.00    -0.025 A 
ATOM     71  C   UNL     1       9.211  -3.919  24.939  0.00  0.00    +0.011 A 
ATOM     72  C   UNL     1       9.828  -2.947  24.145  0.00  0.00    +0.046 A 
ATOM     73  C   UNL     1       9.738  -1.609  24.498  0.00  0.00    +0.117 A 
ATOM     74  C   UNL     1       9.088  -1.226  25.665  0.00  0.00    +0.046 A 
ATOM     75  C   UNL     1       8.477  -2.199  26.460  0.00  0.00    +0.011 A 
BRANCH  73  76
ATOM     76  O   UNL     1      10.295  -0.688  23.662  0.00  0.00    -0.507 OA
ATOM     77  H   UNL     1      11.228  -0.572  23.909  0.00  0.00    +0.292 HD
ENDBRANCH  73  76
ENDBRANCH  69  70
ENDBRANCH  66  68
ENDBRANCH  65  66
ENDBRANCH  58  65
ENDBRANCH  54  57
ENDBRANCH  41  54
ENDBRANCH  40  42
ENDBRANCH   1  40
TORSDOF 26
ENDMDL
MODEL 6
REMARK VINA RESULT:      -5.5      1.853      9.112
REMARK  Name = 
REMARK  26 active torsions:
REMARK  status: ('A' for Active; 'I' for Inactive)
REMARK    1  A    between atoms: C_2  and  O_72
REMARK    2  A    between atoms: C_4  and  O_71
REMARK    3  A    between atoms: C_5  and  O_59
REMARK    4  A    between atoms: C_6  and  O_9
REMARK    5  A    between atoms: O_9  and  C_10
REMARK    6  A    between atoms: C_11  and  O_58
REMARK    7  A    between atoms: C_13  and  O_57
REMARK    8  A    between atoms: C_15  and  C_55
REMARK    9  A    between atoms: C_17  and  O_19
REMARK   10  A    between atoms: O_19  and  C_20
REMARK   11  A    between atoms: C_21  and  C_47
REMARK   12  A    between atoms: C_25  and  O_32
REMARK   13  A    between atoms: C_27  and  O_31
REMARK   14  A    between atoms: O_32  and  C_33
REMARK   15  A    between atoms: C_35  and  O_46
REMARK   16  A    between atoms: C_36  and  O_45
REMARK   17  A    between atoms: C_37  and  O_44
REMARK   18  A    between atoms: C_39  and  C_42
REMARK   19  A    between atoms: C_42  and  O_43
REMARK   20  A    between atoms: C_49  and  O_54
REMARK   21  A    between atoms: C_50  and  O_53
REMARK   22  A    between atoms: C_55  and  O_56
REMARK   23  A    between atoms: O_59  and  C_60
REMARK   24  A    between atoms: C_60  and  C_62
REMARK   25  A    between atoms: C_63  and  C_64
REMARK   26  A    between atoms: C_67  and  O_70
REMARK                            x       y       z     vdW  Elec       q    Type
REMARK                         _______ _______ _______ _____ _____    ______ ____
ROOT
ATOM      1  C   UNL     1       5.872  -0.386  27.975  0.00  0.00    +0.214 A 
ATOM      2  C   UNL     1       4.528  -0.654  28.636  0.00  0.00    +0.238 A 
ATOM      3  O   UNL     1       4.140  -0.024  29.615  0.00  0.00    -0.283 OA
ATOM      4  C   UNL     1       3.714  -1.786  28.139  0.00  0.00    +0.109 A 
ATOM      5  C   UNL     1       4.291  -2.603  27.190  0.00  0.00    +0.147 A 
ATOM      6  C   UNL     1       3.646  -3.759  26.730  0.00  0.00    +0.093 A 
ATOM      7  C   UNL     1       2.410  -4.136  27.245  0.00  0.00    +0.131 A 
ATOM      8  C   UNL     1       1.787  -3.286  28.168  0.00  0.00    +0.092 A 
ATOM      9  O   UNL     1       5.512  -2.372  26.648  0.00  0.00    -0.451 OA
ATOM     10  C   UNL     1       2.432  -2.116  28.602  0.00  0.00    +0.135 A 
ATOM     11  C   UNL     1       6.276  -1.289  27.053  0.00  0.00    +0.181 A 
ENDROOT
BRANCH  11  12
ATOM     12  C   UNL     1       7.621  -1.371  26.397  0.00  0.00    +0.025 A 
ATOM     13  C   UNL     1       8.333  -0.168  26.161  0.00  0.00    +0.015 A 
ATOM     14  C   UNL     1       9.441  -0.118  25.310  0.00  0.00    +0.050 A 
ATOM     15  C   UNL     1       9.863  -1.278  24.697  0.00  0.00    +0.158 A 
ATOM     16  C   UNL     1       9.215  -2.488  24.946  0.00  0.00    +0.159 A 
ATOM     17  C   UNL     1       8.105  -2.544  25.791  0.00  0.00    +0.060 A 
BRANCH  16  18
ATOM     18  O   UNL     1       9.665  -3.595  24.278  0.00  0.00    -0.503 OA
ATOM     19  H   UNL     1      10.449  -3.926  24.752  0.00  0.00    +0.292 HD
ENDBRANCH  16  18
BRANCH  15  20
ATOM     20  O   UNL     1      10.895  -1.226  23.805  0.00  0.00    -0.503 OA
ATOM     21  H   UNL     1      11.677  -1.523  24.311  0.00  0.00    +0.292 HD
ENDBRANCH  15  20
ENDBRANCH  11  12
BRANCH  10  22
ATOM     22  O   UNL     1       1.779  -1.297  29.482  0.00  0.00    -0.506 OA
ATOM     23  H   UNL     1       2.139  -0.397  29.443  0.00  0.00    +0.292 HD
ENDBRANCH  10  22
BRANCH   7  24
ATOM     24  O   UNL     1       1.734  -5.287  26.915  0.00  0.00    -0.461 OA
BRANCH  24  25
ATOM     25  C   UNL     1       2.526  -6.361  26.370  0.00  0.00    +0.339 C 
ATOM     26  O   UNL     1       2.178  -6.661  25.018  0.00  0.00    -0.331 OA
ATOM     27  C   UNL     1       0.822  -7.118  24.864  0.00  0.00    +0.179 C 
ATOM     28  C   UNL     1       0.555  -8.393  25.679  0.00  0.00    +0.177 C 
ATOM     29  C   UNL     1       1.001  -8.225  27.134  0.00  0.00    +0.180 C 
ATOM     30  C   UNL     1       2.417  -7.651  27.213  0.00  0.00    +0.214 C 
BRANCH  30  31
ATOM     31  O   UNL     1       2.755  -7.479  28.598  0.00  0.00    -0.383 OA
ATOM     32  H   UNL     1       1.927  -7.462  29.110  0.00  0.00    +0.210 HD
ENDBRANCH  30  31
BRANCH  29  33
ATOM     33  O   UNL     1       0.974  -9.523  27.761  0.00  0.00    -0.386 OA
ATOM     34  H   UNL     1       1.209  -9.366  28.698  0.00  0.00    +0.210 HD
ENDBRANCH  29  33
BRANCH  28  35
ATOM     35  O   UNL     1       1.267  -9.509  25.122  0.00  0.00    -0.386 OA
ATOM     36  H   UNL     1       0.675 -10.278  25.262  0.00  0.00    +0.210 HD
ENDBRANCH  28  35
BRANCH  27  37
ATOM     37  C   UNL     1       0.579  -7.351  23.365  0.00  0.00    +0.190 C 
BRANCH  37  38
ATOM     38  O   UNL     1       1.654  -8.076  22.760  0.00  0.00    -0.392 OA
ATOM     39  H   UNL     1       1.540  -8.047  21.796  0.00  0.00    +0.210 HD
ENDBRANCH  37  38
ENDBRANCH  27  37
ENDBRANCH  24  25
ENDBRANCH   7  24
BRANCH   1  40
ATOM     40  O   UNL     1       6.701   0.693  28.333  0.00  0.00    -0.453 OA
BRANCH  40  42
ATOM     41  C   UNL     1       6.728   2.913  27.260  0.00  0.00    +0.221 C 
ATOM     42  C   UNL     1       6.121   2.008  28.373  0.00  0.00    +0.340 C 
ATOM     43  O   UNL     1       4.682   1.973  28.220  0.00  0.00    -0.331 OA
ATOM     44  C   UNL     1       4.063   3.275  28.386  0.00  0.00    +0.179 C 
ATOM     45  C   UNL     1       4.645   4.295  27.386  0.00  0.00    +0.177 C 
ATOM     46  C   UNL     1       6.172   4.325  27.517  0.00  0.00    +0.180 C 
BRANCH  46  47
ATOM     47  O   UNL     1       6.728   5.330  26.654  0.00  0.00    -0.386 OA
ATOM     48  H   UNL     1       6.681   4.978  25.744  0.00  0.00    +0.210 HD
ENDBRANCH  46  47
BRANCH  45  49
ATOM     49  O   UNL     1       4.124   5.609  27.595  0.00  0.00    -0.386 OA
ATOM     50  H   UNL     1       3.194   5.478  27.871  0.00  0.00    +0.210 HD
ENDBRANCH  45  49
BRANCH  44  51
ATOM     51  C   UNL     1       4.121   3.804  29.843  0.00  0.00    +0.190 C 
BRANCH  51  52
ATOM     52  O   UNL     1       3.066   4.728  30.115  0.00  0.00    -0.392 OA
ATOM     53  H   UNL     1       2.951   5.276  29.318  0.00  0.00    +0.210 HD
ENDBRANCH  51  52
ENDBRANCH  44  51
BRANCH  41  54
ATOM     54  O   UNL     1       6.408   2.372  25.938  0.00  0.00    -0.336 OA
BRANCH  54  57
ATOM     55  C   UNL     1       5.915   4.813  23.298  0.00  0.00    +0.197 C 
ATOM     56  O   UNL     1       5.558   3.740  24.184  0.00  0.00    -0.345 OA
ATOM     57  C   UNL     1       6.738   3.236  24.845  0.00  0.00    +0.294 C 
ATOM     58  C   UNL     1       7.622   2.553  23.787  0.00  0.00    +0.263 C 
ATOM     59  C   UNL     1       8.099   3.626  22.816  0.00  0.00    +0.191 C 
ATOM     60  C   UNL     1       6.911   4.384  22.206  0.00  0.00    +0.172 C 
BRANCH  60  61
ATOM     61  O   UNL     1       7.408   5.536  21.516  0.00  0.00    -0.387 OA
ATOM     62  H   UNL     1       8.357   5.613  21.695  0.00  0.00    +0.210 HD
ENDBRANCH  60  61
BRANCH  59  63
ATOM     63  O   UNL     1       8.923   3.023  21.807  0.00  0.00    -0.385 OA
ATOM     64  H   UNL     1       8.392   2.340  21.363  0.00  0.00    +0.210 HD
ENDBRANCH  59  63
BRANCH  58  65
ATOM     65  O   UNL     1       6.833   1.586  23.039  0.00  0.00    -0.450 OA
BRANCH  65  66
ATOM     66  C   UNL     1       7.483   0.498  22.559  0.00  0.00    +0.332 C 
ATOM     67  O   UNL     1       8.515   0.502  21.911  0.00  0.00    -0.246 OA
BRANCH  66  68
ATOM     68  C   UNL     1       6.676  -0.691  22.894  0.00  0.00    +0.092 C 
ATOM     69  C   UNL     1       7.065  -1.903  22.473  0.00  0.00    +0.015 C 
BRANCH  69  70
ATOM     70  C   UNL     1       6.280  -3.135  22.642  0.00  0.00    -0.025 A 
ATOM     71  C   UNL     1       5.054  -3.181  23.319  0.00  0.00    +0.011 A 
ATOM     72  C   UNL     1       4.311  -4.365  23.363  0.00  0.00    +0.046 A 
ATOM     73  C   UNL     1       4.796  -5.507  22.742  0.00  0.00    +0.117 A 
ATOM     74  C   UNL     1       6.039  -5.503  22.122  0.00  0.00    +0.046 A 
ATOM     75  C   UNL     1       6.782  -4.320  22.083  0.00  0.00    +0.011 A 
BRANCH  73  76
ATOM     76  O   UNL     1       4.011  -6.621  22.751  0.00  0.00    -0.507 OA
ATOM     77  H   UNL     1       4.585  -7.404  22.710  0.00  0.00    +0.292 HD
ENDBRANCH  73  76
ENDBRANCH  69  70
ENDBRANCH  66  68
ENDBRANCH  65  66
ENDBRANCH  58  65
ENDBRANCH  54  57
ENDBRANCH  41  54
ENDBRANCH  40  42
ENDBRANCH   1  40
TORSDOF 26
ENDMDL
MODEL 7
REMARK VINA RESULT:      -5.4      2.637      8.918
REMARK  Name = 
REMARK  26 active torsions:
REMARK  status: ('A' for Active; 'I' for Inactive)
REMARK    1  A    between atoms: C_2  and  O_72
REMARK    2  A    between atoms: C_4  and  O_71
REMARK    3  A    between atoms: C_5  and  O_59
REMARK    4  A    between atoms: C_6  and  O_9
REMARK    5  A    between atoms: O_9  and  C_10
REMARK    6  A    between atoms: C_11  and  O_58
REMARK    7  A    between atoms: C_13  and  O_57
REMARK    8  A    between atoms: C_15  and  C_55
REMARK    9  A    between atoms: C_17  and  O_19
REMARK   10  A    between atoms: O_19  and  C_20
REMARK   11  A    between atoms: C_21  and  C_47
REMARK   12  A    between atoms: C_25  and  O_32
REMARK   13  A    between atoms: C_27  and  O_31
REMARK   14  A    between atoms: O_32  and  C_33
REMARK   15  A    between atoms: C_35  and  O_46
REMARK   16  A    between atoms: C_36  and  O_45
REMARK   17  A    between atoms: C_37  and  O_44
REMARK   18  A    between atoms: C_39  and  C_42
REMARK   19  A    between atoms: C_42  and  O_43
REMARK   20  A    between atoms: C_49  and  O_54
REMARK   21  A    between atoms: C_50  and  O_53
REMARK   22  A    between atoms: C_55  and  O_56
REMARK   23  A    between atoms: O_59  and  C_60
REMARK   24  A    between atoms: C_60  and  C_62
REMARK   25  A    between atoms: C_63  and  C_64
REMARK   26  A    between atoms: C_67  and  O_70
REMARK                            x       y       z     vdW  Elec       q    Type
REMARK                         _______ _______ _______ _____ _____    ______ ____
ROOT
ATOM      1  C   UNL     1       5.894   3.010  27.190  0.00  0.00    +0.214 A 
ATOM      2  C   UNL     1       5.002   1.889  27.701  0.00  0.00    +0.238 A 
ATOM      3  O   UNL     1       4.334   1.996  28.725  0.00  0.00    -0.283 OA
ATOM      4  C   UNL     1       5.027   0.591  26.990  0.00  0.00    +0.109 A 
ATOM      5  C   UNL     1       5.959   0.447  25.984  0.00  0.00    +0.147 A 
ATOM      6  C   UNL     1       6.134  -0.774  25.319  0.00  0.00    +0.093 A 
ATOM      7  C   UNL     1       5.391  -1.893  25.679  0.00  0.00    +0.131 A 
ATOM      8  C   UNL     1       4.402  -1.746  26.660  0.00  0.00    +0.092 A 
ATOM      9  O   UNL     1       6.779   1.447  25.576  0.00  0.00    -0.451 OA
ATOM     10  C   UNL     1       4.216  -0.510  27.301  0.00  0.00    +0.135 A 
ATOM     11  C   UNL     1       6.742   2.690  26.186  0.00  0.00    +0.181 A 
ENDROOT
BRANCH  11  12
ATOM     12  C   UNL     1       7.847   3.537  25.631  0.00  0.00    +0.025 A 
ATOM     13  C   UNL     1       7.673   4.943  25.605  0.00  0.00    +0.015 A 
ATOM     14  C   UNL     1       8.508   5.779  24.856  0.00  0.00    +0.050 A 
ATOM     15  C   UNL     1       9.540   5.217  24.136  0.00  0.00    +0.158 A 
ATOM     16  C   UNL     1       9.768   3.842  24.180  0.00  0.00    +0.159 A 
ATOM     17  C   UNL     1       8.936   3.001  24.922  0.00  0.00    +0.060 A 
BRANCH  16  18
ATOM     18  O   UNL     1      10.790   3.346  23.414  0.00  0.00    -0.503 OA
ATOM     19  H   UNL     1      10.402   3.018  22.583  0.00  0.00    +0.292 HD
ENDBRANCH  16  18
BRANCH  15  20
ATOM     20  O   UNL     1      10.313   6.014  23.340  0.00  0.00    -0.503 OA
ATOM     21  H   UNL     1      10.605   6.741  23.925  0.00  0.00    +0.292 HD
ENDBRANCH  15  20
ENDBRANCH  11  12
BRANCH  10  22
ATOM     22  O   UNL     1       3.222  -0.399  28.233  0.00  0.00    -0.506 OA
ATOM     23  H   UNL     1       3.228  -1.163  28.831  0.00  0.00    +0.292 HD
ENDBRANCH  10  22
BRANCH   7  24
ATOM     24  O   UNL     1       5.541  -3.149  25.140  0.00  0.00    -0.461 OA
BRANCH  24  25
ATOM     25  C   UNL     1       4.338  -3.800  24.686  0.00  0.00    +0.339 C 
ATOM     26  O   UNL     1       3.863  -4.775  25.614  0.00  0.00    -0.331 OA
ATOM     27  C   UNL     1       4.785  -5.861  25.825  0.00  0.00    +0.179 C 
ATOM     28  C   UNL     1       5.090  -6.610  24.518  0.00  0.00    +0.177 C 
ATOM     29  C   UNL     1       5.502  -5.641  23.407  0.00  0.00    +0.180 C 
ATOM     30  C   UNL     1       4.523  -4.469  23.307  0.00  0.00    +0.214 C 
BRANCH  30  31
ATOM     31  O   UNL     1       4.989  -3.582  22.279  0.00  0.00    -0.383 OA
ATOM     32  H   UNL     1       4.963  -2.673  22.631  0.00  0.00    +0.210 HD
ENDBRANCH  30  31
BRANCH  29  33
ATOM     33  O   UNL     1       5.509  -6.369  22.162  0.00  0.00    -0.386 OA
ATOM     34  H   UNL     1       6.301  -6.055  21.680  0.00  0.00    +0.210 HD
ENDBRANCH  29  33
BRANCH  28  35
ATOM     35  O   UNL     1       3.935  -7.336  24.069  0.00  0.00    -0.386 OA
ATOM     36  H   UNL     1       3.787  -8.020  24.756  0.00  0.00    +0.210 HD
ENDBRANCH  28  35
BRANCH  27  37
ATOM     37  C   UNL     1       4.166  -6.796  26.875  0.00  0.00    +0.190 C 
BRANCH  37  38
ATOM     38  O   UNL     1       5.164  -7.385  27.714  0.00  0.00    -0.392 OA
ATOM     39  H   UNL     1       4.805  -7.456  28.614  0.00  0.00    +0.210 HD
ENDBRANCH  37  38
ENDBRANCH  27  37
ENDBRANCH  24  25
ENDBRANCH   7  24
BRANCH   1  40
ATOM     40  O   UNL     1       5.910   4.297  27.759  0.00  0.00    -0.453 OA
BRANCH  40  42
ATOM     41  C   UNL     1       4.095   5.297  26.421  0.00  0.00    +0.221 C 
ATOM     42  C   UNL     1       4.667   5.016  27.842  0.00  0.00    +0.340 C 
ATOM     43  O   UNL     1       3.675   4.299  28.616  0.00  0.00    -0.331 OA
ATOM     44  C   UNL     1       2.458   5.062  28.821  0.00  0.00    +0.179 C 
ATOM     45  C   UNL     1       1.833   5.478  27.474  0.00  0.00    +0.177 C 
ATOM     46  C   UNL     1       2.879   6.216  26.630  0.00  0.00    +0.180 C 
BRANCH  46  47
ATOM     47  O   UNL     1       2.293   6.686  25.406  0.00  0.00    -0.386 OA
ATOM     48  H   UNL     1       1.459   6.192  25.284  0.00  0.00    +0.210 HD
ENDBRANCH  46  47
BRANCH  45  49
ATOM     49  O   UNL     1       0.688   6.315  27.649  0.00  0.00    -0.386 OA
ATOM     50  H   UNL     1       0.497   6.295  28.609  0.00  0.00    +0.210 HD
ENDBRANCH  45  49
BRANCH  44  51
ATOM     51  C   UNL     1       2.645   6.279  29.766  0.00  0.00    +0.190 C 
BRANCH  51  52
ATOM     52  O   UNL     1       1.435   6.614  30.446  0.00  0.00    -0.392 OA
ATOM     53  H   UNL     1       1.281   5.924  31.117  0.00  0.00    +0.210 HD
ENDBRANCH  51  52
ENDBRANCH  44  51
BRANCH  41  54
ATOM     54  O   UNL     1       3.787   4.037  25.741  0.00  0.00    -0.336 OA
BRANCH  54  57
ATOM     55  C   UNL     1       1.577   3.084  23.025  0.00  0.00    +0.197 C 
ATOM     56  O   UNL     1       2.589   2.898  24.027  0.00  0.00    -0.345 OA
ATOM     57  C   UNL     1       3.000   4.177  24.553  0.00  0.00    +0.294 C 
ATOM     58  C   UNL     1       3.733   4.940  23.435  0.00  0.00    +0.263 C 
ATOM     59  C   UNL     1       2.723   5.233  22.333  0.00  0.00    +0.191 C 
ATOM     60  C   UNL     1       2.055   3.941  21.840  0.00  0.00    +0.172 C 
BRANCH  60  61
ATOM     61  O   UNL     1       0.943   4.289  21.007  0.00  0.00    -0.387 OA
ATOM     62  H   UNL     1       0.203   4.544  21.578  0.00  0.00    +0.210 HD
ENDBRANCH  60  61
BRANCH  59  63
ATOM     63  O   UNL     1       3.373   5.939  21.267  0.00  0.00    -0.385 OA
ATOM     64  H   UNL     1       3.874   6.673  21.662  0.00  0.00    +0.210 HD
ENDBRANCH  59  63
BRANCH  58  65
ATOM     65  O   UNL     1       4.781   4.100  22.875  0.00  0.00    -0.450 OA
BRANCH  65  66
ATOM     66  C   UNL     1       5.918   4.719  22.473  0.00  0.00    +0.332 C 
ATOM     67  O   UNL     1       6.093   5.922  22.387  0.00  0.00    -0.246 OA
BRANCH  66  68
ATOM     68  C   UNL     1       6.883   3.673  22.083  0.00  0.00    +0.092 C 
ATOM     69  C   UNL     1       6.606   2.384  22.326  0.00  0.00    +0.015 C 
BRANCH  69  70
ATOM     70  C   UNL     1       7.542   1.274  22.093  0.00  0.00    -0.025 A 
ATOM     71  C   UNL     1       8.804   1.439  21.507  0.00  0.00    +0.011 A 
ATOM     72  C   UNL     1       9.684   0.358  21.399  0.00  0.00    +0.046 A 
ATOM     73  C   UNL     1       9.303  -0.891  21.867  0.00  0.00    +0.117 A 
ATOM     74  C   UNL     1       8.032  -1.094  22.391  0.00  0.00    +0.046 A 
ATOM     75  C   UNL     1       7.152  -0.013  22.493  0.00  0.00    +0.011 A 
BRANCH  73  76
ATOM     76  O   UNL     1      10.214  -1.903  21.805  0.00  0.00    -0.507 OA
ATOM     77  H   UNL     1      10.306  -2.179  20.878  0.00  0.00    +0.292 HD
ENDBRANCH  73  76
ENDBRANCH  69  70
ENDBRANCH  66  68
ENDBRANCH  65  66
ENDBRANCH  58  65
ENDBRANCH  54  57
ENDBRANCH  41  54
ENDBRANCH  40  42
ENDBRANCH   1  40
TORSDOF 26
ENDMDL
MODEL 8
REMARK VINA RESULT:      -5.3      1.626      3.042
REMARK  Name = 
REMARK  26 active torsions:
REMARK  status: ('A' for Active; 'I' for Inactive)
REMARK    1  A    between atoms: C_2  and  O_72
REMARK    2  A    between atoms: C_4  and  O_71
REMARK    3  A    between atoms: C_5  and  O_59
REMARK    4  A    between atoms: C_6  and  O_9
REMARK    5  A    between atoms: O_9  and  C_10
REMARK    6  A    between atoms: C_11  and  O_58
REMARK    7  A    between atoms: C_13  and  O_57
REMARK    8  A    between atoms: C_15  and  C_55
REMARK    9  A    between atoms: C_17  and  O_19
REMARK   10  A    between atoms: O_19  and  C_20
REMARK   11  A    between atoms: C_21  and  C_47
REMARK   12  A    between atoms: C_25  and  O_32
REMARK   13  A    between atoms: C_27  and  O_31
REMARK   14  A    between atoms: O_32  and  C_33
REMARK   15  A    between atoms: C_35  and  O_46
REMARK   16  A    between atoms: C_36  and  O_45
REMARK   17  A    between atoms: C_37  and  O_44
REMARK   18  A    between atoms: C_39  and  C_42
REMARK   19  A    between atoms: C_42  and  O_43
REMARK   20  A    between atoms: C_49  and  O_54
REMARK   21  A    between atoms: C_50  and  O_53
REMARK   22  A    between atoms: C_55  and  O_56
REMARK   23  A    between atoms: O_59  and  C_60
REMARK   24  A    between atoms: C_60  and  C_62
REMARK   25  A    between atoms: C_63  and  C_64
REMARK   26  A    between atoms: C_67  and  O_70
REMARK                            x       y       z     vdW  Elec       q    Type
REMARK                         _______ _______ _______ _____ _____    ______ ____
ROOT
ATOM      1  C   UNL     1       5.232  -1.108  26.171  0.00  0.00    +0.214 A 
ATOM      2  C   UNL     1       5.207   0.278  26.799  0.00  0.00    +0.238 A 
ATOM      3  O   UNL     1       4.828   0.471  27.949  0.00  0.00    -0.283 OA
ATOM      4  C   UNL     1       5.552   1.441  25.950  0.00  0.00    +0.109 A 
ATOM      5  C   UNL     1       5.750   1.199  24.607  0.00  0.00    +0.147 A 
ATOM      6  C   UNL     1       5.980   2.242  23.701  0.00  0.00    +0.093 A 
ATOM      7  C   UNL     1       5.982   3.567  24.128  0.00  0.00    +0.131 A 
ATOM      8  C   UNL     1       5.838   3.823  25.498  0.00  0.00    +0.092 A 
ATOM      9  O   UNL     1       5.721  -0.042  24.059  0.00  0.00    -0.451 OA
ATOM     10  C   UNL     1       5.636   2.766  26.400  0.00  0.00    +0.135 A 
ATOM     11  C   UNL     1       5.454  -1.157  24.837  0.00  0.00    +0.181 A 
ENDROOT
BRANCH  11  12
ATOM     12  C   UNL     1       5.343  -2.356  23.946  0.00  0.00    +0.025 A 
ATOM     13  C   UNL     1       4.231  -3.220  24.110  0.00  0.00    +0.015 A 
ATOM     14  C   UNL     1       4.193  -4.494  23.536  0.00  0.00    +0.050 A 
ATOM     15  C   UNL     1       5.262  -4.914  22.773  0.00  0.00    +0.158 A 
ATOM     16  C   UNL     1       6.350  -4.070  22.552  0.00  0.00    +0.159 A 
ATOM     17  C   UNL     1       6.397  -2.798  23.126  0.00  0.00    +0.060 A 
BRANCH  16  18
ATOM     18  O   UNL     1       7.393  -4.563  21.813  0.00  0.00    -0.503 OA
ATOM     19  H   UNL     1       7.926  -3.804  21.516  0.00  0.00    +0.292 HD
ENDBRANCH  16  18
BRANCH  15  20
ATOM     20  O   UNL     1       5.270  -6.185  22.273  0.00  0.00    -0.503 OA
ATOM     21  H   UNL     1       5.909  -6.668  22.832  0.00  0.00    +0.292 HD
ENDBRANCH  15  20
ENDBRANCH  11  12
BRANCH  10  22
ATOM     22  O   UNL     1       5.529   3.055  27.733  0.00  0.00    -0.506 OA
ATOM     23  H   UNL     1       4.829   3.710  27.885  0.00  0.00    +0.292 HD
ENDBRANCH  10  22
BRANCH   7  24
ATOM     24  O   UNL     1       6.123   4.661  23.308  0.00  0.00    -0.461 OA
BRANCH  24  25
ATOM     25  C   UNL     1       7.190   4.604  22.341  0.00  0.00    +0.339 C 
ATOM     26  O   UNL     1       7.949   3.398  22.439  0.00  0.00    -0.331 OA
ATOM     27  C   UNL     1       8.619   3.245  23.703  0.00  0.00    +0.179 C 
ATOM     28  C   UNL     1       9.595   4.401  23.973  0.00  0.00    +0.177 C 
ATOM     29  C   UNL     1       8.914   5.758  23.783  0.00  0.00    +0.180 C 
ATOM     30  C   UNL     1       8.149   5.809  22.459  0.00  0.00    +0.214 C 
BRANCH  30  31
ATOM     31  O   UNL     1       7.501   7.087  22.364  0.00  0.00    -0.383 OA
ATOM     32  H   UNL     1       7.462   7.473  23.258  0.00  0.00    +0.210 HD
ENDBRANCH  30  31
BRANCH  29  33
ATOM     33  O   UNL     1       9.937   6.775  23.786  0.00  0.00    -0.386 OA
ATOM     34  H   UNL     1       9.896   7.184  24.674  0.00  0.00    +0.210 HD
ENDBRANCH  29  33
BRANCH  28  35
ATOM     35  O   UNL     1      10.717   4.337  23.078  0.00  0.00    -0.386 OA
ATOM     36  H   UNL     1      11.468   4.696  23.594  0.00  0.00    +0.210 HD
ENDBRANCH  28  35
BRANCH  27  37
ATOM     37  C   UNL     1       9.346   1.892  23.680  0.00  0.00    +0.190 C 
BRANCH  37  38
ATOM     38  O   UNL     1      10.447   1.866  24.595  0.00  0.00    -0.392 OA
ATOM     39  H   UNL     1      10.350   1.089  25.169  0.00  0.00    +0.210 HD
ENDBRANCH  37  38
ENDBRANCH  27  37
ENDBRANCH  24  25
ENDBRANCH   7  24
BRANCH   1  40
ATOM     40  O   UNL     1       4.972  -2.284  26.898  0.00  0.00    -0.453 OA
BRANCH  40  42
ATOM     41  C   UNL     1       2.799  -3.379  27.299  0.00  0.00    +0.221 C 
ATOM     42  C   UNL     1       3.825  -2.304  27.765  0.00  0.00    +0.340 C 
ATOM     43  O   UNL     1       4.189  -2.565  29.142  0.00  0.00    -0.331 OA
ATOM     44  C   UNL     1       3.064  -2.463  30.053  0.00  0.00    +0.179 C 
ATOM     45  C   UNL     1       1.933  -3.428  29.646  0.00  0.00    +0.177 C 
ATOM     46  C   UNL     1       1.553  -3.182  28.180  0.00  0.00    +0.180 C 
BRANCH  46  47
ATOM     47  O   UNL     1       0.443  -4.014  27.805  0.00  0.00    -0.386 OA
ATOM     48  H   UNL     1      -0.201  -3.437  27.352  0.00  0.00    +0.210 HD
ENDBRANCH  46  47
BRANCH  45  49
ATOM     49  O   UNL     1       0.774  -3.276  30.468  0.00  0.00    -0.386 OA
ATOM     50  H   UNL     1       0.858  -2.387  30.870  0.00  0.00    +0.210 HD
ENDBRANCH  45  49
BRANCH  44  51
ATOM     51  C   UNL     1       2.543  -1.012  30.230  0.00  0.00    +0.190 C 
BRANCH  51  52
ATOM     52  O   UNL     1       3.607  -0.092  30.473  0.00  0.00    -0.392 OA
ATOM     53  H   UNL     1       4.430  -0.516  30.171  0.00  0.00    +0.210 HD
ENDBRANCH  51  52
ENDBRANCH  44  51
BRANCH  41  54
ATOM     54  O   UNL     1       3.392  -4.715  27.384  0.00  0.00    -0.336 OA
BRANCH  54  57
ATOM     55  C   UNL     1       1.170  -7.519  26.775  0.00  0.00    +0.197 C 
ATOM     56  O   UNL     1       2.090  -6.704  27.519  0.00  0.00    -0.345 OA
ATOM     57  C   UNL     1       2.694  -5.726  26.647  0.00  0.00    +0.294 C 
ATOM     58  C   UNL     1       3.597  -6.470  25.648  0.00  0.00    +0.263 C 
ATOM     59  C   UNL     1       2.702  -7.334  24.768  0.00  0.00    +0.191 C 
ATOM     60  C   UNL     1       1.842  -8.280  25.618  0.00  0.00    +0.172 C 
BRANCH  60  61
ATOM     61  O   UNL     1       0.845  -8.873  24.778  0.00  0.00    -0.387 OA
ATOM     62  H   UNL     1       0.285  -8.166  24.424  0.00  0.00    +0.210 HD
ENDBRANCH  60  61
BRANCH  59  63
ATOM     63  O   UNL     1       3.512  -8.051  23.825  0.00  0.00    -0.385 OA
ATOM     64  H   UNL     1       4.263  -7.480  23.587  0.00  0.00    +0.210 HD
ENDBRANCH  59  63
BRANCH  58  65
ATOM     65  O   UNL     1       4.506  -7.348  26.368  0.00  0.00    -0.450 OA
BRANCH  65  66
ATOM     66  C   UNL     1       5.433  -6.759  27.162  0.00  0.00    +0.332 C 
ATOM     67  O   UNL     1       5.536  -6.886  28.369  0.00  0.00    -0.246 OA
BRANCH  66  68
ATOM     68  C   UNL     1       6.251  -5.871  26.313  0.00  0.00    +0.092 C 
ATOM     69  C   UNL     1       7.358  -5.304  26.812  0.00  0.00    +0.015 C 
BRANCH  69  70
ATOM     70  C   UNL     1       8.178  -4.311  26.101  0.00  0.00    -0.025 A 
ATOM     71  C   UNL     1       9.001  -4.628  25.013  0.00  0.00    +0.011 A 
ATOM     72  C   UNL     1       9.682  -3.622  24.321  0.00  0.00    +0.046 A 
ATOM     73  C   UNL     1       9.551  -2.299  24.720  0.00  0.00    +0.117 A 
ATOM     74  C   UNL     1       8.794  -1.968  25.837  0.00  0.00    +0.046 A 
ATOM     75  C   UNL     1       8.118  -2.976  26.530  0.00  0.00    +0.011 A 
BRANCH  73  76
ATOM     76  O   UNL     1      10.177  -1.343  23.979  0.00  0.00    -0.507 OA
ATOM     77  H   UNL     1       9.532  -0.958  23.363  0.00  0.00    +0.292 HD
ENDBRANCH  73  76
ENDBRANCH  69  70
ENDBRANCH  66  68
ENDBRANCH  65  66
ENDBRANCH  58  65
ENDBRANCH  54  57
ENDBRANCH  41  54
ENDBRANCH  40  42
ENDBRANCH   1  40
TORSDOF 26
ENDMDL
MODEL 9
REMARK VINA RESULT:      -5.2      2.534     10.492
REMARK  Name = 
REMARK  26 active torsions:
REMARK  status: ('A' for Active; 'I' for Inactive)
REMARK    1  A    between atoms: C_2  and  O_72
REMARK    2  A    between atoms: C_4  and  O_71
REMARK    3  A    between atoms: C_5  and  O_59
REMARK    4  A    between atoms: C_6  and  O_9
REMARK    5  A    between atoms: O_9  and  C_10
REMARK    6  A    between atoms: C_11  and  O_58
REMARK    7  A    between atoms: C_13  and  O_57
REMARK    8  A    between atoms: C_15  and  C_55
REMARK    9  A    between atoms: C_17  and  O_19
REMARK   10  A    between atoms: O_19  and  C_20
REMARK   11  A    between atoms: C_21  and  C_47
REMARK   12  A    between atoms: C_25  and  O_32
REMARK   13  A    between atoms: C_27  and  O_31
REMARK   14  A    between atoms: O_32  and  C_33
REMARK   15  A    between atoms: C_35  and  O_46
REMARK   16  A    between atoms: C_36  and  O_45
REMARK   17  A    between atoms: C_37  and  O_44
REMARK   18  A    between atoms: C_39  and  C_42
REMARK   19  A    between atoms: C_42  and  O_43
REMARK   20  A    between atoms: C_49  and  O_54
REMARK   21  A    between atoms: C_50  and  O_53
REMARK   22  A    between atoms: C_55  and  O_56
REMARK   23  A    between atoms: O_59  and  C_60
REMARK   24  A    between atoms: C_60  and  C_62
REMARK   25  A    between atoms: C_63  and  C_64
REMARK   26  A    between atoms: C_67  and  O_70
REMARK                            x       y       z     vdW  Elec       q    Type
REMARK                         _______ _______ _______ _____ _____    ______ ____
ROOT
ATOM      1  C   UNL     1       5.382  -0.400  25.440  0.00  0.00    +0.214 A 
ATOM      2  C   UNL     1       5.808  -1.598  24.605  0.00  0.00    +0.238 A 
ATOM      3  O   UNL     1       6.496  -1.484  23.596  0.00  0.00    -0.283 OA
ATOM      4  C   UNL     1       5.280  -2.932  24.970  0.00  0.00    +0.109 A 
ATOM      5  C   UNL     1       4.332  -2.978  25.970  0.00  0.00    +0.147 A 
ATOM      6  C   UNL     1       3.696  -4.176  26.320  0.00  0.00    +0.093 A 
ATOM      7  C   UNL     1       3.979  -5.357  25.642  0.00  0.00    +0.131 A 
ATOM      8  C   UNL     1       4.980  -5.336  24.662  0.00  0.00    +0.092 A 
ATOM      9  O   UNL     1       3.931  -1.888  26.671  0.00  0.00    -0.451 OA
ATOM     10  C   UNL     1       5.631  -4.134  24.338  0.00  0.00    +0.135 A 
ATOM     11  C   UNL     1       4.447  -0.633  26.389  0.00  0.00    +0.181 A 
ENDROOT
BRANCH  11  12
ATOM     12  C   UNL     1       3.721   0.386  27.213  0.00  0.00    +0.025 A 
ATOM     13  C   UNL     1       2.306   0.329  27.267  0.00  0.00    +0.015 A 
ATOM     14  C   UNL     1       1.540   1.389  27.762  0.00  0.00    +0.050 A 
ATOM     15  C   UNL     1       2.184   2.515  28.228  0.00  0.00    +0.158 A 
ATOM     16  C   UNL     1       3.577   2.584  28.234  0.00  0.00    +0.159 A 
ATOM     17  C   UNL     1       4.347   1.531  27.737  0.00  0.00    +0.060 A 
BRANCH  16  18
ATOM     18  O   UNL     1       4.151   3.745  28.679  0.00  0.00    -0.503 OA
ATOM     19  H   UNL     1       5.015   3.516  29.067  0.00  0.00    +0.292 HD
ENDBRANCH  16  18
BRANCH  15  20
ATOM     20  O   UNL     1       1.445   3.587  28.641  0.00  0.00    -0.503 OA
ATOM     21  H   UNL     1       1.817   4.348  28.153  0.00  0.00    +0.292 HD
ENDBRANCH  15  20
ENDBRANCH  11  12
BRANCH  10  22
ATOM     22  O   UNL     1       6.623  -4.160  23.397  0.00  0.00    -0.506 OA
ATOM     23  H   UNL     1       6.249  -4.080  22.505  0.00  0.00    +0.292 HD
ENDBRANCH  10  22
BRANCH   7  24
ATOM     24  O   UNL     1       3.357  -6.563  25.859  0.00  0.00    -0.461 OA
BRANCH  24  25
ATOM     25  C   UNL     1       1.962  -6.638  25.502  0.00  0.00    +0.339 C 
ATOM     26  O   UNL     1       1.359  -7.864  25.918  0.00  0.00    -0.331 OA
ATOM     27  C   UNL     1       1.938  -9.026  25.296  0.00  0.00    +0.179 C 
ATOM     28  C   UNL     1       1.814  -8.972  23.765  0.00  0.00    +0.177 C 
ATOM     29  C   UNL     1       2.330  -7.641  23.213  0.00  0.00    +0.180 C 
ATOM     30  C   UNL     1       1.738  -6.459  23.985  0.00  0.00    +0.214 C 
BRANCH  30  31
ATOM     31  O   UNL     1       2.293  -5.249  23.447  0.00  0.00    -0.383 OA
ATOM     32  H   UNL     1       1.556  -4.650  23.230  0.00  0.00    +0.210 HD
ENDBRANCH  30  31
BRANCH  29  33
ATOM     33  O   UNL     1       1.940  -7.552  21.827  0.00  0.00    -0.386 OA
ATOM     34  H   UNL     1       2.299  -8.357  21.403  0.00  0.00    +0.210 HD
ENDBRANCH  29  33
BRANCH  28  35
ATOM     35  O   UNL     1       0.443  -9.120  23.361  0.00  0.00    -0.386 OA
ATOM     36  H   UNL     1       0.457  -9.834  22.690  0.00  0.00    +0.210 HD
ENDBRANCH  28  35
BRANCH  27  37
ATOM     37  C   UNL     1       1.228 -10.260  25.872  0.00  0.00    +0.190 C 
BRANCH  37  38
ATOM     38  O   UNL     1       0.828 -10.057  27.230  0.00  0.00    -0.392 OA
ATOM     39  H   UNL     1       0.854 -10.912  27.689  0.00  0.00    +0.210 HD
ENDBRANCH  37  38
ENDBRANCH  27  37
ENDBRANCH  24  25
ENDBRANCH   7  24
BRANCH   1  40
ATOM     40  O   UNL     1       5.863   0.903  25.213  0.00  0.00    -0.453 OA
BRANCH  40  42
ATOM     41  C   UNL     1       6.830   1.657  23.073  0.00  0.00    +0.221 C 
ATOM     42  C   UNL     1       7.093   1.053  24.484  0.00  0.00    +0.340 C 
ATOM     43  O   UNL     1       8.042   1.892  25.187  0.00  0.00    -0.331 OA
ATOM     44  C   UNL     1       9.336   1.952  24.533  0.00  0.00    +0.179 C 
ATOM     45  C   UNL     1       9.200   2.461  23.083  0.00  0.00    +0.177 C 
ATOM     46  C   UNL     1       8.177   1.599  22.332  0.00  0.00    +0.180 C 
BRANCH  46  47
ATOM     47  O   UNL     1       8.097   2.003  20.956  0.00  0.00    -0.386 OA
ATOM     48  H   UNL     1       8.008   2.976  20.952  0.00  0.00    +0.210 HD
ENDBRANCH  46  47
BRANCH  45  49
ATOM     49  O   UNL     1      10.446   2.435  22.385  0.00  0.00    -0.386 OA
ATOM     50  H   UNL     1      11.092   2.846  22.995  0.00  0.00    +0.210 HD
ENDBRANCH  45  49
BRANCH  44  51
ATOM     51  C   UNL     1      10.124   0.618  24.599  0.00  0.00    +0.190 C 
BRANCH  51  52
ATOM     52  O   UNL     1      11.497   0.794  24.251  0.00  0.00    -0.392 OA
ATOM     53  H   UNL     1      12.028   0.378  24.954  0.00  0.00    +0.210 HD
ENDBRANCH  51  52
ENDBRANCH  44  51
BRANCH  41  54
ATOM     54  O   UNL     1       6.267   3.003  23.196  0.00  0.00    -0.336 OA
BRANCH  54  57
ATOM     55  C   UNL     1       2.979   3.601  21.783  0.00  0.00    +0.197 C 
ATOM     56  O   UNL     1       4.386   3.809  21.979  0.00  0.00    -0.345 OA
ATOM     57  C   UNL     1       4.839   3.061  23.127  0.00  0.00    +0.294 C 
ATOM     58  C   UNL     1       4.203   3.684  24.382  0.00  0.00    +0.263 C 
ATOM     59  C   UNL     1       2.697   3.470  24.296  0.00  0.00    +0.191 C 
ATOM     60  C   UNL     1       2.133   4.046  22.989  0.00  0.00    +0.172 C 
BRANCH  60  61
ATOM     61  O   UNL     1       0.783   3.594  22.834  0.00  0.00    -0.387 OA
ATOM     62  H   UNL     1       0.796   2.634  22.703  0.00  0.00    +0.210 HD
ENDBRANCH  60  61
BRANCH  59  63
ATOM     63  O   UNL     1       2.067   4.046  25.450  0.00  0.00    -0.385 OA
ATOM     64  H   UNL     1       1.107   3.931  25.348  0.00  0.00    +0.210 HD
ENDBRANCH  59  63
BRANCH  58  65
ATOM     65  O   UNL     1       4.455   5.117  24.399  0.00  0.00    -0.450 OA
BRANCH  65  66
ATOM     66  C   UNL     1       5.055   5.625  25.503  0.00  0.00    +0.332 C 
ATOM     67  O   UNL     1       4.558   5.734  26.610  0.00  0.00    -0.246 OA
BRANCH  66  68
ATOM     68  C   UNL     1       6.397   6.095  25.108  0.00  0.00    +0.092 C 
ATOM     69  C   UNL     1       7.488   5.488  25.597  0.00  0.00    +0.015 C 
BRANCH  69  70
ATOM     70  C   UNL     1       8.867   5.946  25.370  0.00  0.00    -0.025 A 
ATOM     71  C   UNL     1       9.581   6.730  26.286  0.00  0.00    +0.011 A 
ATOM     72  C   UNL     1      10.921   7.053  26.052  0.00  0.00    +0.046 A 
ATOM     73  C   UNL     1      11.548   6.604  24.899  0.00  0.00    +0.117 A 
ATOM     74  C   UNL     1      10.843   5.881  23.945  0.00  0.00    +0.046 A 
ATOM     75  C   UNL     1       9.502   5.564  24.178  0.00  0.00    +0.011 A 
BRANCH  73  76
ATOM     76  O   UNL     1      12.872   6.884  24.742  0.00  0.00    -0.507 OA
ATOM     77  H   UNL     1      13.002   7.840  24.855  0.00  0.00    +0.292 HD
ENDBRANCH  73  76
ENDBRANCH  69  70
ENDBRANCH  66  68
ENDBRANCH  65  66
ENDBRANCH  58  65
ENDBRANCH  54  57
ENDBRANCH  41  54
ENDBRANCH  40  42
ENDBRANCH   1  40
TORSDOF 26
ENDMDL
