MODEL 1
REMARK VINA RESULT:      -7.1      0.000      0.000
REMARK  Name = 
REMARK  22 active torsions:
REMARK  status: ('A' for Active; 'I' for Inactive)
REMARK    1  A    between atoms: C_1  and  C_2
REMARK    2  A    between atoms: C_3  and  O_53
REMARK    3  A    between atoms: C_4  and  O_52
REMARK    4  A    between atoms: C_5  and  O_51
REMARK    5  A    between atoms: C_6  and  O_8
REMARK    6  A    between atoms: O_8  and  C_9
REMARK    7  A    between atoms: C_10  and  O_50
REMARK    8  A    between atoms: C_11  and  O_49
REMARK    9  A    between atoms: C_12  and  C_48
REMARK   10  A    between atoms: C_14  and  O_15
REMARK   11  A    between atoms: O_15  and  C_16
REMARK   12  A    between atoms: C_16  and  C_17
REMARK   13  A    between atoms: C_18  and  O_47
REMARK   14  A    between atoms: C_19  and  O_46
REMARK   15  A    between atoms: C_20  and  O_45
REMARK   16  A    between atoms: C_21  and  O_23
REMARK   17  A    between atoms: O_23  and  C_24
REMARK   18  A    between atoms: C_25  and  C_37
REMARK   19  A    between atoms: C_29  and  O_36
REMARK   20  A    between atoms: C_31  and  O_35
REMARK   21  A    between atoms: C_39  and  O_44
REMARK   22  A    between atoms: C_40  and  O_43
REMARK                            x       y       z     vdW  Elec       q    Type
REMARK                         _______ _______ _______ _____ _____    ______ ____
ROOT
ATOM      1  C   UNL     1       3.596   0.044  28.554  0.00  0.00    +0.179 C 
ATOM      2  O   UNL     1       4.705  -0.874  28.494  0.00  0.00    -0.331 OA
ATOM      3  C   UNL     1       4.669  -1.756  27.356  0.00  0.00    +0.340 C 
ATOM      4  C   UNL     1       3.388  -2.613  27.445  0.00  0.00    +0.214 C 
ATOM      5  C   UNL     1       2.149  -1.719  27.500  0.00  0.00    +0.180 C 
ATOM      6  C   UNL     1       2.268  -0.708  28.651  0.00  0.00    +0.177 C 
ENDROOT
BRANCH   6   7
ATOM      7  O   UNL     1       1.187   0.226  28.686  0.00  0.00    -0.386 OA
ATOM      8  H   UNL     1       1.398   0.969  28.093  0.00  0.00    +0.210 HD
ENDBRANCH   6   7
BRANCH   5   9
ATOM      9  O   UNL     1       0.984  -2.533  27.681  0.00  0.00    -0.386 OA
ATOM     10  H   UNL     1       1.238  -3.427  27.367  0.00  0.00    +0.210 HD
ENDBRANCH   5   9
BRANCH   4  11
ATOM     11  O   UNL     1       3.397  -3.433  28.639  0.00  0.00    -0.383 OA
ATOM     12  H   UNL     1       2.519  -3.865  28.690  0.00  0.00    +0.210 HD
ENDBRANCH   4  11
BRANCH   3  13
ATOM     13  O   UNL     1       5.845  -2.564  27.442  0.00  0.00    -0.453 OA
BRANCH  13  14
ATOM     14  C   UNL     1       6.769  -2.552  26.411  0.00  0.00    +0.214 A 
ATOM     15  C   UNL     1       7.802  -1.476  26.307  0.00  0.00    +0.238 A 
ATOM     16  O   UNL     1       7.964  -0.672  27.220  0.00  0.00    -0.283 OA
ATOM     17  C   UNL     1       8.605  -1.424  25.080  0.00  0.00    +0.109 A 
ATOM     18  C   UNL     1       8.496  -2.489  24.188  0.00  0.00    +0.147 A 
ATOM     19  C   UNL     1       9.293  -2.529  23.046  0.00  0.00    +0.092 A 
ATOM     20  C   UNL     1      10.188  -1.487  22.796  0.00  0.00    +0.124 A 
ATOM     21  C   UNL     1      10.281  -0.403  23.660  0.00  0.00    +0.091 A 
ATOM     22  O   UNL     1       7.634  -3.541  24.382  0.00  0.00    -0.451 OA
ATOM     23  C   UNL     1       9.480  -0.366  24.799  0.00  0.00    +0.135 A 
ATOM     24  C   UNL     1       6.776  -3.530  25.475  0.00  0.00    +0.181 A 
BRANCH  24  25
ATOM     25  C   UNL     1       5.856  -4.713  25.519  0.00  0.00    +0.025 A 
ATOM     26  C   UNL     1       5.041  -5.019  24.414  0.00  0.00    +0.015 A 
ATOM     27  C   UNL     1       4.215  -6.156  24.397  0.00  0.00    +0.050 A 
ATOM     28  C   UNL     1       4.192  -6.987  25.502  0.00  0.00    +0.158 A 
ATOM     29  C   UNL     1       4.976  -6.711  26.611  0.00  0.00    +0.159 A 
ATOM     30  C   UNL     1       5.810  -5.593  26.622  0.00  0.00    +0.060 A 
BRANCH  29  31
ATOM     31  O   UNL     1       4.896  -7.563  27.677  0.00  0.00    -0.503 OA
ATOM     32  H   UNL     1       4.739  -8.458  27.332  0.00  0.00    +0.292 HD
ENDBRANCH  29  31
BRANCH  28  33
ATOM     33  O   UNL     1       3.404  -8.104  25.487  0.00  0.00    -0.503 OA
ATOM     34  H   UNL     1       3.383  -8.405  26.418  0.00  0.00    +0.292 HD
ENDBRANCH  28  33
ENDBRANCH  24  25
BRANCH  23  35
ATOM     35  O   UNL     1       9.564   0.722  25.621  0.00  0.00    -0.506 OA
ATOM     36  H   UNL     1       8.714   0.886  26.058  0.00  0.00    +0.292 HD
ENDBRANCH  23  35
BRANCH  20  37
ATOM     37  O   UNL     1      11.011  -1.475  21.710  0.00  0.00    -0.507 OA
ATOM     38  H   UNL     1      10.468  -1.432  20.903  0.00  0.00    +0.292 HD
ENDBRANCH  20  37
ENDBRANCH  13  14
ENDBRANCH   3  13
BRANCH   1  39
ATOM     39  C   UNL     1       3.629   1.078  27.407  0.00  0.00    +0.197 C 
BRANCH  39  40
ATOM     40  O   UNL     1       3.481   2.352  28.021  0.00  0.00    -0.346 OA
BRANCH  40  42
ATOM     41  C   UNL     1       5.373   2.870  26.708  0.00  0.00    +0.208 C 
ATOM     42  C   UNL     1       4.057   3.432  27.296  0.00  0.00    +0.282 C 
ATOM     43  O   UNL     1       4.238   4.593  28.110  0.00  0.00    -0.343 OA
ATOM     44  C   UNL     1       5.195   4.497  29.173  0.00  0.00    +0.149 C 
ATOM     45  C   UNL     1       4.611   3.801  30.404  0.00  0.00    +0.041 C 
ATOM     46  C   UNL     1       6.536   3.923  28.693  0.00  0.00    +0.174 C 
ATOM     47  C   UNL     1       6.339   2.636  27.888  0.00  0.00    +0.179 C 
BRANCH  47  48
ATOM     48  O   UNL     1       7.606   2.101  27.476  0.00  0.00    -0.386 OA
ATOM     49  H   UNL     1       7.527   1.126  27.538  0.00  0.00    +0.210 HD
ENDBRANCH  47  48
BRANCH  46  50
ATOM     50  O   UNL     1       7.453   3.667  29.766  0.00  0.00    -0.387 OA
ATOM     51  H   UNL     1       6.935   3.525  30.582  0.00  0.00    +0.210 HD
ENDBRANCH  46  50
BRANCH  41  52
ATOM     52  O   UNL     1       5.875   3.721  25.656  0.00  0.00    -0.338 OA
BRANCH  52  56
ATOM     53  C   UNL     1       9.289   3.264  23.224  0.00  0.00    +0.041 C 
ATOM     54  C   UNL     1       7.880   3.403  22.625  0.00  0.00    +0.149 C 
ATOM     55  O   UNL     1       6.934   3.939  23.577  0.00  0.00    -0.343 OA
ATOM     56  C   UNL     1       6.675   3.046  24.674  0.00  0.00    +0.282 C 
ATOM     57  C   UNL     1       6.023   1.758  24.116  0.00  0.00    +0.201 C 
ATOM     58  C   UNL     1       6.964   1.099  23.112  0.00  0.00    +0.179 C 
ATOM     59  C   UNL     1       7.368   2.088  22.008  0.00  0.00    +0.174 C 
BRANCH  59  60
ATOM     60  O   UNL     1       8.364   1.531  21.145  0.00  0.00    -0.387 OA
ATOM     61  H   UNL     1       8.151   1.798  20.231  0.00  0.00    +0.210 HD
ENDBRANCH  59  60
BRANCH  58  62
ATOM     62  O   UNL     1       6.340  -0.052  22.525  0.00  0.00    -0.386 OA
ATOM     63  H   UNL     1       5.419   0.219  22.329  0.00  0.00    +0.210 HD
ENDBRANCH  58  62
BRANCH  57  64
ATOM     64  O   UNL     1       4.771   2.048  23.451  0.00  0.00    -0.384 OA
ATOM     65  H   UNL     1       4.458   1.202  23.069  0.00  0.00    +0.210 HD
ENDBRANCH  57  64
ENDBRANCH  52  56
ENDBRANCH  41  52
ENDBRANCH  40  42
ENDBRANCH  39  40
ENDBRANCH   1  39
TORSDOF 20
ENDMDL
MODEL 2
REMARK VINA RESULT:      -7.0      2.985      9.930
REMARK  Name = 
REMARK  22 active torsions:
REMARK  status: ('A' for Active; 'I' for Inactive)
REMARK    1  A    between atoms: C_1  and  C_2
REMARK    2  A    between atoms: C_3  and  O_53
REMARK    3  A    between atoms: C_4  and  O_52
REMARK    4  A    between atoms: C_5  and  O_51
REMARK    5  A    between atoms: C_6  and  O_8
REMARK    6  A    between atoms: O_8  and  C_9
REMARK    7  A    between atoms: C_10  and  O_50
REMARK    8  A    between atoms: C_11  and  O_49
REMARK    9  A    between atoms: C_12  and  C_48
REMARK   10  A    between atoms: C_14  and  O_15
REMARK   11  A    between atoms: O_15  and  C_16
REMARK   12  A    between atoms: C_16  and  C_17
REMARK   13  A    between atoms: C_18  and  O_47
REMARK   14  A    between atoms: C_19  and  O_46
REMARK   15  A    between atoms: C_20  and  O_45
REMARK   16  A    between atoms: C_21  and  O_23
REMARK   17  A    between atoms: O_23  and  C_24
REMARK   18  A    between atoms: C_25  and  C_37
REMARK   19  A    between atoms: C_29  and  O_36
REMARK   20  A    between atoms: C_31  and  O_35
REMARK   21  A    between atoms: C_39  and  O_44
REMARK   22  A    between atoms: C_40  and  O_43
REMARK                            x       y       z     vdW  Elec       q    Type
REMARK                         _______ _______ _______ _____ _____    ______ ____
ROOT
ATOM      1  C   UNL     1       8.873  -1.605  25.374  0.00  0.00    +0.179 C 
ATOM      2  O   UNL     1       9.052  -0.194  25.603  0.00  0.00    -0.331 OA
ATOM      3  C   UNL     1       8.713   0.627  24.469  0.00  0.00    +0.340 C 
ATOM      4  C   UNL     1       9.644   0.246  23.297  0.00  0.00    +0.214 C 
ATOM      5  C   UNL     1       9.512  -1.242  22.972  0.00  0.00    +0.180 C 
ATOM      6  C   UNL     1       9.762  -2.090  24.228  0.00  0.00    +0.177 C 
ENDROOT
BRANCH   6   7
ATOM      7  O   UNL     1       9.546  -3.486  24.010  0.00  0.00    -0.386 OA
ATOM      8  H   UNL     1       9.211  -3.612  23.105  0.00  0.00    +0.210 HD
ENDBRANCH   6   7
BRANCH   5   9
ATOM      9  O   UNL     1      10.456  -1.590  21.951  0.00  0.00    -0.386 OA
ATOM     10  H   UNL     1       9.916  -1.879  21.183  0.00  0.00    +0.210 HD
ENDBRANCH   5   9
BRANCH   4  11
ATOM     11  O   UNL     1      11.029   0.506  23.633  0.00  0.00    -0.383 OA
ATOM     12  H   UNL     1      11.046   0.759  24.580  0.00  0.00    +0.210 HD
ENDBRANCH   4  11
BRANCH   3  13
ATOM     13  O   UNL     1       8.920   1.980  24.881  0.00  0.00    -0.453 OA
BRANCH  13  14
ATOM     14  C   UNL     1       8.061   2.974  24.443  0.00  0.00    +0.214 A 
ATOM     15  C   UNL     1       6.579   2.840  24.589  0.00  0.00    +0.238 A 
ATOM     16  O   UNL     1       6.095   1.924  25.247  0.00  0.00    -0.283 OA
ATOM     17  C   UNL     1       5.740   3.839  23.918  0.00  0.00    +0.109 A 
ATOM     18  C   UNL     1       6.371   4.952  23.365  0.00  0.00    +0.147 A 
ATOM     19  C   UNL     1       5.616   5.969  22.787  0.00  0.00    +0.092 A 
ATOM     20  C   UNL     1       4.225   5.857  22.751  0.00  0.00    +0.124 A 
ATOM     21  C   UNL     1       3.586   4.736  23.268  0.00  0.00    +0.091 A 
ATOM     22  O   UNL     1       7.736   5.117  23.372  0.00  0.00    -0.451 OA
ATOM     23  C   UNL     1       4.346   3.720  23.843  0.00  0.00    +0.135 A 
ATOM     24  C   UNL     1       8.544   4.111  23.888  0.00  0.00    +0.181 A 
BRANCH  24  25
ATOM     25  C   UNL     1      10.009   4.409  23.772  0.00  0.00    +0.025 A 
ATOM     26  C   UNL     1      10.845   3.568  23.015  0.00  0.00    +0.015 A 
ATOM     27  C   UNL     1      12.210   3.852  22.833  0.00  0.00    +0.050 A 
ATOM     28  C   UNL     1      12.746   4.982  23.424  0.00  0.00    +0.158 A 
ATOM     29  C   UNL     1      11.952   5.827  24.184  0.00  0.00    +0.159 A 
ATOM     30  C   UNL     1      10.595   5.555  24.350  0.00  0.00    +0.060 A 
BRANCH  29  31
ATOM     31  O   UNL     1      12.546   6.918  24.755  0.00  0.00    -0.503 OA
ATOM     32  H   UNL     1      12.521   6.800  25.719  0.00  0.00    +0.292 HD
ENDBRANCH  29  31
BRANCH  28  33
ATOM     33  O   UNL     1      14.068   5.274  23.238  0.00  0.00    -0.503 OA
ATOM     34  H   UNL     1      14.251   5.015  22.313  0.00  0.00    +0.292 HD
ENDBRANCH  28  33
ENDBRANCH  24  25
BRANCH  23  35
ATOM     35  O   UNL     1       3.702   2.614  24.320  0.00  0.00    -0.506 OA
ATOM     36  H   UNL     1       3.167   2.203  23.622  0.00  0.00    +0.292 HD
ENDBRANCH  23  35
BRANCH  20  37
ATOM     37  O   UNL     1       3.426   6.824  22.219  0.00  0.00    -0.507 OA
ATOM     38  H   UNL     1       2.504   6.512  22.228  0.00  0.00    +0.292 HD
ENDBRANCH  20  37
ENDBRANCH  13  14
ENDBRANCH   3  13
BRANCH   1  39
ATOM     39  C   UNL     1       7.387  -1.986  25.196  0.00  0.00    +0.197 C 
BRANCH  39  40
ATOM     40  O   UNL     1       7.379  -3.297  24.646  0.00  0.00    -0.346 OA
BRANCH  40  42
ATOM     41  C   UNL     1       6.442  -5.440  24.336  0.00  0.00    +0.208 C 
ATOM     42  C   UNL     1       6.140  -3.985  24.763  0.00  0.00    +0.282 C 
ATOM     43  O   UNL     1       5.103  -3.363  24.001  0.00  0.00    -0.343 OA
ATOM     44  C   UNL     1       5.242  -3.388  22.575  0.00  0.00    +0.149 C 
ATOM     45  C   UNL     1       6.184  -2.290  22.075  0.00  0.00    +0.041 C 
ATOM     46  C   UNL     1       5.570  -4.794  22.050  0.00  0.00    +0.174 C 
ATOM     47  C   UNL     1       6.734  -5.422  22.821  0.00  0.00    +0.179 C 
BRANCH  47  48
ATOM     48  O   UNL     1       7.044  -6.722  22.294  0.00  0.00    -0.386 OA
ATOM     49  H   UNL     1       6.322  -6.945  21.670  0.00  0.00    +0.210 HD
ENDBRANCH  47  48
BRANCH  46  50
ATOM     50  O   UNL     1       5.873  -4.814  20.648  0.00  0.00    -0.387 OA
ATOM     51  H   UNL     1       5.310  -5.491  20.224  0.00  0.00    +0.210 HD
ENDBRANCH  46  50
BRANCH  41  52
ATOM     52  O   UNL     1       5.387  -6.333  24.752  0.00  0.00    -0.338 OA
BRANCH  52  56
ATOM     53  C   UNL     1       5.709  -5.005  28.741  0.00  0.00    +0.041 C 
ATOM     54  C   UNL     1       5.343  -6.458  28.397  0.00  0.00    +0.149 C 
ATOM     55  O   UNL     1       5.674  -6.795  27.032  0.00  0.00    -0.343 OA
ATOM     56  C   UNL     1       4.878  -6.081  26.070  0.00  0.00    +0.282 C 
ATOM     57  C   UNL     1       3.397  -6.491  26.256  0.00  0.00    +0.201 C 
ATOM     58  C   UNL     1       2.942  -6.150  27.672  0.00  0.00    +0.179 C 
ATOM     59  C   UNL     1       3.873  -6.788  28.715  0.00  0.00    +0.174 C 
BRANCH  59  60
ATOM     60  O   UNL     1       3.548  -6.357  30.040  0.00  0.00    -0.387 OA
ATOM     61  H   UNL     1       2.582  -6.232  30.085  0.00  0.00    +0.210 HD
ENDBRANCH  59  60
BRANCH  58  62
ATOM     62  O   UNL     1       1.597  -6.599  27.885  0.00  0.00    -0.386 OA
ATOM     63  H   UNL     1       1.214  -6.718  26.991  0.00  0.00    +0.210 HD
ENDBRANCH  58  62
BRANCH  57  64
ATOM     64  O   UNL     1       3.214  -7.911  26.044  0.00  0.00    -0.384 OA
ATOM     65  H   UNL     1       4.105  -8.315  26.090  0.00  0.00    +0.210 HD
ENDBRANCH  57  64
ENDBRANCH  52  56
ENDBRANCH  41  52
ENDBRANCH  40  42
ENDBRANCH  39  40
ENDBRANCH   1  39
TORSDOF 20
ENDMDL
MODEL 3
REMARK VINA RESULT:      -6.9      2.909     10.021
REMARK  Name = 
REMARK  22 active torsions:
REMARK  status: ('A' for Active; 'I' for Inactive)
REMARK    1  A    between atoms: C_1  and  C_2
REMARK    2  A    between atoms: C_3  and  O_53
REMARK    3  A    between atoms: C_4  and  O_52
REMARK    4  A    between atoms: C_5  and  O_51
REMARK    5  A    between atoms: C_6  and  O_8
REMARK    6  A    between atoms: O_8  and  C_9
REMARK    7  A    between atoms: C_10  and  O_50
REMARK    8  A    between atoms: C_11  and  O_49
REMARK    9  A    between atoms: C_12  and  C_48
REMARK   10  A    between atoms: C_14  and  O_15
REMARK   11  A    between atoms: O_15  and  C_16
REMARK   12  A    between atoms: C_16  and  C_17
REMARK   13  A    between atoms: C_18  and  O_47
REMARK   14  A    between atoms: C_19  and  O_46
REMARK   15  A    between atoms: C_20  and  O_45
REMARK   16  A    between atoms: C_21  and  O_23
REMARK   17  A    between atoms: O_23  and  C_24
REMARK   18  A    between atoms: C_25  and  C_37
REMARK   19  A    between atoms: C_29  and  O_36
REMARK   20  A    between atoms: C_31  and  O_35
REMARK   21  A    between atoms: C_39  and  O_44
REMARK   22  A    between atoms: C_40  and  O_43
REMARK                            x       y       z     vdW  Elec       q    Type
REMARK                         _______ _______ _______ _____ _____    ______ ____
ROOT
ATOM      1  C   UNL     1       9.458  -0.356  25.208  0.00  0.00    +0.179 C 
ATOM      2  O   UNL     1       9.229   1.030  25.527  0.00  0.00    -0.331 OA
ATOM      3  C   UNL     1       8.301   1.686  24.642  0.00  0.00    +0.340 C 
ATOM      4  C   UNL     1       8.883   1.651  23.213  0.00  0.00    +0.214 C 
ATOM      5  C   UNL     1       9.147   0.209  22.779  0.00  0.00    +0.180 C 
ATOM      6  C   UNL     1      10.045  -0.503  23.803  0.00  0.00    +0.177 C 
ENDROOT
BRANCH   6   7
ATOM      7  O   UNL     1      10.239  -1.888  23.506  0.00  0.00    -0.386 OA
ATOM      8  H   UNL     1      10.999  -2.213  24.020  0.00  0.00    +0.210 HD
ENDBRANCH   6   7
BRANCH   5   9
ATOM      9  O   UNL     1       9.778   0.209  21.492  0.00  0.00    -0.386 OA
ATOM     10  H   UNL     1      10.431   0.940  21.521  0.00  0.00    +0.210 HD
ENDBRANCH   5   9
BRANCH   4  11
ATOM     11  O   UNL     1      10.139   2.371  23.148  0.00  0.00    -0.383 OA
ATOM     12  H   UNL     1      10.219   2.870  23.988  0.00  0.00    +0.210 HD
ENDBRANCH   4  11
BRANCH   3  13
ATOM     13  O   UNL     1       8.174   3.027  25.122  0.00  0.00    -0.453 OA
BRANCH  13  14
ATOM     14  C   UNL     1       7.291   3.900  24.508  0.00  0.00    +0.214 A 
ATOM     15  C   UNL     1       5.877   3.503  24.227  0.00  0.00    +0.238 A 
ATOM     16  O   UNL     1       5.417   2.460  24.681  0.00  0.00    -0.283 OA
ATOM     17  C   UNL     1       5.074   4.406  23.396  0.00  0.00    +0.109 A 
ATOM     18  C   UNL     1       5.607   5.657  23.093  0.00  0.00    +0.147 A 
ATOM     19  C   UNL     1       4.854   6.583  22.374  0.00  0.00    +0.092 A 
ATOM     20  C   UNL     1       3.570   6.242  21.946  0.00  0.00    +0.124 A 
ATOM     21  C   UNL     1       3.041   4.985  22.212  0.00  0.00    +0.091 A 
ATOM     22  O   UNL     1       6.863   6.049  23.488  0.00  0.00    -0.451 OA
ATOM     23  C   UNL     1       3.798   4.061  22.929  0.00  0.00    +0.135 A 
ATOM     24  C   UNL     1       7.681   5.150  24.163  0.00  0.00    +0.181 A 
BRANCH  24  25
ATOM     25  C   UNL     1       9.040   5.701  24.473  0.00  0.00    +0.025 A 
ATOM     26  C   UNL     1       9.257   6.426  25.660  0.00  0.00    +0.015 A 
ATOM     27  C   UNL     1      10.532   6.902  26.012  0.00  0.00    +0.050 A 
ATOM     28  C   UNL     1      11.597   6.663  25.163  0.00  0.00    +0.158 A 
ATOM     29  C   UNL     1      11.416   5.961  23.982  0.00  0.00    +0.159 A 
ATOM     30  C   UNL     1      10.155   5.472  23.640  0.00  0.00    +0.060 A 
BRANCH  29  31
ATOM     31  O   UNL     1      12.506   5.772  23.179  0.00  0.00    -0.503 OA
ATOM     32  H   UNL     1      12.243   5.978  22.266  0.00  0.00    +0.292 HD
ENDBRANCH  29  31
BRANCH  28  33
ATOM     33  O   UNL     1      12.843   7.108  25.507  0.00  0.00    -0.503 OA
ATOM     34  H   UNL     1      12.918   6.920  26.464  0.00  0.00    +0.292 HD
ENDBRANCH  28  33
ENDBRANCH  24  25
BRANCH  23  35
ATOM     35  O   UNL     1       3.272   2.821  23.155  0.00  0.00    -0.506 OA
ATOM     36  H   UNL     1       2.314   2.824  23.001  0.00  0.00    +0.292 HD
ENDBRANCH  23  35
BRANCH  20  37
ATOM     37  O   UNL     1       2.774   7.107  21.258  0.00  0.00    -0.507 OA
ATOM     38  H   UNL     1       2.591   6.735  20.377  0.00  0.00    +0.292 HD
ENDBRANCH  20  37
ENDBRANCH  13  14
ENDBRANCH   3  13
BRANCH   1  39
ATOM     39  C   UNL     1       8.202  -1.224  25.437  0.00  0.00    +0.197 C 
BRANCH  39  40
ATOM     40  O   UNL     1       8.668  -2.558  25.593  0.00  0.00    -0.346 OA
BRANCH  40  42
ATOM     41  C   UNL     1       8.499  -4.749  26.454  0.00  0.00    +0.208 C 
ATOM     42  C   UNL     1       7.702  -3.473  26.096  0.00  0.00    +0.282 C 
ATOM     43  O   UNL     1       6.638  -3.699  25.169  0.00  0.00    -0.343 OA
ATOM     44  C   UNL     1       6.972  -4.371  23.949  0.00  0.00    +0.149 C 
ATOM     45  C   UNL     1       7.583  -3.416  22.921  0.00  0.00    +0.041 C 
ATOM     46  C   UNL     1       7.792  -5.646  24.196  0.00  0.00    +0.174 C 
ATOM     47  C   UNL     1       8.976  -5.378  25.129  0.00  0.00    +0.179 C 
BRANCH  47  48
ATOM     48  O   UNL     1       9.745  -6.576  25.322  0.00  0.00    -0.386 OA
ATOM     49  H   UNL     1      10.676  -6.292  25.432  0.00  0.00    +0.210 HD
ENDBRANCH  47  48
BRANCH  46  50
ATOM     50  O   UNL     1       8.275  -6.247  22.988  0.00  0.00    -0.387 OA
ATOM     51  H   UNL     1       7.573  -6.828  22.634  0.00  0.00    +0.210 HD
ENDBRANCH  46  50
BRANCH  41  52
ATOM     52  O   UNL     1       7.729  -5.618  27.311  0.00  0.00    -0.338 OA
BRANCH  52  56
ATOM     53  C   UNL     1       4.545  -2.928  27.945  0.00  0.00    +0.041 C 
ATOM     54  C   UNL     1       4.766  -4.150  28.851  0.00  0.00    +0.149 C 
ATOM     55  O   UNL     1       6.098  -4.693  28.717  0.00  0.00    -0.343 OA
ATOM     56  C   UNL     1       6.341  -5.269  27.422  0.00  0.00    +0.282 C 
ATOM     57  C   UNL     1       5.379  -6.466  27.228  0.00  0.00    +0.201 C 
ATOM     58  C   UNL     1       3.934  -5.986  27.328  0.00  0.00    +0.179 C 
ATOM     59  C   UNL     1       3.695  -5.238  28.648  0.00  0.00    +0.174 C 
BRANCH  59  60
ATOM     60  O   UNL     1       2.389  -4.655  28.690  0.00  0.00    -0.387 OA
ATOM     61  H   UNL     1       2.131  -4.433  27.776  0.00  0.00    +0.210 HD
ENDBRANCH  59  60
BRANCH  58  62
ATOM     62  O   UNL     1       3.032  -7.097  27.231  0.00  0.00    -0.386 OA
ATOM     63  H   UNL     1       2.510  -6.942  26.417  0.00  0.00    +0.210 HD
ENDBRANCH  58  62
BRANCH  57  64
ATOM     64  O   UNL     1       5.596  -7.483  28.234  0.00  0.00    -0.384 OA
ATOM     65  H   UNL     1       6.303  -7.145  28.822  0.00  0.00    +0.210 HD
ENDBRANCH  57  64
ENDBRANCH  52  56
ENDBRANCH  41  52
ENDBRANCH  40  42
ENDBRANCH  39  40
ENDBRANCH   1  39
TORSDOF 20
ENDMDL
MODEL 4
REMARK VINA RESULT:      -6.8      2.294      5.819
REMARK  Name = 
REMARK  22 active torsions:
REMARK  status: ('A' for Active; 'I' for Inactive)
REMARK    1  A    between atoms: C_1  and  C_2
REMARK    2  A    between atoms: C_3  and  O_53
REMARK    3  A    between atoms: C_4  and  O_52
REMARK    4  A    between atoms: C_5  and  O_51
REMARK    5  A    between atoms: C_6  and  O_8
REMARK    6  A    between atoms: O_8  and  C_9
REMARK    7  A    between atoms: C_10  and  O_50
REMARK    8  A    between atoms: C_11  and  O_49
REMARK    9  A    between atoms: C_12  and  C_48
REMARK   10  A    between atoms: C_14  and  O_15
REMARK   11  A    between atoms: O_15  and  C_16
REMARK   12  A    between atoms: C_16  and  C_17
REMARK   13  A    between atoms: C_18  and  O_47
REMARK   14  A    between atoms: C_19  and  O_46
REMARK   15  A    between atoms: C_20  and  O_45
REMARK   16  A    between atoms: C_21  and  O_23
REMARK   17  A    between atoms: O_23  and  C_24
REMARK   18  A    between atoms: C_25  and  C_37
REMARK   19  A    between atoms: C_29  and  O_36
REMARK   20  A    between atoms: C_31  and  O_35
REMARK   21  A    between atoms: C_39  and  O_44
REMARK   22  A    between atoms: C_40  and  O_43
REMARK                            x       y       z     vdW  Elec       q    Type
REMARK                         _______ _______ _______ _____ _____    ______ ____
ROOT
ATOM      1  C   UNL     1       6.638   1.617  25.990  0.00  0.00    +0.179 C 
ATOM      2  O   UNL     1       7.204   0.312  25.766  0.00  0.00    -0.331 OA
ATOM      3  C   UNL     1       6.899  -0.641  26.802  0.00  0.00    +0.340 C 
ATOM      4  C   UNL     1       7.494  -0.123  28.129  0.00  0.00    +0.214 C 
ATOM      5  C   UNL     1       6.936   1.262  28.459  0.00  0.00    +0.180 C 
ATOM      6  C   UNL     1       7.171   2.228  27.288  0.00  0.00    +0.177 C 
ENDROOT
BRANCH   6   7
ATOM      7  O   UNL     1       6.576   3.510  27.495  0.00  0.00    -0.386 OA
ATOM      8  H   UNL     1       6.685   3.757  28.431  0.00  0.00    +0.210 HD
ENDBRANCH   6   7
BRANCH   5   9
ATOM      9  O   UNL     1       7.576   1.762  29.641  0.00  0.00    -0.386 OA
ATOM     10  H   UNL     1       8.427   1.276  29.703  0.00  0.00    +0.210 HD
ENDBRANCH   5   9
BRANCH   4  11
ATOM     11  O   UNL     1       8.935  -0.012  28.041  0.00  0.00    -0.383 OA
ATOM     12  H   UNL     1       9.164  -0.070  27.090  0.00  0.00    +0.210 HD
ENDBRANCH   4  11
BRANCH   3  13
ATOM     13  O   UNL     1       7.508  -1.872  26.403  0.00  0.00    -0.453 OA
BRANCH  13  14
ATOM     14  C   UNL     1       6.744  -2.854  25.794  0.00  0.00    +0.214 A 
ATOM     15  C   UNL     1       5.915  -3.803  26.599  0.00  0.00    +0.238 A 
ATOM     16  O   UNL     1       5.759  -3.632  27.804  0.00  0.00    -0.283 OA
ATOM     17  C   UNL     1       5.303  -4.933  25.892  0.00  0.00    +0.109 A 
ATOM     18  C   UNL     1       5.363  -4.939  24.500  0.00  0.00    +0.147 A 
ATOM     19  C   UNL     1       4.730  -5.947  23.776  0.00  0.00    +0.092 A 
ATOM     20  C   UNL     1       4.050  -6.958  24.456  0.00  0.00    +0.124 A 
ATOM     21  C   UNL     1       4.012  -6.983  25.845  0.00  0.00    +0.091 A 
ATOM     22  O   UNL     1       6.016  -3.970  23.777  0.00  0.00    -0.451 OA
ATOM     23  C   UNL     1       4.649  -5.975  26.565  0.00  0.00    +0.135 A 
ATOM     24  C   UNL     1       6.711  -2.968  24.445  0.00  0.00    +0.181 A 
BRANCH  24  25
ATOM     25  C   UNL     1       7.420  -2.022  23.524  0.00  0.00    +0.025 A 
ATOM     26  C   UNL     1       6.801  -0.823  23.125  0.00  0.00    +0.015 A 
ATOM     27  C   UNL     1       7.463   0.116  22.313  0.00  0.00    +0.050 A 
ATOM     28  C   UNL     1       8.750  -0.154  21.886  0.00  0.00    +0.158 A 
ATOM     29  C   UNL     1       9.386  -1.330  22.253  0.00  0.00    +0.159 A 
ATOM     30  C   UNL     1       8.737  -2.253  23.072  0.00  0.00    +0.060 A 
BRANCH  29  31
ATOM     31  O   UNL     1      10.652  -1.544  21.784  0.00  0.00    -0.503 OA
ATOM     32  H   UNL     1      10.598  -1.650  20.819  0.00  0.00    +0.292 HD
ENDBRANCH  29  31
BRANCH  28  33
ATOM     33  O   UNL     1       9.406   0.760  21.110  0.00  0.00    -0.503 OA
ATOM     34  H   UNL     1       8.802   1.530  21.071  0.00  0.00    +0.292 HD
ENDBRANCH  28  33
ENDBRANCH  24  25
BRANCH  23  35
ATOM     35  O   UNL     1       4.625  -6.032  27.930  0.00  0.00    -0.506 OA
ATOM     36  H   UNL     1       5.297  -6.651  28.257  0.00  0.00    +0.292 HD
ENDBRANCH  23  35
BRANCH  20  37
ATOM     37  O   UNL     1       3.393  -7.961  23.809  0.00  0.00    -0.507 OA
ATOM     38  H   UNL     1       3.941  -8.765  23.833  0.00  0.00    +0.292 HD
ENDBRANCH  20  37
ENDBRANCH  13  14
ENDBRANCH   3  13
BRANCH   1  39
ATOM     39  C   UNL     1       5.096   1.609  25.908  0.00  0.00    +0.197 C 
BRANCH  39  40
ATOM     40  O   UNL     1       4.719   2.904  25.457  0.00  0.00    -0.346 OA
BRANCH  40  42
ATOM     41  C   UNL     1       5.685   4.790  24.420  0.00  0.00    +0.208 C 
ATOM     42  C   UNL     1       5.311   3.302  24.227  0.00  0.00    +0.282 C 
ATOM     43  O   UNL     1       4.450   3.064  23.111  0.00  0.00    -0.343 OA
ATOM     44  C   UNL     1       3.246   3.837  23.043  0.00  0.00    +0.149 C 
ATOM     45  C   UNL     1       2.146   3.259  23.936  0.00  0.00    +0.041 C 
ATOM     46  C   UNL     1       3.509   5.337  23.249  0.00  0.00    +0.174 C 
ATOM     47  C   UNL     1       4.367   5.589  24.492  0.00  0.00    +0.179 C 
BRANCH  47  48
ATOM     48  O   UNL     1       4.575   6.997  24.683  0.00  0.00    -0.386 OA
ATOM     49  H   UNL     1       5.344   7.084  25.283  0.00  0.00    +0.210 HD
ENDBRANCH  47  48
BRANCH  46  50
ATOM     50  O   UNL     1       2.306   6.110  23.347  0.00  0.00    -0.387 OA
ATOM     51  H   UNL     1       2.118   6.494  22.468  0.00  0.00    +0.210 HD
ENDBRANCH  46  50
BRANCH  41  52
ATOM     52  O   UNL     1       6.618   5.226  23.409  0.00  0.00    -0.338 OA
BRANCH  52  56
ATOM     53  C   UNL     1      10.282   6.579  24.998  0.00  0.00    +0.041 C 
ATOM     54  C   UNL     1      10.153   6.118  23.537  0.00  0.00    +0.149 C 
ATOM     55  O   UNL     1       8.777   6.083  23.096  0.00  0.00    -0.343 OA
ATOM     56  C   UNL     1       8.000   5.075  23.767  0.00  0.00    +0.282 C 
ATOM     57  C   UNL     1       8.588   3.687  23.417  0.00  0.00    +0.201 C 
ATOM     58  C   UNL     1      10.044   3.616  23.869  0.00  0.00    +0.179 C 
ATOM     59  C   UNL     1      10.859   4.775  23.276  0.00  0.00    +0.174 C 
BRANCH  59  60
ATOM     60  O   UNL     1      12.187   4.807  23.808  0.00  0.00    -0.387 OA
ATOM     61  H   UNL     1      12.363   5.714  24.118  0.00  0.00    +0.210 HD
ENDBRANCH  59  60
BRANCH  58  62
ATOM     62  O   UNL     1      10.626   2.365  23.479  0.00  0.00    -0.386 OA
ATOM     63  H   UNL     1      10.623   2.367  22.499  0.00  0.00    +0.210 HD
ENDBRANCH  58  62
BRANCH  57  64
ATOM     64  O   UNL     1       8.537   3.438  21.993  0.00  0.00    -0.384 OA
ATOM     65  H   UNL     1       8.551   2.464  21.881  0.00  0.00    +0.210 HD
ENDBRANCH  57  64
ENDBRANCH  52  56
ENDBRANCH  41  52
ENDBRANCH  40  42
ENDBRANCH  39  40
ENDBRANCH   1  39
TORSDOF 20
ENDMDL
MODEL 5
REMARK VINA RESULT:      -6.8      2.193      6.791
REMARK  Name = 
REMARK  22 active torsions:
REMARK  status: ('A' for Active; 'I' for Inactive)
REMARK    1  A    between atoms: C_1  and  C_2
REMARK    2  A    between atoms: C_3  and  O_53
REMARK    3  A    between atoms: C_4  and  O_52
REMARK    4  A    between atoms: C_5  and  O_51
REMARK    5  A    between atoms: C_6  and  O_8
REMARK    6  A    between atoms: O_8  and  C_9
REMARK    7  A    between atoms: C_10  and  O_50
REMARK    8  A    between atoms: C_11  and  O_49
REMARK    9  A    between atoms: C_12  and  C_48
REMARK   10  A    between atoms: C_14  and  O_15
REMARK   11  A    between atoms: O_15  and  C_16
REMARK   12  A    between atoms: C_16  and  C_17
REMARK   13  A    between atoms: C_18  and  O_47
REMARK   14  A    between atoms: C_19  and  O_46
REMARK   15  A    between atoms: C_20  and  O_45
REMARK   16  A    between atoms: C_21  and  O_23
REMARK   17  A    between atoms: O_23  and  C_24
REMARK   18  A    between atoms: C_25  and  C_37
REMARK   19  A    between atoms: C_29  and  O_36
REMARK   20  A    between atoms: C_31  and  O_35
REMARK   21  A    between atoms: C_39  and  O_44
REMARK   22  A    between atoms: C_40  and  O_43
REMARK                            x       y       z     vdW  Elec       q    Type
REMARK                         _______ _______ _______ _____ _____    ______ ____
ROOT
ATOM      1  C   UNL     1       8.058  -2.737  24.721  0.00  0.00    +0.179 C 
ATOM      2  O   UNL     1       6.892  -3.236  25.405  0.00  0.00    -0.331 OA
ATOM      3  C   UNL     1       7.142  -3.634  26.766  0.00  0.00    +0.340 C 
ATOM      4  C   UNL     1       8.174  -4.782  26.756  0.00  0.00    +0.214 C 
ATOM      5  C   UNL     1       9.460  -4.338  26.056  0.00  0.00    +0.180 C 
ATOM      6  C   UNL     1       9.149  -3.807  24.649  0.00  0.00    +0.177 C 
ENDROOT
BRANCH   6   7
ATOM      7  O   UNL     1      10.299  -3.278  23.987  0.00  0.00    -0.386 OA
ATOM      8  H   UNL     1      10.003  -2.703  23.260  0.00  0.00    +0.210 HD
ENDBRANCH   6   7
BRANCH   5   9
ATOM      9  O   UNL     1      10.361  -5.449  25.972  0.00  0.00    -0.386 OA
ATOM     10  H   UNL     1       9.853  -6.166  25.536  0.00  0.00    +0.210 HD
ENDBRANCH   5   9
BRANCH   4  11
ATOM     11  O   UNL     1       7.658  -5.935  26.046  0.00  0.00    -0.383 OA
ATOM     12  H   UNL     1       7.977  -6.727  26.526  0.00  0.00    +0.210 HD
ENDBRANCH   4  11
BRANCH   3  13
ATOM     13  O   UNL     1       5.885  -4.067  27.291  0.00  0.00    -0.453 OA
BRANCH  13  14
ATOM     14  C   UNL     1       4.810  -4.259  26.439  0.00  0.00    +0.214 A 
ATOM     15  C   UNL     1       4.583  -5.572  25.760  0.00  0.00    +0.238 A 
ATOM     16  O   UNL     1       5.243  -6.560  26.068  0.00  0.00    -0.283 OA
ATOM     17  C   UNL     1       3.546  -5.627  24.723  0.00  0.00    +0.109 A 
ATOM     18  C   UNL     1       2.712  -4.520  24.580  0.00  0.00    +0.147 A 
ATOM     19  C   UNL     1       1.662  -4.550  23.665  0.00  0.00    +0.092 A 
ATOM     20  C   UNL     1       1.463  -5.689  22.883  0.00  0.00    +0.124 A 
ATOM     21  C   UNL     1       2.310  -6.786  22.992  0.00  0.00    +0.091 A 
ATOM     22  O   UNL     1       2.858  -3.373  25.322  0.00  0.00    -0.451 OA
ATOM     23  C   UNL     1       3.360  -6.750  23.906  0.00  0.00    +0.135 A 
ATOM     24  C   UNL     1       3.919  -3.265  26.213  0.00  0.00    +0.181 A 
BRANCH  24  25
ATOM     25  C   UNL     1       3.981  -1.936  26.903  0.00  0.00    +0.025 A 
ATOM     26  C   UNL     1       3.362  -1.757  28.154  0.00  0.00    +0.015 A 
ATOM     27  C   UNL     1       3.454  -0.543  28.857  0.00  0.00    +0.050 A 
ATOM     28  C   UNL     1       4.161   0.506  28.298  0.00  0.00    +0.158 A 
ATOM     29  C   UNL     1       4.775   0.367  27.064  0.00  0.00    +0.159 A 
ATOM     30  C   UNL     1       4.699  -0.843  26.373  0.00  0.00    +0.060 A 
BRANCH  29  31
ATOM     31  O   UNL     1       5.445   1.446  26.558  0.00  0.00    -0.503 OA
ATOM     32  H   UNL     1       4.831   1.936  25.985  0.00  0.00    +0.292 HD
ENDBRANCH  29  31
BRANCH  28  33
ATOM     33  O   UNL     1       4.269   1.684  28.983  0.00  0.00    -0.503 OA
ATOM     34  H   UNL     1       3.783   1.530  29.818  0.00  0.00    +0.292 HD
ENDBRANCH  28  33
ENDBRANCH  24  25
BRANCH  23  35
ATOM     35  O   UNL     1       4.199  -7.827  23.979  0.00  0.00    -0.506 OA
ATOM     36  H   UNL     1       3.824  -8.513  24.552  0.00  0.00    +0.292 HD
ENDBRANCH  23  35
BRANCH  20  37
ATOM     37  O   UNL     1       0.444  -5.792  21.985  0.00  0.00    -0.507 OA
ATOM     38  H   UNL     1      -0.244  -5.141  22.212  0.00  0.00    +0.292 HD
ENDBRANCH  20  37
ENDBRANCH  13  14
ENDBRANCH   3  13
BRANCH   1  39
ATOM     39  C   UNL     1       8.555  -1.399  25.310  0.00  0.00    +0.197 C 
BRANCH  39  40
ATOM     40  O   UNL     1       8.092  -0.384  24.429  0.00  0.00    -0.346 OA
BRANCH  40  42
ATOM     41  C   UNL     1       7.509   1.840  23.896  0.00  0.00    +0.208 C 
ATOM     42  C   UNL     1       8.262   0.944  24.907  0.00  0.00    +0.282 C 
ATOM     43  O   UNL     1       9.640   1.288  25.068  0.00  0.00    -0.343 OA
ATOM     44  C   UNL     1      10.431   1.374  23.876  0.00  0.00    +0.149 C 
ATOM     45  C   UNL     1      10.894  -0.005  23.399  0.00  0.00    +0.041 C 
ATOM     46  C   UNL     1       9.754   2.227  22.793  0.00  0.00    +0.174 C 
ATOM     47  C   UNL     1       8.300   1.800  22.572  0.00  0.00    +0.179 C 
BRANCH  47  48
ATOM     48  O   UNL     1       7.697   2.590  21.535  0.00  0.00    -0.386 OA
ATOM     49  H   UNL     1       6.827   2.880  21.880  0.00  0.00    +0.210 HD
ENDBRANCH  47  48
BRANCH  46  50
ATOM     50  O   UNL     1      10.447   2.195  21.538  0.00  0.00    -0.387 OA
ATOM     51  H   UNL     1      11.406   2.139  21.721  0.00  0.00    +0.210 HD
ENDBRANCH  46  50
BRANCH  41  52
ATOM     52  O   UNL     1       7.279   3.156  24.440  0.00  0.00    -0.338 OA
BRANCH  52  56
ATOM     53  C   UNL     1       3.080   2.987  24.778  0.00  0.00    +0.041 C 
ATOM     54  C   UNL     1       3.781   3.040  23.411  0.00  0.00    +0.149 C 
ATOM     55  O   UNL     1       5.181   2.694  23.504  0.00  0.00    -0.343 OA
ATOM     56  C   UNL     1       5.949   3.660  24.240  0.00  0.00    +0.282 C 
ATOM     57  C   UNL     1       5.902   5.009  23.482  0.00  0.00    +0.201 C 
ATOM     58  C   UNL     1       4.454   5.475  23.354  0.00  0.00    +0.179 C 
ATOM     59  C   UNL     1       3.585   4.391  22.698  0.00  0.00    +0.174 C 
BRANCH  59  60
ATOM     60  O   UNL     1       2.201   4.754  22.706  0.00  0.00    -0.387 OA
ATOM     61  H   UNL     1       1.815   4.481  21.853  0.00  0.00    +0.210 HD
ENDBRANCH  59  60
BRANCH  58  62
ATOM     62  O   UNL     1       4.386   6.682  22.582  0.00  0.00    -0.386 OA
ATOM     63  H   UNL     1       3.780   7.275  23.073  0.00  0.00    +0.210 HD
ENDBRANCH  58  62
BRANCH  57  64
ATOM     64  O   UNL     1       6.464   4.886  22.154  0.00  0.00    -0.384 OA
ATOM     65  H   UNL     1       5.969   5.511  21.585  0.00  0.00    +0.210 HD
ENDBRANCH  57  64
ENDBRANCH  52  56
ENDBRANCH  41  52
ENDBRANCH  40  42
ENDBRANCH  39  40
ENDBRANCH   1  39
TORSDOF 20
ENDMDL
MODEL 6
REMARK VINA RESULT:      -6.8      2.410      6.173
REMARK  Name = 
REMARK  22 active torsions:
REMARK  status: ('A' for Active; 'I' for Inactive)
REMARK    1  A    between atoms: C_1  and  C_2
REMARK    2  A    between atoms: C_3  and  O_53
REMARK    3  A    between atoms: C_4  and  O_52
REMARK    4  A    between atoms: C_5  and  O_51
REMARK    5  A    between atoms: C_6  and  O_8
REMARK    6  A    between atoms: O_8  and  C_9
REMARK    7  A    between atoms: C_10  and  O_50
REMARK    8  A    between atoms: C_11  and  O_49
REMARK    9  A    between atoms: C_12  and  C_48
REMARK   10  A    between atoms: C_14  and  O_15
REMARK   11  A    between atoms: O_15  and  C_16
REMARK   12  A    between atoms: C_16  and  C_17
REMARK   13  A    between atoms: C_18  and  O_47
REMARK   14  A    between atoms: C_19  and  O_46
REMARK   15  A    between atoms: C_20  and  O_45
REMARK   16  A    between atoms: C_21  and  O_23
REMARK   17  A    between atoms: O_23  and  C_24
REMARK   18  A    between atoms: C_25  and  C_37
REMARK   19  A    between atoms: C_29  and  O_36
REMARK   20  A    between atoms: C_31  and  O_35
REMARK   21  A    between atoms: C_39  and  O_44
REMARK   22  A    between atoms: C_40  and  O_43
REMARK                            x       y       z     vdW  Elec       q    Type
REMARK                         _______ _______ _______ _____ _____    ______ ____
ROOT
ATOM      1  C   UNL     1       8.341  -0.723  22.860  0.00  0.00    +0.179 C 
ATOM      2  O   UNL     1       7.067  -1.136  23.391  0.00  0.00    -0.331 OA
ATOM      3  C   UNL     1       7.135  -1.650  24.734  0.00  0.00    +0.340 C 
ATOM      4  C   UNL     1       8.040  -2.901  24.731  0.00  0.00    +0.214 C 
ATOM      5  C   UNL     1       9.428  -2.554  24.193  0.00  0.00    +0.180 C 
ATOM      6  C   UNL     1       9.318  -1.899  22.808  0.00  0.00    +0.177 C 
ENDROOT
BRANCH   6   7
ATOM      7  O   UNL     1      10.578  -1.455  22.301  0.00  0.00    -0.386 OA
ATOM      8  H   UNL     1      11.217  -2.185  22.371  0.00  0.00    +0.210 HD
ENDBRANCH   6   7
BRANCH   5   9
ATOM      9  O   UNL     1      10.216  -3.749  24.108  0.00  0.00    -0.386 OA
ATOM     10  H   UNL     1       9.712  -4.353  23.520  0.00  0.00    +0.210 HD
ENDBRANCH   5   9
BRANCH   4  11
ATOM     11  O   UNL     1       7.483  -3.939  23.888  0.00  0.00    -0.383 OA
ATOM     12  H   UNL     1       8.057  -3.995  23.096  0.00  0.00    +0.210 HD
ENDBRANCH   4  11
BRANCH   3  13
ATOM     13  O   UNL     1       5.792  -1.978  25.103  0.00  0.00    -0.453 OA
BRANCH  13  14
ATOM     14  C   UNL     1       5.164  -1.274  26.117  0.00  0.00    +0.214 A 
ATOM     15  C   UNL     1       4.844   0.179  25.970  0.00  0.00    +0.238 A 
ATOM     16  O   UNL     1       4.979   0.745  24.890  0.00  0.00    -0.283 OA
ATOM     17  C   UNL     1       4.366   0.890  27.162  0.00  0.00    +0.109 A 
ATOM     18  C   UNL     1       4.051   0.132  28.288  0.00  0.00    +0.147 A 
ATOM     19  C   UNL     1       3.519   0.747  29.419  0.00  0.00    +0.092 A 
ATOM     20  C   UNL     1       3.320   2.129  29.420  0.00  0.00    +0.124 A 
ATOM     21  C   UNL     1       3.663   2.900  28.316  0.00  0.00    +0.091 A 
ATOM     22  O   UNL     1       4.224  -1.230  28.344  0.00  0.00    -0.451 OA
ATOM     23  C   UNL     1       4.198   2.281  27.189  0.00  0.00    +0.135 A 
ATOM     24  C   UNL     1       4.800  -1.892  27.265  0.00  0.00    +0.181 A 
BRANCH  24  25
ATOM     25  C   UNL     1       4.978  -3.362  27.498  0.00  0.00    +0.025 A 
ATOM     26  C   UNL     1       3.855  -4.195  27.660  0.00  0.00    +0.015 A 
ATOM     27  C   UNL     1       3.984  -5.587  27.817  0.00  0.00    +0.050 A 
ATOM     28  C   UNL     1       5.248  -6.148  27.826  0.00  0.00    +0.158 A 
ATOM     29  C   UNL     1       6.375  -5.355  27.678  0.00  0.00    +0.159 A 
ATOM     30  C   UNL     1       6.248  -3.977  27.504  0.00  0.00    +0.060 A 
BRANCH  29  31
ATOM     31  O   UNL     1       7.596  -5.969  27.711  0.00  0.00    -0.503 OA
ATOM     32  H   UNL     1       8.219  -5.422  27.202  0.00  0.00    +0.292 HD
ENDBRANCH  29  31
BRANCH  28  33
ATOM     33  O   UNL     1       5.381  -7.502  27.961  0.00  0.00    -0.503 OA
ATOM     34  H   UNL     1       5.770  -7.798  27.113  0.00  0.00    +0.292 HD
ENDBRANCH  28  33
ENDBRANCH  24  25
BRANCH  23  35
ATOM     35  O   UNL     1       4.555   3.059  26.125  0.00  0.00    -0.506 OA
ATOM     36  H   UNL     1       5.031   3.850  26.425  0.00  0.00    +0.292 HD
ENDBRANCH  23  35
BRANCH  20  37
ATOM     37  O   UNL     1       2.785   2.790  30.485  0.00  0.00    -0.507 OA
ATOM     38  H   UNL     1       3.404   3.486  30.768  0.00  0.00    +0.292 HD
ENDBRANCH  20  37
ENDBRANCH  13  14
ENDBRANCH   3  13
BRANCH   1  39
ATOM     39  C   UNL     1       8.910   0.510  23.596  0.00  0.00    +0.197 C 
BRANCH  39  40
ATOM     40  O   UNL     1       8.290   1.644  23.004  0.00  0.00    -0.346 OA
BRANCH  40  42
ATOM     41  C   UNL     1       6.847   3.510  23.030  0.00  0.00    +0.208 C 
ATOM     42  C   UNL     1       7.601   2.491  23.915  0.00  0.00    +0.282 C 
ATOM     43  O   UNL     1       8.483   3.093  24.865  0.00  0.00    -0.343 OA
ATOM     44  C   UNL     1       9.437   4.034  24.359  0.00  0.00    +0.149 C 
ATOM     45  C   UNL     1      10.660   3.337  23.758  0.00  0.00    +0.041 C 
ATOM     46  C   UNL     1       8.788   5.081  23.443  0.00  0.00    +0.174 C 
ATOM     47  C   UNL     1       7.906   4.423  22.378  0.00  0.00    +0.179 C 
BRANCH  47  48
ATOM     48  O   UNL     1       7.333   5.418  21.514  0.00  0.00    -0.386 OA
ATOM     49  H   UNL     1       6.750   5.968  22.076  0.00  0.00    +0.210 HD
ENDBRANCH  47  48
BRANCH  46  50
ATOM     50  O   UNL     1       9.743   5.933  22.797  0.00  0.00    -0.387 OA
ATOM     51  H   UNL     1       9.552   5.934  21.839  0.00  0.00    +0.210 HD
ENDBRANCH  46  50
BRANCH  41  52
ATOM     52  O   UNL     1       5.822   4.192  23.783  0.00  0.00    -0.338 OA
BRANCH  52  56
ATOM     53  C   UNL     1       3.077   6.880  22.047  0.00  0.00    +0.041 C 
ATOM     54  C   UNL     1       2.644   5.850  23.103  0.00  0.00    +0.149 C 
ATOM     55  O   UNL     1       3.769   5.322  23.840  0.00  0.00    -0.343 OA
ATOM     56  C   UNL     1       4.647   4.524  23.027  0.00  0.00    +0.282 C 
ATOM     57  C   UNL     1       3.862   3.290  22.521  0.00  0.00    +0.201 C 
ATOM     58  C   UNL     1       2.658   3.747  21.702  0.00  0.00    +0.179 C 
ATOM     59  C   UNL     1       1.784   4.719  22.509  0.00  0.00    +0.174 C 
BRANCH  59  60
ATOM     60  O   UNL     1       0.736   5.270  21.706  0.00  0.00    -0.387 OA
ATOM     61  H   UNL     1       0.224   5.885  22.263  0.00  0.00    +0.210 HD
ENDBRANCH  59  60
BRANCH  58  62
ATOM     62  O   UNL     1       1.875   2.617  21.294  0.00  0.00    -0.386 OA
ATOM     63  H   UNL     1       1.824   2.671  20.317  0.00  0.00    +0.210 HD
ENDBRANCH  58  62
BRANCH  57  64
ATOM     64  O   UNL     1       3.388   2.480  23.622  0.00  0.00    -0.384 OA
ATOM     65  H   UNL     1       2.417   2.407  23.514  0.00  0.00    +0.210 HD
ENDBRANCH  57  64
ENDBRANCH  52  56
ENDBRANCH  41  52
ENDBRANCH  40  42
ENDBRANCH  39  40
ENDBRANCH   1  39
TORSDOF 20
ENDMDL
MODEL 7
REMARK VINA RESULT:      -6.8      2.178      6.925
REMARK  Name = 
REMARK  22 active torsions:
REMARK  status: ('A' for Active; 'I' for Inactive)
REMARK    1  A    between atoms: C_1  and  C_2
REMARK    2  A    between atoms: C_3  and  O_53
REMARK    3  A    between atoms: C_4  and  O_52
REMARK    4  A    between atoms: C_5  and  O_51
REMARK    5  A    between atoms: C_6  and  O_8
REMARK    6  A    between atoms: O_8  and  C_9
REMARK    7  A    between atoms: C_10  and  O_50
REMARK    8  A    between atoms: C_11  and  O_49
REMARK    9  A    between atoms: C_12  and  C_48
REMARK   10  A    between atoms: C_14  and  O_15
REMARK   11  A    between atoms: O_15  and  C_16
REMARK   12  A    between atoms: C_16  and  C_17
REMARK   13  A    between atoms: C_18  and  O_47
REMARK   14  A    between atoms: C_19  and  O_46
REMARK   15  A    between atoms: C_20  and  O_45
REMARK   16  A    between atoms: C_21  and  O_23
REMARK   17  A    between atoms: O_23  and  C_24
REMARK   18  A    between atoms: C_25  and  C_37
REMARK   19  A    between atoms: C_29  and  O_36
REMARK   20  A    between atoms: C_31  and  O_35
REMARK   21  A    between atoms: C_39  and  O_44
REMARK   22  A    between atoms: C_40  and  O_43
REMARK                            x       y       z     vdW  Elec       q    Type
REMARK                         _______ _______ _______ _____ _____    ______ ____
ROOT
ATOM      1  C   UNL     1       8.183  -2.812  24.851  0.00  0.00    +0.179 C 
ATOM      2  O   UNL     1       7.009  -3.321  25.513  0.00  0.00    -0.331 OA
ATOM      3  C   UNL     1       7.258  -3.812  26.844  0.00  0.00    +0.340 C 
ATOM      4  C   UNL     1       8.257  -4.986  26.751  0.00  0.00    +0.214 C 
ATOM      5  C   UNL     1       9.549  -4.534  26.069  0.00  0.00    +0.180 C 
ATOM      6  C   UNL     1       9.243  -3.905  24.701  0.00  0.00    +0.177 C 
ENDROOT
BRANCH   6   7
ATOM      7  O   UNL     1      10.402  -3.367  24.063  0.00  0.00    -0.386 OA
ATOM      8  H   UNL     1      10.826  -2.734  24.669  0.00  0.00    +0.210 HD
ENDBRANCH   6   7
BRANCH   5   9
ATOM      9  O   UNL     1      10.419  -5.661  25.906  0.00  0.00    -0.386 OA
ATOM     10  H   UNL     1      11.242  -5.429  26.386  0.00  0.00    +0.210 HD
ENDBRANCH   5   9
BRANCH   4  11
ATOM     11  O   UNL     1       7.703  -6.075  25.974  0.00  0.00    -0.383 OA
ATOM     12  H   UNL     1       7.590  -6.830  26.589  0.00  0.00    +0.210 HD
ENDBRANCH   4  11
BRANCH   3  13
ATOM     13  O   UNL     1       5.993  -4.243  27.352  0.00  0.00    -0.453 OA
BRANCH  13  14
ATOM     14  C   UNL     1       4.908  -4.354  26.499  0.00  0.00    +0.214 A 
ATOM     15  C   UNL     1       4.583  -5.647  25.821  0.00  0.00    +0.238 A 
ATOM     16  O   UNL     1       5.167  -6.681  26.130  0.00  0.00    -0.283 OA
ATOM     17  C   UNL     1       3.546  -5.624  24.783  0.00  0.00    +0.109 A 
ATOM     18  C   UNL     1       2.798  -4.458  24.638  0.00  0.00    +0.147 A 
ATOM     19  C   UNL     1       1.749  -4.409  23.722  0.00  0.00    +0.092 A 
ATOM     20  C   UNL     1       1.467  -5.531  22.940  0.00  0.00    +0.124 A 
ATOM     21  C   UNL     1       2.228  -6.688  23.051  0.00  0.00    +0.091 A 
ATOM     22  O   UNL     1       3.029  -3.324  25.379  0.00  0.00    -0.451 OA
ATOM     23  C   UNL     1       3.277  -6.731  23.966  0.00  0.00    +0.135 A 
ATOM     24  C   UNL     1       4.095  -3.296  26.271  0.00  0.00    +0.181 A 
BRANCH  24  25
ATOM     25  C   UNL     1       4.256  -1.975  26.960  0.00  0.00    +0.025 A 
ATOM     26  C   UNL     1       4.735  -0.858  26.250  0.00  0.00    +0.015 A 
ATOM     27  C   UNL     1       4.839   0.410  26.848  0.00  0.00    +0.050 A 
ATOM     28  C   UNL     1       4.473   0.560  28.173  0.00  0.00    +0.158 A 
ATOM     29  C   UNL     1       4.006  -0.521  28.905  0.00  0.00    +0.159 A 
ATOM     30  C   UNL     1       3.886  -1.775  28.307  0.00  0.00    +0.060 A 
BRANCH  29  31
ATOM     31  O   UNL     1       3.676  -0.310  30.215  0.00  0.00    -0.503 OA
ATOM     32  H   UNL     1       4.433  -0.584  30.760  0.00  0.00    +0.292 HD
ENDBRANCH  29  31
BRANCH  28  33
ATOM     33  O   UNL     1       4.555   1.793  28.758  0.00  0.00    -0.503 OA
ATOM     34  H   UNL     1       5.308   2.229  28.310  0.00  0.00    +0.292 HD
ENDBRANCH  28  33
ENDBRANCH  24  25
BRANCH  23  35
ATOM     35  O   UNL     1       4.032  -7.867  24.041  0.00  0.00    -0.506 OA
ATOM     36  H   UNL     1       4.826  -7.786  23.489  0.00  0.00    +0.292 HD
ENDBRANCH  23  35
BRANCH  20  37
ATOM     37  O   UNL     1       0.443  -5.557  22.041  0.00  0.00    -0.507 OA
ATOM     38  H   UNL     1      -0.392  -5.375  22.508  0.00  0.00    +0.292 HD
ENDBRANCH  20  37
ENDBRANCH  13  14
ENDBRANCH   3  13
BRANCH   1  39
ATOM     39  C   UNL     1       8.723  -1.529  25.520  0.00  0.00    +0.197 C 
BRANCH  39  40
ATOM     40  O   UNL     1       8.271  -0.446  24.716  0.00  0.00    -0.346 OA
BRANCH  40  42
ATOM     41  C   UNL     1       8.212   1.895  24.428  0.00  0.00    +0.208 C 
ATOM     42  C   UNL     1       9.135   0.684  24.699  0.00  0.00    +0.282 C 
ATOM     43  O   UNL     1      10.194   0.541  23.750  0.00  0.00    -0.343 OA
ATOM     44  C   UNL     1       9.825   0.518  22.366  0.00  0.00    +0.149 C 
ATOM     45  C   UNL     1       9.332  -0.865  21.931  0.00  0.00    +0.041 C 
ATOM     46  C   UNL     1       8.883   1.673  21.998  0.00  0.00    +0.174 C 
ATOM     47  C   UNL     1       7.708   1.770  22.975  0.00  0.00    +0.179 C 
BRANCH  47  48
ATOM     48  O   UNL     1       6.825   2.837  22.595  0.00  0.00    -0.386 OA
ATOM     49  H   UNL     1       6.918   2.941  21.625  0.00  0.00    +0.210 HD
ENDBRANCH  47  48
BRANCH  46  50
ATOM     50  O   UNL     1       8.373   1.579  20.661  0.00  0.00    -0.387 OA
ATOM     51  H   UNL     1       7.587   2.157  20.593  0.00  0.00    +0.210 HD
ENDBRANCH  46  50
BRANCH  41  52
ATOM     52  O   UNL     1       8.876   3.135  24.748  0.00  0.00    -0.338 OA
BRANCH  52  56
ATOM     53  C   UNL     1       7.517   7.105  25.160  0.00  0.00    +0.041 C 
ATOM     54  C   UNL     1       8.045   6.301  26.359  0.00  0.00    +0.149 C 
ATOM     55  O   UNL     1       8.812   5.149  25.946  0.00  0.00    -0.343 OA
ATOM     56  C   UNL     1       8.015   4.153  25.282  0.00  0.00    +0.282 C 
ATOM     57  C   UNL     1       6.963   3.617  26.283  0.00  0.00    +0.201 C 
ATOM     58  C   UNL     1       6.079   4.765  26.762  0.00  0.00    +0.179 C 
ATOM     59  C   UNL     1       6.928   5.905  27.344  0.00  0.00    +0.174 C 
BRANCH  59  60
ATOM     60  O   UNL     1       6.125   7.047  27.660  0.00  0.00    -0.387 OA
ATOM     61  H   UNL     1       6.175   7.190  28.623  0.00  0.00    +0.210 HD
ENDBRANCH  59  60
BRANCH  58  62
ATOM     62  O   UNL     1       5.151   4.299  27.751  0.00  0.00    -0.386 OA
ATOM     63  H   UNL     1       5.406   3.371  27.935  0.00  0.00    +0.210 HD
ENDBRANCH  58  62
BRANCH  57  64
ATOM     64  O   UNL     1       7.594   3.011  27.436  0.00  0.00    -0.384 OA
ATOM     65  H   UNL     1       7.923   3.749  27.991  0.00  0.00    +0.210 HD
ENDBRANCH  57  64
ENDBRANCH  52  56
ENDBRANCH  41  52
ENDBRANCH  40  42
ENDBRANCH  39  40
ENDBRANCH   1  39
TORSDOF 20
ENDMDL
MODEL 8
REMARK VINA RESULT:      -6.8      2.801      6.226
REMARK  Name = 
REMARK  22 active torsions:
REMARK  status: ('A' for Active; 'I' for Inactive)
REMARK    1  A    between atoms: C_1  and  C_2
REMARK    2  A    between atoms: C_3  and  O_53
REMARK    3  A    between atoms: C_4  and  O_52
REMARK    4  A    between atoms: C_5  and  O_51
REMARK    5  A    between atoms: C_6  and  O_8
REMARK    6  A    between atoms: O_8  and  C_9
REMARK    7  A    between atoms: C_10  and  O_50
REMARK    8  A    between atoms: C_11  and  O_49
REMARK    9  A    between atoms: C_12  and  C_48
REMARK   10  A    between atoms: C_14  and  O_15
REMARK   11  A    between atoms: O_15  and  C_16
REMARK   12  A    between atoms: C_16  and  C_17
REMARK   13  A    between atoms: C_18  and  O_47
REMARK   14  A    between atoms: C_19  and  O_46
REMARK   15  A    between atoms: C_20  and  O_45
REMARK   16  A    between atoms: C_21  and  O_23
REMARK   17  A    between atoms: O_23  and  C_24
REMARK   18  A    between atoms: C_25  and  C_37
REMARK   19  A    between atoms: C_29  and  O_36
REMARK   20  A    between atoms: C_31  and  O_35
REMARK   21  A    between atoms: C_39  and  O_44
REMARK   22  A    between atoms: C_40  and  O_43
REMARK                            x       y       z     vdW  Elec       q    Type
REMARK                         _______ _______ _______ _____ _____    ______ ____
ROOT
ATOM      1  C   UNL     1       5.687   2.246  25.821  0.00  0.00    +0.179 C 
ATOM      2  O   UNL     1       6.561   1.104  25.733  0.00  0.00    -0.331 OA
ATOM      3  C   UNL     1       6.237   0.050  26.659  0.00  0.00    +0.340 C 
ATOM      4  C   UNL     1       6.374   0.604  28.094  0.00  0.00    +0.214 C 
ATOM      5  C   UNL     1       5.466   1.818  28.287  0.00  0.00    +0.180 C 
ATOM      6  C   UNL     1       5.752   2.878  27.212  0.00  0.00    +0.177 C 
ENDROOT
BRANCH   6   7
ATOM      7  O   UNL     1       4.859   3.992  27.276  0.00  0.00    -0.386 OA
ATOM      8  H   UNL     1       4.958   4.421  28.145  0.00  0.00    +0.210 HD
ENDBRANCH   6   7
BRANCH   5   9
ATOM      9  O   UNL     1       5.685   2.372  29.591  0.00  0.00    -0.386 OA
ATOM     10  H   UNL     1       6.652   2.307  29.743  0.00  0.00    +0.210 HD
ENDBRANCH   5   9
BRANCH   4  11
ATOM     11  O   UNL     1       7.736   1.021  28.358  0.00  0.00    -0.383 OA
ATOM     12  H   UNL     1       7.685   1.926  28.731  0.00  0.00    +0.210 HD
ENDBRANCH   4  11
BRANCH   3  13
ATOM     13  O   UNL     1       7.176  -1.000  26.412  0.00  0.00    -0.453 OA
BRANCH  13  14
ATOM     14  C   UNL     1       7.021  -1.819  25.307  0.00  0.00    +0.214 A 
ATOM     15  C   UNL     1       6.033  -2.942  25.306  0.00  0.00    +0.238 A 
ATOM     16  O   UNL     1       5.221  -3.063  26.218  0.00  0.00    -0.283 OA
ATOM     17  C   UNL     1       6.078  -3.881  24.180  0.00  0.00    +0.109 A 
ATOM     18  C   UNL     1       6.890  -3.557  23.095  0.00  0.00    +0.147 A 
ATOM     19  C   UNL     1       6.909  -4.373  21.966  0.00  0.00    +0.092 A 
ATOM     20  C   UNL     1       6.121  -5.525  21.938  0.00  0.00    +0.124 A 
ATOM     21  C   UNL     1       5.333  -5.878  23.027  0.00  0.00    +0.091 A 
ATOM     22  O   UNL     1       7.685  -2.436  23.066  0.00  0.00    -0.451 OA
ATOM     23  C   UNL     1       5.321  -5.060  24.155  0.00  0.00    +0.135 A 
ATOM     24  C   UNL     1       7.748  -1.612  24.184  0.00  0.00    +0.181 A 
BRANCH  24  25
ATOM     25  C   UNL     1       8.701  -0.467  24.023  0.00  0.00    +0.025 A 
ATOM     26  C   UNL     1       9.767  -0.299  24.926  0.00  0.00    +0.015 A 
ATOM     27  C   UNL     1      10.716   0.727  24.768  0.00  0.00    +0.050 A 
ATOM     28  C   UNL     1      10.589   1.601  23.705  0.00  0.00    +0.158 A 
ATOM     29  C   UNL     1       9.545   1.471  22.802  0.00  0.00    +0.159 A 
ATOM     30  C   UNL     1       8.614   0.443  22.948  0.00  0.00    +0.060 A 
BRANCH  29  31
ATOM     31  O   UNL     1       9.467   2.378  21.782  0.00  0.00    -0.503 OA
ATOM     32  H   UNL     1       8.550   2.383  21.458  0.00  0.00    +0.292 HD
ENDBRANCH  29  31
BRANCH  28  33
ATOM     33  O   UNL     1      11.516   2.591  23.535  0.00  0.00    -0.503 OA
ATOM     34  H   UNL     1      12.303   2.281  24.027  0.00  0.00    +0.292 HD
ENDBRANCH  28  33
ENDBRANCH  24  25
BRANCH  23  35
ATOM     35  O   UNL     1       4.562  -5.439  25.227  0.00  0.00    -0.506 OA
ATOM     36  H   UNL     1       3.682  -5.725  24.937  0.00  0.00    +0.292 HD
ENDBRANCH  23  35
BRANCH  20  37
ATOM     37  O   UNL     1       6.077  -6.355  20.858  0.00  0.00    -0.507 OA
ATOM     38  H   UNL     1       6.842  -6.957  20.891  0.00  0.00    +0.292 HD
ENDBRANCH  20  37
ENDBRANCH  13  14
ENDBRANCH   3  13
BRANCH   1  39
ATOM     39  C   UNL     1       4.247   1.917  25.368  0.00  0.00    +0.197 C 
BRANCH  39  40
ATOM     40  O   UNL     1       3.755   3.093  24.737  0.00  0.00    -0.346 OA
BRANCH  40  42
ATOM     41  C   UNL     1       4.624   5.143  23.956  0.00  0.00    +0.208 C 
ATOM     42  C   UNL     1       4.594   3.616  23.714  0.00  0.00    +0.282 C 
ATOM     43  O   UNL     1       4.146   3.248  22.407  0.00  0.00    -0.343 OA
ATOM     44  C   UNL     1       2.894   3.792  21.973  0.00  0.00    +0.149 C 
ATOM     45  C   UNL     1       1.706   3.005  22.534  0.00  0.00    +0.041 C 
ATOM     46  C   UNL     1       2.813   5.309  22.196  0.00  0.00    +0.174 C 
ATOM     47  C   UNL     1       3.219   5.688  23.623  0.00  0.00    +0.179 C 
BRANCH  47  48
ATOM     48  O   UNL     1       3.108   7.107  23.818  0.00  0.00    -0.386 OA
ATOM     49  H   UNL     1       4.024   7.453  23.854  0.00  0.00    +0.210 HD
ENDBRANCH  47  48
BRANCH  46  50
ATOM     50  O   UNL     1       1.514   5.849  21.921  0.00  0.00    -0.387 OA
ATOM     51  H   UNL     1       1.286   6.475  22.636  0.00  0.00    +0.210 HD
ENDBRANCH  46  50
BRANCH  41  52
ATOM     52  O   UNL     1       5.714   5.760  23.240  0.00  0.00    -0.338 OA
BRANCH  52  56
ATOM     53  C   UNL     1       8.130   6.266  26.657  0.00  0.00    +0.041 C 
ATOM     54  C   UNL     1       8.337   7.106  25.387  0.00  0.00    +0.149 C 
ATOM     55  O   UNL     1       7.188   7.064  24.513  0.00  0.00    -0.343 OA
ATOM     56  C   UNL     1       6.965   5.762  23.943  0.00  0.00    +0.282 C 
ATOM     57  C   UNL     1       8.180   5.401  23.054  0.00  0.00    +0.201 C 
ATOM     58  C   UNL     1       9.451   5.394  23.900  0.00  0.00    +0.179 C 
ATOM     59  C   UNL     1       9.627   6.732  24.634  0.00  0.00    +0.174 C 
BRANCH  59  60
ATOM     60  O   UNL     1      10.731   6.689  25.543  0.00  0.00    -0.387 OA
ATOM     61  H   UNL     1      11.552   6.742  25.019  0.00  0.00    +0.210 HD
ENDBRANCH  59  60
BRANCH  58  62
ATOM     62  O   UNL     1      10.596   5.141  23.075  0.00  0.00    -0.386 OA
ATOM     63  H   UNL     1      10.551   5.799  22.351  0.00  0.00    +0.210 HD
ENDBRANCH  58  62
BRANCH  57  64
ATOM     64  O   UNL     1       8.348   6.354  21.979  0.00  0.00    -0.384 OA
ATOM     65  H   UNL     1       7.934   5.953  21.187  0.00  0.00    +0.210 HD
ENDBRANCH  57  64
ENDBRANCH  52  56
ENDBRANCH  41  52
ENDBRANCH  40  42
ENDBRANCH  39  40
ENDBRANCH   1  39
TORSDOF 20
ENDMDL
MODEL 9
REMARK VINA RESULT:      -6.7      2.473      8.909
REMARK  Name = 
REMARK  22 active torsions:
REMARK  status: ('A' for Active; 'I' for Inactive)
REMARK    1  A    between atoms: C_1  and  C_2
REMARK    2  A    between atoms: C_3  and  O_53
REMARK    3  A    between atoms: C_4  and  O_52
REMARK    4  A    between atoms: C_5  and  O_51
REMARK    5  A    between atoms: C_6  and  O_8
REMARK    6  A    between atoms: O_8  and  C_9
REMARK    7  A    between atoms: C_10  and  O_50
REMARK    8  A    between atoms: C_11  and  O_49
REMARK    9  A    between atoms: C_12  and  C_48
REMARK   10  A    between atoms: C_14  and  O_15
REMARK   11  A    between atoms: O_15  and  C_16
REMARK   12  A    between atoms: C_16  and  C_17
REMARK   13  A    between atoms: C_18  and  O_47
REMARK   14  A    between atoms: C_19  and  O_46
REMARK   15  A    between atoms: C_20  and  O_45
REMARK   16  A    between atoms: C_21  and  O_23
REMARK   17  A    between atoms: O_23  and  C_24
REMARK   18  A    between atoms: C_25  and  C_37
REMARK   19  A    between atoms: C_29  and  O_36
REMARK   20  A    between atoms: C_31  and  O_35
REMARK   21  A    between atoms: C_39  and  O_44
REMARK   22  A    between atoms: C_40  and  O_43
REMARK                            x       y       z     vdW  Elec       q    Type
REMARK                         _______ _______ _______ _____ _____    ______ ____
ROOT
ATOM      1  C   UNL     1       9.582   0.476  24.624  0.00  0.00    +0.179 C 
ATOM      2  O   UNL     1       9.235   1.827  24.264  0.00  0.00    -0.331 OA
ATOM      3  C   UNL     1       8.221   1.916  23.245  0.00  0.00    +0.340 C 
ATOM      4  C   UNL     1       8.758   1.241  21.964  0.00  0.00    +0.214 C 
ATOM      5  C   UNL     1       9.143  -0.211  22.248  0.00  0.00    +0.180 C 
ATOM      6  C   UNL     1      10.135  -0.285  23.418  0.00  0.00    +0.177 C 
ENDROOT
BRANCH   6   7
ATOM      7  O   UNL     1      10.448  -1.627  23.799  0.00  0.00    -0.386 OA
ATOM      8  H   UNL     1       9.640  -2.165  23.737  0.00  0.00    +0.210 HD
ENDBRANCH   6   7
BRANCH   5   9
ATOM      9  O   UNL     1       9.729  -0.785  21.072  0.00  0.00    -0.386 OA
ATOM     10  H   UNL     1      10.639  -0.420  21.029  0.00  0.00    +0.210 HD
ENDBRANCH   5   9
BRANCH   4  11
ATOM     11  O   UNL     1       9.938   1.925  21.476  0.00  0.00    -0.383 OA
ATOM     12  H   UNL     1      10.276   2.468  22.218  0.00  0.00    +0.210 HD
ENDBRANCH   4  11
BRANCH   3  13
ATOM     13  O   UNL     1       7.985   3.312  23.039  0.00  0.00    -0.453 OA
BRANCH  13  14
ATOM     14  C   UNL     1       7.041   3.972  23.808  0.00  0.00    +0.214 A 
ATOM     15  C   UNL     1       5.628   3.491  23.885  0.00  0.00    +0.238 A 
ATOM     16  O   UNL     1       5.307   2.408  23.405  0.00  0.00    -0.283 OA
ATOM     17  C   UNL     1       4.653   4.360  24.553  0.00  0.00    +0.109 A 
ATOM     18  C   UNL     1       5.137   5.470  25.242  0.00  0.00    +0.147 A 
ATOM     19  C   UNL     1       4.263   6.284  25.959  0.00  0.00    +0.092 A 
ATOM     20  C   UNL     1       2.898   5.989  25.968  0.00  0.00    +0.124 A 
ATOM     21  C   UNL     1       2.399   4.904  25.256  0.00  0.00    +0.091 A 
ATOM     22  O   UNL     1       6.468   5.810  25.270  0.00  0.00    -0.451 OA
ATOM     23  C   UNL     1       3.276   4.095  24.538  0.00  0.00    +0.135 A 
ATOM     24  C   UNL     1       7.380   5.066  24.531  0.00  0.00    +0.181 A 
BRANCH  24  25
ATOM     25  C   UNL     1       8.781   5.593  24.613  0.00  0.00    +0.025 A 
ATOM     26  C   UNL     1       9.195   6.332  25.737  0.00  0.00    +0.015 A 
ATOM     27  C   UNL     1      10.519   6.787  25.876  0.00  0.00    +0.050 A 
ATOM     28  C   UNL     1      11.432   6.512  24.875  0.00  0.00    +0.158 A 
ATOM     29  C   UNL     1      11.055   5.795  23.750  0.00  0.00    +0.159 A 
ATOM     30  C   UNL     1       9.747   5.328  23.620  0.00  0.00    +0.060 A 
BRANCH  29  31
ATOM     31  O   UNL     1      12.001   5.570  22.789  0.00  0.00    -0.503 OA
ATOM     32  H   UNL     1      11.997   4.620  22.583  0.00  0.00    +0.292 HD
ENDBRANCH  29  31
BRANCH  28  33
ATOM     33  O   UNL     1      12.724   6.936  25.009  0.00  0.00    -0.503 OA
ATOM     34  H   UNL     1      13.099   6.369  25.714  0.00  0.00    +0.292 HD
ENDBRANCH  28  33
ENDBRANCH  24  25
BRANCH  23  35
ATOM     35  O   UNL     1       2.763   3.051  23.821  0.00  0.00    -0.506 OA
ATOM     36  H   UNL     1       3.146   2.212  24.120  0.00  0.00    +0.292 HD
ENDBRANCH  23  35
BRANCH  20  37
ATOM     37  O   UNL     1       1.993   6.731  26.665  0.00  0.00    -0.507 OA
ATOM     38  H   UNL     1       2.423   7.551  26.966  0.00  0.00    +0.292 HD
ENDBRANCH  20  37
ENDBRANCH  13  14
ENDBRANCH   3  13
BRANCH   1  39
ATOM     39  C   UNL     1       8.421  -0.259  25.329  0.00  0.00    +0.197 C 
BRANCH  39  40
ATOM     40  O   UNL     1       7.949   0.625  26.337  0.00  0.00    -0.346 OA
BRANCH  40  42
ATOM     41  C   UNL     1       5.928  -0.474  26.864  0.00  0.00    +0.208 C 
ATOM     42  C   UNL     1       7.292  -0.010  27.427  0.00  0.00    +0.282 C 
ATOM     43  O   UNL     1       7.185   0.846  28.567  0.00  0.00    -0.343 OA
ATOM     44  C   UNL     1       6.343   1.998  28.436  0.00  0.00    +0.149 C 
ATOM     45  C   UNL     1       7.057   3.146  27.718  0.00  0.00    +0.041 C 
ATOM     46  C   UNL     1       4.965   1.645  27.858  0.00  0.00    +0.174 C 
ATOM     47  C   UNL     1       5.090   0.793  26.592  0.00  0.00    +0.179 C 
BRANCH  47  48
ATOM     48  O   UNL     1       3.792   0.501  26.052  0.00  0.00    -0.386 OA
ATOM     49  H   UNL     1       3.914   0.387  25.086  0.00  0.00    +0.210 HD
ENDBRANCH  47  48
BRANCH  46  50
ATOM     50  O   UNL     1       4.165   2.799  27.567  0.00  0.00    -0.387 OA
ATOM     51  H   UNL     1       4.760   3.512  27.260  0.00  0.00    +0.210 HD
ENDBRANCH  46  50
BRANCH  41  52
ATOM     52  O   UNL     1       5.313  -1.448  27.733  0.00  0.00    -0.338 OA
BRANCH  52  56
ATOM     53  C   UNL     1       7.067  -5.117  26.619  0.00  0.00    +0.041 C 
ATOM     54  C   UNL     1       6.342  -4.223  25.600  0.00  0.00    +0.149 C 
ATOM     55  O   UNL     1       6.176  -2.871  26.083  0.00  0.00    -0.343 OA
ATOM     56  C   UNL     1       5.281  -2.783  27.205  0.00  0.00    +0.282 C 
ATOM     57  C   UNL     1       3.875  -3.240  26.750  0.00  0.00    +0.201 C 
ATOM     58  C   UNL     1       3.941  -4.678  26.242  0.00  0.00    +0.179 C 
ATOM     59  C   UNL     1       5.000  -4.821  25.139  0.00  0.00    +0.174 C 
BRANCH  59  60
ATOM     60  O   UNL     1       5.178  -6.189  24.758  0.00  0.00    -0.387 OA
ATOM     61  H   UNL     1       4.295  -6.600  24.700  0.00  0.00    +0.210 HD
ENDBRANCH  59  60
BRANCH  58  62
ATOM     62  O   UNL     1       2.662  -5.089  25.741  0.00  0.00    -0.386 OA
ATOM     63  H   UNL     1       2.522  -5.995  26.087  0.00  0.00    +0.210 HD
ENDBRANCH  58  62
BRANCH  57  64
ATOM     64  O   UNL     1       3.367  -2.401  25.687  0.00  0.00    -0.384 OA
ATOM     65  H   UNL     1       3.535  -1.475  25.960  0.00  0.00    +0.210 HD
ENDBRANCH  57  64
ENDBRANCH  52  56
ENDBRANCH  41  52
ENDBRANCH  40  42
ENDBRANCH  39  40
ENDBRANCH   1  39
TORSDOF 20
ENDMDL
