MODEL 1
REMARK VINA RESULT:      -7.2      0.000      0.000
REMARK  Name = 
REMARK  18 active torsions:
REMARK  status: ('A' for Active; 'I' for Inactive)
REMARK    1  A    between atoms: C_3  and  O_49
REMARK    2  A    between atoms: C_4  and  O_48
REMARK    3  A    between atoms: C_6  and  C_7
REMARK    4  A    between atoms: C_8  and  O_20
REMARK    5  A    between atoms: C_12  and  O_19
REMARK    6  A    between atoms: C_14  and  O_18
REMARK    7  A    between atoms: O_20  and  C_21
REMARK    8  A    between atoms: C_23  and  O_47
REMARK    9  A    between atoms: C_24  and  O_32
REMARK   10  A    between atoms: C_25  and  O_31
REMARK   11  A    between atoms: C_27  and  C_29
REMARK   12  A    between atoms: C_29  and  O_30
REMARK   13  A    between atoms: O_32  and  C_33
REMARK   14  A    between atoms: C_35  and  O_46
REMARK   15  A    between atoms: C_37  and  O_45
REMARK   16  A    between atoms: C_38  and  O_44
REMARK   17  A    between atoms: C_40  and  C_42
REMARK   18  A    between atoms: C_42  and  O_43
REMARK                            x       y       z     vdW  Elec       q    Type
REMARK                         _______ _______ _______ _____ _____    ______ ____
ROOT
ATOM      1  C   UNL     1       9.823  -0.754  25.002  0.00  0.00    +0.340 C 
ATOM      2  O   UNL     1       9.433   0.586  24.731  0.00  0.00    -0.331 OA
ATOM      3  C   UNL     1       9.228   0.999  23.355  0.00  0.00    +0.179 C 
ATOM      4  C   UNL     1       8.625  -0.067  22.396  0.00  0.00    +0.177 C 
ATOM      5  C   UNL     1       8.479  -1.404  23.130  0.00  0.00    +0.187 C 
ATOM      6  C   UNL     1       9.869  -1.651  23.755  0.00  0.00    +0.214 C 
ENDROOT
BRANCH   6   7
ATOM      7  O   UNL     1      10.197  -2.999  24.072  0.00  0.00    -0.383 OA
ATOM      8  H   UNL     1       9.498  -3.367  24.650  0.00  0.00    +0.210 HD
ENDBRANCH   6   7
BRANCH   4   9
ATOM      9  O   UNL     1       9.430  -0.244  21.223  0.00  0.00    -0.386 OA
ATOM     10  H   UNL     1       9.499   0.632  20.793  0.00  0.00    +0.210 HD
ENDBRANCH   4   9
BRANCH   5  11
ATOM     11  O   UNL     1       7.956  -2.415  22.266  0.00  0.00    -0.340 OA
BRANCH  11  12
ATOM     12  C   UNL     1       6.819  -3.072  22.862  0.00  0.00    +0.282 C 
ATOM     13  O   UNL     1       7.195  -4.162  23.694  0.00  0.00    -0.341 OA
ATOM     14  C   UNL     1       7.961  -5.161  23.000  0.00  0.00    +0.178 C 
ATOM     15  C   UNL     1       7.182  -5.740  21.804  0.00  0.00    +0.177 C 
ATOM     16  C   UNL     1       6.590  -4.628  20.927  0.00  0.00    +0.179 C 
ATOM     17  C   UNL     1       5.864  -3.581  21.775  0.00  0.00    +0.201 C 
BRANCH  17  18
ATOM     18  O   UNL     1       4.684  -4.175  22.353  0.00  0.00    -0.384 OA
ATOM     19  H   UNL     1       4.423  -4.908  21.749  0.00  0.00    +0.210 HD
ENDBRANCH  17  18
BRANCH  16  20
ATOM     20  O   UNL     1       5.668  -5.212  19.992  0.00  0.00    -0.386 OA
ATOM     21  H   UNL     1       5.954  -4.903  19.107  0.00  0.00    +0.210 HD
ENDBRANCH  16  20
BRANCH  15  22
ATOM     22  O   UNL     1       6.104  -6.572  22.273  0.00  0.00    -0.386 OA
ATOM     23  H   UNL     1       5.289  -6.086  22.038  0.00  0.00    +0.210 HD
ENDBRANCH  15  22
BRANCH  14  24
ATOM     24  C   UNL     1       8.334  -6.239  24.024  0.00  0.00    +0.190 C 
BRANCH  24  25
ATOM     25  O   UNL     1       9.604  -5.981  24.615  0.00  0.00    -0.392 OA
ATOM     26  H   UNL     1      10.243  -5.938  23.881  0.00  0.00    +0.210 HD
ENDBRANCH  24  25
ENDBRANCH  14  24
ENDBRANCH  11  12
ENDBRANCH   5  11
BRANCH   3  27
ATOM     27  C   UNL     1      10.442   1.748  22.774  0.00  0.00    +0.190 C 
BRANCH  27  28
ATOM     28  O   UNL     1      10.132   2.360  21.523  0.00  0.00    -0.392 OA
ATOM     29  H   UNL     1       9.322   2.888  21.653  0.00  0.00    +0.210 HD
ENDBRANCH  27  28
ENDBRANCH   3  27
BRANCH   1  30
ATOM     30  O   UNL     1       8.995  -1.508  25.893  0.00  0.00    -0.453 OA
BRANCH  30  41
ATOM     31  C   UNL     1       6.574  -1.152  26.308  0.00  0.00    +0.181 A 
ATOM     32  O   UNL     1       5.420  -1.662  26.926  0.00  0.00    -0.451 OA
ATOM     33  C   UNL     1       5.491  -2.874  27.574  0.00  0.00    +0.147 A 
ATOM     34  C   UNL     1       6.518  -3.774  27.330  0.00  0.00    +0.109 A 
ATOM     35  C   UNL     1       6.505  -5.060  27.890  0.00  0.00    +0.135 A 
ATOM     36  C   UNL     1       5.518  -5.411  28.799  0.00  0.00    +0.091 A 
ATOM     37  C   UNL     1       4.553  -4.466  29.130  0.00  0.00    +0.124 A 
ATOM     38  C   UNL     1       7.655  -3.294  26.561  0.00  0.00    +0.238 A 
ATOM     39  O   UNL     1       8.543  -4.080  26.228  0.00  0.00    -0.283 OA
ATOM     40  C   UNL     1       4.504  -3.218  28.496  0.00  0.00    +0.092 A 
ATOM     41  C   UNL     1       7.741  -1.834  26.241  0.00  0.00    +0.214 A 
BRANCH  31  43
ATOM     42  C   UNL     1       5.718   0.412  24.540  0.00  0.00    +0.015 A 
ATOM     43  C   UNL     1       6.352   0.204  25.780  0.00  0.00    +0.025 A 
ATOM     44  C   UNL     1       6.743   1.310  26.531  0.00  0.00    +0.060 A 
ATOM     45  C   UNL     1       6.601   2.583  25.995  0.00  0.00    +0.159 A 
ATOM     46  C   UNL     1       6.057   2.779  24.727  0.00  0.00    +0.158 A 
ATOM     47  C   UNL     1       5.577   1.697  23.994  0.00  0.00    +0.050 A 
BRANCH  46  48
ATOM     48  O   UNL     1       6.067   4.053  24.228  0.00  0.00    -0.503 OA
ATOM     49  H   UNL     1       5.488   4.086  23.445  0.00  0.00    +0.292 HD
ENDBRANCH  46  48
BRANCH  45  50
ATOM     50  O   UNL     1       7.052   3.651  26.713  0.00  0.00    -0.503 OA
ATOM     51  H   UNL     1       6.268   3.975  27.202  0.00  0.00    +0.292 HD
ENDBRANCH  45  50
ENDBRANCH  31  43
BRANCH  37  52
ATOM     52  O   UNL     1       3.627  -4.730  30.097  0.00  0.00    -0.507 OA
ATOM     53  H   UNL     1       3.944  -5.476  30.637  0.00  0.00    +0.292 HD
ENDBRANCH  37  52
BRANCH  35  54
ATOM     54  O   UNL     1       7.448  -6.012  27.611  0.00  0.00    -0.506 OA
ATOM     55  H   UNL     1       7.943  -5.727  26.809  0.00  0.00    +0.292 HD
ENDBRANCH  35  54
ENDBRANCH  30  41
ENDBRANCH   1  30
TORSDOF 18
ENDMDL
MODEL 2
REMARK VINA RESULT:      -7.1      2.651      7.332
REMARK  Name = 
REMARK  18 active torsions:
REMARK  status: ('A' for Active; 'I' for Inactive)
REMARK    1  A    between atoms: C_3  and  O_49
REMARK    2  A    between atoms: C_4  and  O_48
REMARK    3  A    between atoms: C_6  and  C_7
REMARK    4  A    between atoms: C_8  and  O_20
REMARK    5  A    between atoms: C_12  and  O_19
REMARK    6  A    between atoms: C_14  and  O_18
REMARK    7  A    between atoms: O_20  and  C_21
REMARK    8  A    between atoms: C_23  and  O_47
REMARK    9  A    between atoms: C_24  and  O_32
REMARK   10  A    between atoms: C_25  and  O_31
REMARK   11  A    between atoms: C_27  and  C_29
REMARK   12  A    between atoms: C_29  and  O_30
REMARK   13  A    between atoms: O_32  and  C_33
REMARK   14  A    between atoms: C_35  and  O_46
REMARK   15  A    between atoms: C_37  and  O_45
REMARK   16  A    between atoms: C_38  and  O_44
REMARK   17  A    between atoms: C_40  and  C_42
REMARK   18  A    between atoms: C_42  and  O_43
REMARK                            x       y       z     vdW  Elec       q    Type
REMARK                         _______ _______ _______ _____ _____    ______ ____
ROOT
ATOM      1  C   UNL     1       4.869   0.690  26.171  0.00  0.00    +0.340 C 
ATOM      2  O   UNL     1       3.529   1.136  26.019  0.00  0.00    -0.331 OA
ATOM      3  C   UNL     1       3.198   2.510  26.352  0.00  0.00    +0.179 C 
ATOM      4  C   UNL     1       4.286   3.578  26.041  0.00  0.00    +0.177 C 
ATOM      5  C   UNL     1       5.557   2.892  25.531  0.00  0.00    +0.187 C 
ATOM      6  C   UNL     1       5.850   1.800  26.582  0.00  0.00    +0.214 C 
ENDROOT
BRANCH   6   7
ATOM      7  O   UNL     1       7.192   1.332  26.659  0.00  0.00    -0.383 OA
ATOM      8  H   UNL     1       7.494   1.388  27.589  0.00  0.00    +0.210 HD
ENDBRANCH   6   7
BRANCH   4   9
ATOM      9  O   UNL     1       4.594   4.375  27.191  0.00  0.00    -0.386 OA
ATOM     10  H   UNL     1       5.492   4.120  27.481  0.00  0.00    +0.210 HD
ENDBRANCH   4   9
BRANCH   5  11
ATOM     11  O   UNL     1       6.589   3.844  25.264  0.00  0.00    -0.340 OA
BRANCH  11  12
ATOM     12  C   UNL     1       7.177   3.625  23.966  0.00  0.00    +0.282 C 
ATOM     13  O   UNL     1       8.393   4.342  23.792  0.00  0.00    -0.341 OA
ATOM     14  C   UNL     1       8.240   5.761  23.969  0.00  0.00    +0.178 C 
ATOM     15  C   UNL     1       7.214   6.346  22.980  0.00  0.00    +0.177 C 
ATOM     16  C   UNL     1       5.912   5.532  22.974  0.00  0.00    +0.179 C 
ATOM     17  C   UNL     1       6.196   4.033  22.859  0.00  0.00    +0.201 C 
BRANCH  17  18
ATOM     18  O   UNL     1       6.739   3.752  21.552  0.00  0.00    -0.384 OA
ATOM     19  H   UNL     1       6.453   2.836  21.330  0.00  0.00    +0.210 HD
ENDBRANCH  17  18
BRANCH  16  20
ATOM     20  O   UNL     1       5.103   5.954  21.862  0.00  0.00    -0.386 OA
ATOM     21  H   UNL     1       5.010   6.925  21.955  0.00  0.00    +0.210 HD
ENDBRANCH  16  20
BRANCH  15  22
ATOM     22  O   UNL     1       7.758   6.345  21.646  0.00  0.00    -0.386 OA
ATOM     23  H   UNL     1       8.701   6.576  21.758  0.00  0.00    +0.210 HD
ENDBRANCH  15  22
BRANCH  14  24
ATOM     24  C   UNL     1       9.627   6.391  23.804  0.00  0.00    +0.190 C 
BRANCH  24  25
ATOM     25  O   UNL     1      10.477   5.580  22.999  0.00  0.00    -0.392 OA
ATOM     26  H   UNL     1      10.769   6.141  22.258  0.00  0.00    +0.210 HD
ENDBRANCH  24  25
ENDBRANCH  14  24
ENDBRANCH  11  12
ENDBRANCH   5  11
BRANCH   3  27
ATOM     27  C   UNL     1       2.571   2.645  27.752  0.00  0.00    +0.190 C 
BRANCH  27  28
ATOM     28  O   UNL     1       1.813   3.848  27.874  0.00  0.00    -0.392 OA
ATOM     29  H   UNL     1       2.233   4.384  28.573  0.00  0.00    +0.210 HD
ENDBRANCH  27  28
ENDBRANCH   3  27
BRANCH   1  30
ATOM     30  O   UNL     1       5.506   0.126  25.020  0.00  0.00    -0.453 OA
BRANCH  30  41
ATOM     31  C   UNL     1       7.258  -1.187  23.851  0.00  0.00    +0.181 A 
ATOM     32  O   UNL     1       7.547  -2.384  23.176  0.00  0.00    -0.451 OA
ATOM     33  C   UNL     1       6.569  -3.347  23.077  0.00  0.00    +0.147 A 
ATOM     34  C   UNL     1       5.463  -3.354  23.915  0.00  0.00    +0.109 A 
ATOM     35  C   UNL     1       4.547  -4.415  23.898  0.00  0.00    +0.135 A 
ATOM     36  C   UNL     1       4.669  -5.423  22.953  0.00  0.00    +0.091 A 
ATOM     37  C   UNL     1       5.714  -5.353  22.038  0.00  0.00    +0.124 A 
ATOM     38  C   UNL     1       5.237  -2.170  24.729  0.00  0.00    +0.238 A 
ATOM     39  O   UNL     1       4.332  -2.167  25.563  0.00  0.00    -0.283 OA
ATOM     40  C   UNL     1       6.690  -4.351  22.118  0.00  0.00    +0.092 A 
ATOM     41  C   UNL     1       6.086  -0.960  24.488  0.00  0.00    +0.214 A 
BRANCH  31  43
ATOM     42  C   UNL     1       9.360  -0.142  24.743  0.00  0.00    +0.015 A 
ATOM     43  C   UNL     1       8.367  -0.224  23.748  0.00  0.00    +0.025 A 
ATOM     44  C   UNL     1       8.464   0.602  22.630  0.00  0.00    +0.060 A 
ATOM     45  C   UNL     1       9.468   1.559  22.575  0.00  0.00    +0.159 A 
ATOM     46  C   UNL     1      10.394   1.699  23.607  0.00  0.00    +0.158 A 
ATOM     47  C   UNL     1      10.373   0.828  24.692  0.00  0.00    +0.050 A 
BRANCH  46  48
ATOM     48  O   UNL     1      11.271   2.746  23.527  0.00  0.00    -0.503 OA
ATOM     49  H   UNL     1      12.170   2.413  23.700  0.00  0.00    +0.292 HD
ENDBRANCH  46  48
BRANCH  45  50
ATOM     50  O   UNL     1       9.508   2.406  21.506  0.00  0.00    -0.503 OA
ATOM     51  H   UNL     1       9.043   3.213  21.807  0.00  0.00    +0.292 HD
ENDBRANCH  45  50
ENDBRANCH  31  43
BRANCH  37  52
ATOM     52  O   UNL     1       5.812  -6.263  21.027  0.00  0.00    -0.507 OA
ATOM     53  H   UNL     1       4.926  -6.400  20.644  0.00  0.00    +0.292 HD
ENDBRANCH  37  52
BRANCH  35  54
ATOM     54  O   UNL     1       3.490  -4.510  24.762  0.00  0.00    -0.506 OA
ATOM     55  H   UNL     1       3.846  -4.560  25.678  0.00  0.00    +0.292 HD
ENDBRANCH  35  54
ENDBRANCH  30  41
ENDBRANCH   1  30
TORSDOF 18
ENDMDL
MODEL 3
REMARK VINA RESULT:      -6.8      3.011      6.938
REMARK  Name = 
REMARK  18 active torsions:
REMARK  status: ('A' for Active; 'I' for Inactive)
REMARK    1  A    between atoms: C_3  and  O_49
REMARK    2  A    between atoms: C_4  and  O_48
REMARK    3  A    between atoms: C_6  and  C_7
REMARK    4  A    between atoms: C_8  and  O_20
REMARK    5  A    between atoms: C_12  and  O_19
REMARK    6  A    between atoms: C_14  and  O_18
REMARK    7  A    between atoms: O_20  and  C_21
REMARK    8  A    between atoms: C_23  and  O_47
REMARK    9  A    between atoms: C_24  and  O_32
REMARK   10  A    between atoms: C_25  and  O_31
REMARK   11  A    between atoms: C_27  and  C_29
REMARK   12  A    between atoms: C_29  and  O_30
REMARK   13  A    between atoms: O_32  and  C_33
REMARK   14  A    between atoms: C_35  and  O_46
REMARK   15  A    between atoms: C_37  and  O_45
REMARK   16  A    between atoms: C_38  and  O_44
REMARK   17  A    between atoms: C_40  and  C_42
REMARK   18  A    between atoms: C_42  and  O_43
REMARK                            x       y       z     vdW  Elec       q    Type
REMARK                         _______ _______ _______ _____ _____    ______ ____
ROOT
ATOM      1  C   UNL     1       6.806  -4.174  24.153  0.00  0.00    +0.340 C 
ATOM      2  O   UNL     1       7.632  -4.327  25.298  0.00  0.00    -0.331 OA
ATOM      3  C   UNL     1       8.990  -3.813  25.265  0.00  0.00    +0.179 C 
ATOM      4  C   UNL     1       9.211  -2.498  24.465  0.00  0.00    +0.177 C 
ATOM      5  C   UNL     1       7.909  -2.083  23.773  0.00  0.00    +0.187 C 
ATOM      6  C   UNL     1       7.452  -3.354  23.025  0.00  0.00    +0.214 C 
ENDROOT
BRANCH   6   7
ATOM      7  O   UNL     1       6.571  -3.165  21.923  0.00  0.00    -0.383 OA
ATOM      8  H   UNL     1       7.068  -3.312  21.092  0.00  0.00    +0.210 HD
ENDBRANCH   6   7
BRANCH   4   9
ATOM      9  O   UNL     1      10.254  -2.636  23.491  0.00  0.00    -0.386 OA
ATOM     10  H   UNL     1       9.879  -2.353  22.633  0.00  0.00    +0.210 HD
ENDBRANCH   4   9
BRANCH   5  11
ATOM     11  O   UNL     1       8.085  -0.893  23.003  0.00  0.00    -0.340 OA
BRANCH  11  12
ATOM     12  C   UNL     1       8.388   0.235  23.849  0.00  0.00    +0.282 C 
ATOM     13  O   UNL     1       7.320   1.172  23.908  0.00  0.00    -0.341 OA
ATOM     14  C   UNL     1       6.946   1.682  22.617  0.00  0.00    +0.178 C 
ATOM     15  C   UNL     1       8.132   2.377  21.921  0.00  0.00    +0.177 C 
ATOM     16  C   UNL     1       9.393   1.502  21.950  0.00  0.00    +0.179 C 
ATOM     17  C   UNL     1       9.651   0.951  23.354  0.00  0.00    +0.201 C 
BRANCH  17  18
ATOM     18  O   UNL     1      10.012   2.038  24.231  0.00  0.00    -0.384 OA
ATOM     19  H   UNL     1      10.947   2.263  24.016  0.00  0.00    +0.210 HD
ENDBRANCH  17  18
BRANCH  16  20
ATOM     20  O   UNL     1      10.518   2.292  21.529  0.00  0.00    -0.386 OA
ATOM     21  H   UNL     1      11.113   1.675  21.054  0.00  0.00    +0.210 HD
ENDBRANCH  16  20
BRANCH  15  22
ATOM     22  O   UNL     1       8.427   3.625  22.576  0.00  0.00    -0.386 OA
ATOM     23  H   UNL     1       9.220   3.443  23.118  0.00  0.00    +0.210 HD
ENDBRANCH  15  22
BRANCH  14  24
ATOM     24  C   UNL     1       5.763   2.632  22.830  0.00  0.00    +0.190 C 
BRANCH  24  25
ATOM     25  O   UNL     1       5.792   3.718  21.909  0.00  0.00    -0.392 OA
ATOM     26  H   UNL     1       4.955   3.677  21.412  0.00  0.00    +0.210 HD
ENDBRANCH  24  25
ENDBRANCH  14  24
ENDBRANCH  11  12
ENDBRANCH   5  11
BRANCH   3  27
ATOM     27  C   UNL     1      10.030  -4.909  24.968  0.00  0.00    +0.190 C 
BRANCH  27  28
ATOM     28  O   UNL     1       9.685  -6.144  25.593  0.00  0.00    -0.392 OA
ATOM     29  H   UNL     1       8.743  -6.088  25.843  0.00  0.00    +0.210 HD
ENDBRANCH  27  28
ENDBRANCH   3  27
BRANCH   1  30
ATOM     30  O   UNL     1       5.551  -3.511  24.336  0.00  0.00    -0.453 OA
BRANCH  30  41
ATOM     31  C   UNL     1       3.285  -3.891  25.275  0.00  0.00    +0.181 A 
ATOM     32  O   UNL     1       2.257  -3.354  26.069  0.00  0.00    -0.451 OA
ATOM     33  C   UNL     1       2.457  -2.139  26.685  0.00  0.00    +0.147 A 
ATOM     34  C   UNL     1       3.727  -1.612  26.867  0.00  0.00    +0.109 A 
ATOM     35  C   UNL     1       3.927  -0.445  27.618  0.00  0.00    +0.135 A 
ATOM     36  C   UNL     1       2.838   0.271  28.093  0.00  0.00    +0.091 A 
ATOM     37  C   UNL     1       1.560  -0.200  27.810  0.00  0.00    +0.124 A 
ATOM     38  C   UNL     1       4.823  -2.256  26.160  0.00  0.00    +0.238 A 
ATOM     39  O   UNL     1       5.981  -1.893  26.369  0.00  0.00    -0.283 OA
ATOM     40  C   UNL     1       1.359  -1.418  27.150  0.00  0.00    +0.092 A 
ATOM     41  C   UNL     1       4.503  -3.314  25.150  0.00  0.00    +0.214 A 
BRANCH  31  43
ATOM     42  C   UNL     1       2.129  -5.074  23.386  0.00  0.00    +0.015 A 
ATOM     43  C   UNL     1       2.855  -5.122  24.591  0.00  0.00    +0.025 A 
ATOM     44  C   UNL     1       3.197  -6.363  25.123  0.00  0.00    +0.060 A 
ATOM     45  C   UNL     1       2.724  -7.519  24.516  0.00  0.00    +0.159 A 
ATOM     46  C   UNL     1       1.928  -7.464  23.374  0.00  0.00    +0.158 A 
ATOM     47  C   UNL     1       1.646  -6.241  22.773  0.00  0.00    +0.050 A 
BRANCH  46  48
ATOM     48  O   UNL     1       1.405  -8.642  22.914  0.00  0.00    -0.503 OA
ATOM     49  H   UNL     1       0.930  -9.078  23.644  0.00  0.00    +0.292 HD
ENDBRANCH  46  48
BRANCH  45  50
ATOM     50  O   UNL     1       3.010  -8.724  25.088  0.00  0.00    -0.503 OA
ATOM     51  H   UNL     1       2.649  -9.389  24.468  0.00  0.00    +0.292 HD
ENDBRANCH  45  50
ENDBRANCH  31  43
BRANCH  37  52
ATOM     52  O   UNL     1       0.461   0.526  28.165  0.00  0.00    -0.507 OA
ATOM     53  H   UNL     1      -0.104   0.642  27.381  0.00  0.00    +0.292 HD
ENDBRANCH  37  52
BRANCH  35  54
ATOM     54  O   UNL     1       5.166   0.066  27.897  0.00  0.00    -0.506 OA
ATOM     55  H   UNL     1       5.053   0.825  28.513  0.00  0.00    +0.292 HD
ENDBRANCH  35  54
ENDBRANCH  30  41
ENDBRANCH   1  30
TORSDOF 18
ENDMDL
MODEL 4
REMARK VINA RESULT:      -6.8      2.456      7.394
REMARK  Name = 
REMARK  18 active torsions:
REMARK  status: ('A' for Active; 'I' for Inactive)
REMARK    1  A    between atoms: C_3  and  O_49
REMARK    2  A    between atoms: C_4  and  O_48
REMARK    3  A    between atoms: C_6  and  C_7
REMARK    4  A    between atoms: C_8  and  O_20
REMARK    5  A    between atoms: C_12  and  O_19
REMARK    6  A    between atoms: C_14  and  O_18
REMARK    7  A    between atoms: O_20  and  C_21
REMARK    8  A    between atoms: C_23  and  O_47
REMARK    9  A    between atoms: C_24  and  O_32
REMARK   10  A    between atoms: C_25  and  O_31
REMARK   11  A    between atoms: C_27  and  C_29
REMARK   12  A    between atoms: C_29  and  O_30
REMARK   13  A    between atoms: O_32  and  C_33
REMARK   14  A    between atoms: C_35  and  O_46
REMARK   15  A    between atoms: C_37  and  O_45
REMARK   16  A    between atoms: C_38  and  O_44
REMARK   17  A    between atoms: C_40  and  C_42
REMARK   18  A    between atoms: C_42  and  O_43
REMARK                            x       y       z     vdW  Elec       q    Type
REMARK                         _______ _______ _______ _____ _____    ______ ____
ROOT
ATOM      1  C   UNL     1       6.277   1.992  26.163  0.00  0.00    +0.340 C 
ATOM      2  O   UNL     1       6.845   1.642  27.417  0.00  0.00    -0.331 OA
ATOM      3  C   UNL     1       6.168   0.669  28.254  0.00  0.00    +0.179 C 
ATOM      4  C   UNL     1       5.440  -0.491  27.515  0.00  0.00    +0.177 C 
ATOM      5  C   UNL     1       5.517  -0.272  26.001  0.00  0.00    +0.187 C 
ATOM      6  C   UNL     1       5.026   1.177  25.799  0.00  0.00    +0.214 C 
ENDROOT
BRANCH   6   7
ATOM      7  O   UNL     1       4.524   1.507  24.508  0.00  0.00    -0.383 OA
ATOM      8  H   UNL     1       3.574   1.735  24.586  0.00  0.00    +0.210 HD
ENDBRANCH   6   7
BRANCH   4   9
ATOM      9  O   UNL     1       4.070  -0.603  27.919  0.00  0.00    -0.386 OA
ATOM     10  H   UNL     1       3.707   0.305  27.946  0.00  0.00    +0.210 HD
ENDBRANCH   4   9
BRANCH   5  11
ATOM     11  O   UNL     1       4.830  -1.305  25.292  0.00  0.00    -0.340 OA
BRANCH  11  12
ATOM     12  C   UNL     1       5.431  -2.593  25.536  0.00  0.00    +0.282 C 
ATOM     13  O   UNL     1       6.157  -3.077  24.412  0.00  0.00    -0.341 OA
ATOM     14  C   UNL     1       5.350  -3.190  23.228  0.00  0.00    +0.178 C 
ATOM     15  C   UNL     1       4.154  -4.136  23.447  0.00  0.00    +0.177 C 
ATOM     16  C   UNL     1       3.396  -3.794  24.738  0.00  0.00    +0.179 C 
ATOM     17  C   UNL     1       4.358  -3.622  25.916  0.00  0.00    +0.201 C 
BRANCH  17  18
ATOM     18  O   UNL     1       4.948  -4.898  26.236  0.00  0.00    -0.384 OA
ATOM     19  H   UNL     1       4.198  -5.529  26.332  0.00  0.00    +0.210 HD
ENDBRANCH  17  18
BRANCH  16  20
ATOM     20  O   UNL     1       2.467  -4.852  25.027  0.00  0.00    -0.386 OA
ATOM     21  H   UNL     1       1.685  -4.681  24.462  0.00  0.00    +0.210 HD
ENDBRANCH  16  20
BRANCH  15  22
ATOM     22  O   UNL     1       4.612  -5.498  23.535  0.00  0.00    -0.386 OA
ATOM     23  H   UNL     1       3.866  -6.037  23.207  0.00  0.00    +0.210 HD
ENDBRANCH  15  22
BRANCH  14  24
ATOM     24  C   UNL     1       6.267  -3.669  22.098  0.00  0.00    +0.190 C 
BRANCH  24  25
ATOM     25  O   UNL     1       7.138  -4.708  22.536  0.00  0.00    -0.392 OA
ATOM     26  H   UNL     1       6.726  -5.092  23.331  0.00  0.00    +0.210 HD
ENDBRANCH  24  25
ENDBRANCH  14  24
ENDBRANCH  11  12
ENDBRANCH   5  11
BRANCH   3  27
ATOM     27  C   UNL     1       5.329   1.326  29.366  0.00  0.00    +0.190 C 
BRANCH  27  28
ATOM     28  O   UNL     1       5.056   0.412  30.427  0.00  0.00    -0.392 OA
ATOM     29  H   UNL     1       4.117   0.155  30.353  0.00  0.00    +0.210 HD
ENDBRANCH  27  28
ENDBRANCH   3  27
BRANCH   1  30
ATOM     30  O   UNL     1       7.099   1.828  25.003  0.00  0.00    -0.453 OA
BRANCH  30  41
ATOM     31  C   UNL     1       9.367   1.446  24.068  0.00  0.00    +0.181 A 
ATOM     32  O   UNL     1      10.561   2.054  23.646  0.00  0.00    -0.451 OA
ATOM     33  C   UNL     1      10.648   3.428  23.655  0.00  0.00    +0.147 A 
ATOM     34  C   UNL     1       9.519   4.231  23.696  0.00  0.00    +0.109 A 
ATOM     35  C   UNL     1       9.614   5.624  23.563  0.00  0.00    +0.135 A 
ATOM     36  C   UNL     1      10.859   6.233  23.508  0.00  0.00    +0.091 A 
ATOM     37  C   UNL     1      11.994   5.432  23.582  0.00  0.00    +0.124 A 
ATOM     38  C   UNL     1       8.250   3.583  23.989  0.00  0.00    +0.238 A 
ATOM     39  O   UNL     1       7.206   4.232  23.935  0.00  0.00    -0.283 OA
ATOM     40  C   UNL     1      11.902   4.035  23.611  0.00  0.00    +0.092 A 
ATOM     41  C   UNL     1       8.258   2.145  24.406  0.00  0.00    +0.214 A 
BRANCH  31  43
ATOM     42  C   UNL     1      10.057  -0.744  23.051  0.00  0.00    +0.015 A 
ATOM     43  C   UNL     1       9.493  -0.020  24.119  0.00  0.00    +0.025 A 
ATOM     44  C   UNL     1       9.081  -0.711  25.257  0.00  0.00    +0.060 A 
ATOM     45  C   UNL     1       9.132  -2.098  25.269  0.00  0.00    +0.159 A 
ATOM     46  C   UNL     1       9.606  -2.815  24.172  0.00  0.00    +0.158 A 
ATOM     47  C   UNL     1      10.106  -2.146  23.058  0.00  0.00    +0.050 A 
BRANCH  46  48
ATOM     48  O   UNL     1       9.506  -4.179  24.221  0.00  0.00    -0.503 OA
ATOM     49  H   UNL     1       9.524  -4.459  25.154  0.00  0.00    +0.292 HD
ENDBRANCH  46  48
BRANCH  45  50
ATOM     50  O   UNL     1       8.661  -2.762  26.363  0.00  0.00    -0.503 OA
ATOM     51  H   UNL     1       7.911  -2.220  26.683  0.00  0.00    +0.292 HD
ENDBRANCH  45  50
ENDBRANCH  31  43
BRANCH  37  52
ATOM     52  O   UNL     1      13.236   5.993  23.638  0.00  0.00    -0.507 OA
ATOM     53  H   UNL     1      13.140   6.948  23.809  0.00  0.00    +0.292 HD
ENDBRANCH  37  52
BRANCH  35  54
ATOM     54  O   UNL     1       8.525   6.451  23.512  0.00  0.00    -0.506 OA
ATOM     55  H   UNL     1       8.808   7.308  23.121  0.00  0.00    +0.292 HD
ENDBRANCH  35  54
ENDBRANCH  30  41
ENDBRANCH   1  30
TORSDOF 18
ENDMDL
MODEL 5
REMARK VINA RESULT:      -6.7      1.657      2.209
REMARK  Name = 
REMARK  18 active torsions:
REMARK  status: ('A' for Active; 'I' for Inactive)
REMARK    1  A    between atoms: C_3  and  O_49
REMARK    2  A    between atoms: C_4  and  O_48
REMARK    3  A    between atoms: C_6  and  C_7
REMARK    4  A    between atoms: C_8  and  O_20
REMARK    5  A    between atoms: C_12  and  O_19
REMARK    6  A    between atoms: C_14  and  O_18
REMARK    7  A    between atoms: O_20  and  C_21
REMARK    8  A    between atoms: C_23  and  O_47
REMARK    9  A    between atoms: C_24  and  O_32
REMARK   10  A    between atoms: C_25  and  O_31
REMARK   11  A    between atoms: C_27  and  C_29
REMARK   12  A    between atoms: C_29  and  O_30
REMARK   13  A    between atoms: O_32  and  C_33
REMARK   14  A    between atoms: C_35  and  O_46
REMARK   15  A    between atoms: C_37  and  O_45
REMARK   16  A    between atoms: C_38  and  O_44
REMARK   17  A    between atoms: C_40  and  C_42
REMARK   18  A    between atoms: C_42  and  O_43
REMARK                            x       y       z     vdW  Elec       q    Type
REMARK                         _______ _______ _______ _____ _____    ______ ____
ROOT
ATOM      1  C   UNL     1       9.107   0.448  24.846  0.00  0.00    +0.340 C 
ATOM      2  O   UNL     1       8.921   1.599  24.034  0.00  0.00    -0.331 OA
ATOM      3  C   UNL     1       9.129   1.496  22.601  0.00  0.00    +0.179 C 
ATOM      4  C   UNL     1       8.715   0.149  21.939  0.00  0.00    +0.177 C 
ATOM      5  C   UNL     1       8.264  -0.843  23.015  0.00  0.00    +0.187 C 
ATOM      6  C   UNL     1       9.409  -0.831  24.050  0.00  0.00    +0.214 C 
ENDROOT
BRANCH   6   7
ATOM      7  O   UNL     1       9.523  -1.975  24.890  0.00  0.00    -0.383 OA
ATOM      8  H   UNL     1       8.865  -1.905  25.612  0.00  0.00    +0.210 HD
ENDBRANCH   6   7
BRANCH   4   9
ATOM      9  O   UNL     1       9.787  -0.419  21.175  0.00  0.00    -0.386 OA
ATOM     10  H   UNL     1      10.378  -0.872  21.809  0.00  0.00    +0.210 HD
ENDBRANCH   4   9
BRANCH   5  11
ATOM     11  O   UNL     1       7.907  -2.102  22.442  0.00  0.00    -0.340 OA
BRANCH  11  12
ATOM     12  C   UNL     1       6.671  -2.596  22.998  0.00  0.00    +0.282 C 
ATOM     13  O   UNL     1       6.879  -3.418  24.140  0.00  0.00    -0.341 OA
ATOM     14  C   UNL     1       7.721  -4.553  23.870  0.00  0.00    +0.178 C 
ATOM     15  C   UNL     1       7.129  -5.443  22.761  0.00  0.00    +0.177 C 
ATOM     16  C   UNL     1       6.716  -4.615  21.536  0.00  0.00    +0.179 C 
ATOM     17  C   UNL     1       5.891  -3.394  21.946  0.00  0.00    +0.201 C 
BRANCH  17  18
ATOM     18  O   UNL     1       4.618  -3.833  22.462  0.00  0.00    -0.384 OA
ATOM     19  H   UNL     1       4.197  -3.037  22.862  0.00  0.00    +0.210 HD
ENDBRANCH  17  18
BRANCH  16  20
ATOM     20  O   UNL     1       5.941  -5.445  20.653  0.00  0.00    -0.386 OA
ATOM     21  H   UNL     1       6.391  -5.401  19.784  0.00  0.00    +0.210 HD
ENDBRANCH  16  20
BRANCH  15  22
ATOM     22  O   UNL     1       5.968  -6.139  23.253  0.00  0.00    -0.386 OA
ATOM     23  H   UNL     1       5.861  -5.831  24.175  0.00  0.00    +0.210 HD
ENDBRANCH  15  22
BRANCH  14  24
ATOM     24  C   UNL     1       7.895  -5.312  25.190  0.00  0.00    +0.190 C 
BRANCH  24  25
ATOM     25  O   UNL     1       6.761  -5.157  26.036  0.00  0.00    -0.392 OA
ATOM     26  H   UNL     1       7.046  -4.589  26.774  0.00  0.00    +0.210 HD
ENDBRANCH  24  25
ENDBRANCH  14  24
ENDBRANCH  11  12
ENDBRANCH   5  11
BRANCH   3  27
ATOM     27  C   UNL     1      10.513   2.008  22.165  0.00  0.00    +0.190 C 
BRANCH  27  28
ATOM     28  O   UNL     1      10.798   3.290  22.722  0.00  0.00    -0.392 OA
ATOM     29  H   UNL     1      11.360   3.766  22.081  0.00  0.00    +0.210 HD
ENDBRANCH  27  28
ENDBRANCH   3  27
BRANCH   1  30
ATOM     30  O   UNL     1       8.009   0.045  25.671  0.00  0.00    -0.453 OA
BRANCH  30  41
ATOM     31  C   UNL     1       5.684   0.893  25.480  0.00  0.00    +0.181 A 
ATOM     32  O   UNL     1       4.369   0.779  25.961  0.00  0.00    -0.451 OA
ATOM     33  C   UNL     1       4.084  -0.186  26.899  0.00  0.00    +0.147 A 
ATOM     34  C   UNL     1       4.921  -1.272  27.108  0.00  0.00    +0.109 A 
ATOM     35  C   UNL     1       4.552  -2.318  27.965  0.00  0.00    +0.135 A 
ATOM     36  C   UNL     1       3.388  -2.225  28.713  0.00  0.00    +0.091 A 
ATOM     37  C   UNL     1       2.606  -1.081  28.587  0.00  0.00    +0.124 A 
ATOM     38  C   UNL     1       6.237  -1.227  26.490  0.00  0.00    +0.238 A 
ATOM     39  O   UNL     1       6.977  -2.209  26.558  0.00  0.00    -0.283 OA
ATOM     40  C   UNL     1       2.919  -0.082  27.657  0.00  0.00    +0.092 A 
ATOM     41  C   UNL     1       6.677   0.042  25.829  0.00  0.00    +0.214 A 
BRANCH  31  43
ATOM     42  C   UNL     1       5.589   1.952  23.205  0.00  0.00    +0.015 A 
ATOM     43  C   UNL     1       5.837   2.054  24.587  0.00  0.00    +0.025 A 
ATOM     44  C   UNL     1       6.200   3.290  25.117  0.00  0.00    +0.060 A 
ATOM     45  C   UNL     1       6.417   4.362  24.262  0.00  0.00    +0.159 A 
ATOM     46  C   UNL     1       6.260   4.232  22.883  0.00  0.00    +0.158 A 
ATOM     47  C   UNL     1       5.812   3.033  22.337  0.00  0.00    +0.050 A 
BRANCH  46  48
ATOM     48  O   UNL     1       6.612   5.302  22.106  0.00  0.00    -0.503 OA
ATOM     49  H   UNL     1       7.434   5.084  21.631  0.00  0.00    +0.292 HD
ENDBRANCH  46  48
BRANCH  45  50
ATOM     50  O   UNL     1       6.840   5.547  24.789  0.00  0.00    -0.503 OA
ATOM     51  H   UNL     1       7.365   5.966  24.077  0.00  0.00    +0.292 HD
ENDBRANCH  45  50
ENDBRANCH  31  43
BRANCH  37  52
ATOM     52  O   UNL     1       1.512  -0.899  29.380  0.00  0.00    -0.507 OA
ATOM     53  H   UNL     1       1.739  -1.157  30.292  0.00  0.00    +0.292 HD
ENDBRANCH  37  52
BRANCH  35  54
ATOM     54  O   UNL     1       5.303  -3.450  28.138  0.00  0.00    -0.506 OA
ATOM     55  H   UNL     1       6.095  -3.383  27.559  0.00  0.00    +0.292 HD
ENDBRANCH  35  54
ENDBRANCH  30  41
ENDBRANCH   1  30
TORSDOF 18
ENDMDL
MODEL 6
REMARK VINA RESULT:      -6.5      2.220      6.802
REMARK  Name = 
REMARK  18 active torsions:
REMARK  status: ('A' for Active; 'I' for Inactive)
REMARK    1  A    between atoms: C_3  and  O_49
REMARK    2  A    between atoms: C_4  and  O_48
REMARK    3  A    between atoms: C_6  and  C_7
REMARK    4  A    between atoms: C_8  and  O_20
REMARK    5  A    between atoms: C_12  and  O_19
REMARK    6  A    between atoms: C_14  and  O_18
REMARK    7  A    between atoms: O_20  and  C_21
REMARK    8  A    between atoms: C_23  and  O_47
REMARK    9  A    between atoms: C_24  and  O_32
REMARK   10  A    between atoms: C_25  and  O_31
REMARK   11  A    between atoms: C_27  and  C_29
REMARK   12  A    between atoms: C_29  and  O_30
REMARK   13  A    between atoms: O_32  and  C_33
REMARK   14  A    between atoms: C_35  and  O_46
REMARK   15  A    between atoms: C_37  and  O_45
REMARK   16  A    between atoms: C_38  and  O_44
REMARK   17  A    between atoms: C_40  and  C_42
REMARK   18  A    between atoms: C_42  and  O_43
REMARK                            x       y       z     vdW  Elec       q    Type
REMARK                         _______ _______ _______ _____ _____    ______ ____
ROOT
ATOM      1  C   UNL     1       6.126  -0.424  26.945  0.00  0.00    +0.340 C 
ATOM      2  O   UNL     1       4.738  -0.636  26.729  0.00  0.00    -0.331 OA
ATOM      3  C   UNL     1       3.832   0.497  26.783  0.00  0.00    +0.179 C 
ATOM      4  C   UNL     1       4.383   1.849  26.244  0.00  0.00    +0.177 C 
ATOM      5  C   UNL     1       5.858   1.694  25.861  0.00  0.00    +0.187 C 
ATOM      6  C   UNL     1       6.511   1.055  27.105  0.00  0.00    +0.214 C 
ENDROOT
BRANCH   6   7
ATOM      7  O   UNL     1       7.915   1.235  27.252  0.00  0.00    -0.383 OA
ATOM      8  H   UNL     1       8.323   1.287  26.363  0.00  0.00    +0.210 HD
ENDBRANCH   6   7
BRANCH   4   9
ATOM      9  O   UNL     1       4.240   2.903  27.204  0.00  0.00    -0.386 OA
ATOM     10  H   UNL     1       3.517   2.640  27.808  0.00  0.00    +0.210 HD
ENDBRANCH   4   9
BRANCH   5  11
ATOM     11  O   UNL     1       6.404   2.928  25.389  0.00  0.00    -0.340 OA
BRANCH  11  12
ATOM     12  C   UNL     1       6.828   2.819  24.016  0.00  0.00    +0.282 C 
ATOM     13  O   UNL     1       7.928   3.669  23.717  0.00  0.00    -0.341 OA
ATOM     14  C   UNL     1       7.656   5.055  23.981  0.00  0.00    +0.178 C 
ATOM     15  C   UNL     1       6.449   5.559  23.166  0.00  0.00    +0.177 C 
ATOM     16  C   UNL     1       5.249   4.609  23.293  0.00  0.00    +0.179 C 
ATOM     17  C   UNL     1       5.668   3.155  23.069  0.00  0.00    +0.201 C 
BRANCH  17  18
ATOM     18  O   UNL     1       6.053   2.979  21.690  0.00  0.00    -0.384 OA
ATOM     19  H   UNL     1       6.623   2.177  21.666  0.00  0.00    +0.210 HD
ENDBRANCH  17  18
BRANCH  16  20
ATOM     20  O   UNL     1       4.257   4.979  22.321  0.00  0.00    -0.386 OA
ATOM     21  H   UNL     1       4.117   4.183  21.767  0.00  0.00    +0.210 HD
ENDBRANCH  16  20
BRANCH  15  22
ATOM     22  O   UNL     1       6.803   5.662  21.774  0.00  0.00    -0.386 OA
ATOM     23  H   UNL     1       6.223   5.020  21.318  0.00  0.00    +0.210 HD
ENDBRANCH  15  22
BRANCH  14  24
ATOM     24  C   UNL     1       8.935   5.838  23.664  0.00  0.00    +0.190 C 
BRANCH  24  25
ATOM     25  O   UNL     1       9.996   4.970  23.277  0.00  0.00    -0.392 OA
ATOM     26  H   UNL     1      10.582   4.892  24.051  0.00  0.00    +0.210 HD
ENDBRANCH  24  25
ENDBRANCH  14  24
ENDBRANCH  11  12
ENDBRANCH   5  11
BRANCH   3  27
ATOM     27  C   UNL     1       3.109   0.612  28.137  0.00  0.00    +0.190 C 
BRANCH  27  28
ATOM     28  O   UNL     1       4.013   0.946  29.189  0.00  0.00    -0.392 OA
ATOM     29  H   UNL     1       4.418   1.805  28.960  0.00  0.00    +0.210 HD
ENDBRANCH  27  28
ENDBRANCH   3  27
BRANCH   1  30
ATOM     30  O   UNL     1       7.023  -0.866  25.920  0.00  0.00    -0.453 OA
BRANCH  30  41
ATOM     31  C   UNL     1       7.769  -1.629  23.680  0.00  0.00    +0.181 A 
ATOM     32  O   UNL     1       7.664  -2.639  22.709  0.00  0.00    -0.451 OA
ATOM     33  C   UNL     1       6.902  -3.752  22.984  0.00  0.00    +0.147 A 
ATOM     34  C   UNL     1       6.551  -4.095  24.281  0.00  0.00    +0.109 A 
ATOM     35  C   UNL     1       5.896  -5.302  24.561  0.00  0.00    +0.135 A 
ATOM     36  C   UNL     1       5.480  -6.123  23.523  0.00  0.00    +0.091 A 
ATOM     37  C   UNL     1       5.732  -5.721  22.215  0.00  0.00    +0.124 A 
ATOM     38  C   UNL     1       6.793  -3.106  25.320  0.00  0.00    +0.238 A 
ATOM     39  O   UNL     1       6.597  -3.399  26.499  0.00  0.00    -0.283 OA
ATOM     40  C   UNL     1       6.477  -4.567  21.936  0.00  0.00    +0.092 A 
ATOM     41  C   UNL     1       7.226  -1.731  24.915  0.00  0.00    +0.214 A 
BRANCH  31  43
ATOM     42  C   UNL     1       8.213   0.100  21.915  0.00  0.00    +0.015 A 
ATOM     43  C   UNL     1       8.509  -0.462  23.171  0.00  0.00    +0.025 A 
ATOM     44  C   UNL     1       9.499   0.124  23.956  0.00  0.00    +0.060 A 
ATOM     45  C   UNL     1      10.245   1.175  23.440  0.00  0.00    +0.159 A 
ATOM     46  C   UNL     1      10.010   1.669  22.158  0.00  0.00    +0.158 A 
ATOM     47  C   UNL     1       8.968   1.160  21.389  0.00  0.00    +0.050 A 
BRANCH  46  48
ATOM     48  O   UNL     1      10.870   2.622  21.684  0.00  0.00    -0.503 OA
ATOM     49  H   UNL     1      11.774   2.260  21.696  0.00  0.00    +0.292 HD
ENDBRANCH  46  48
BRANCH  45  50
ATOM     50  O   UNL     1      11.257   1.692  24.193  0.00  0.00    -0.503 OA
ATOM     51  H   UNL     1      11.883   2.074  23.545  0.00  0.00    +0.292 HD
ENDBRANCH  45  50
ENDBRANCH  31  43
BRANCH  37  52
ATOM     52  O   UNL     1       5.249  -6.442  21.163  0.00  0.00    -0.507 OA
ATOM     53  H   UNL     1       4.732  -7.191  21.509  0.00  0.00    +0.292 HD
ENDBRANCH  37  52
BRANCH  35  54
ATOM     54  O   UNL     1       5.606  -5.725  25.830  0.00  0.00    -0.506 OA
ATOM     55  H   UNL     1       4.792  -5.261  26.129  0.00  0.00    +0.292 HD
ENDBRANCH  35  54
ENDBRANCH  30  41
ENDBRANCH   1  30
TORSDOF 18
ENDMDL
MODEL 7
REMARK VINA RESULT:      -6.3      2.375      7.607
REMARK  Name = 
REMARK  18 active torsions:
REMARK  status: ('A' for Active; 'I' for Inactive)
REMARK    1  A    between atoms: C_3  and  O_49
REMARK    2  A    between atoms: C_4  and  O_48
REMARK    3  A    between atoms: C_6  and  C_7
REMARK    4  A    between atoms: C_8  and  O_20
REMARK    5  A    between atoms: C_12  and  O_19
REMARK    6  A    between atoms: C_14  and  O_18
REMARK    7  A    between atoms: O_20  and  C_21
REMARK    8  A    between atoms: C_23  and  O_47
REMARK    9  A    between atoms: C_24  and  O_32
REMARK   10  A    between atoms: C_25  and  O_31
REMARK   11  A    between atoms: C_27  and  C_29
REMARK   12  A    between atoms: C_29  and  O_30
REMARK   13  A    between atoms: O_32  and  C_33
REMARK   14  A    between atoms: C_35  and  O_46
REMARK   15  A    between atoms: C_37  and  O_45
REMARK   16  A    between atoms: C_38  and  O_44
REMARK   17  A    between atoms: C_40  and  C_42
REMARK   18  A    between atoms: C_42  and  O_43
REMARK                            x       y       z     vdW  Elec       q    Type
REMARK                         _______ _______ _______ _____ _____    ______ ____
ROOT
ATOM      1  C   UNL     1       6.256   2.452  26.509  0.00  0.00    +0.340 C 
ATOM      2  O   UNL     1       6.982   2.513  27.728  0.00  0.00    -0.331 OA
ATOM      3  C   UNL     1       6.523   1.737  28.866  0.00  0.00    +0.179 C 
ATOM      4  C   UNL     1       5.889   0.352  28.546  0.00  0.00    +0.177 C 
ATOM      5  C   UNL     1       5.792   0.162  27.029  0.00  0.00    +0.187 C 
ATOM      6  C   UNL     1       5.095   1.445  26.527  0.00  0.00    +0.214 C 
ENDROOT
BRANCH   6   7
ATOM      7  O   UNL     1       4.433   1.362  25.270  0.00  0.00    -0.383 OA
ATOM      8  H   UNL     1       4.051   0.465  25.171  0.00  0.00    +0.210 HD
ENDBRANCH   6   7
BRANCH   4   9
ATOM      9  O   UNL     1       4.591   0.212  29.136  0.00  0.00    -0.386 OA
ATOM     10  H   UNL     1       4.334  -0.727  29.036  0.00  0.00    +0.210 HD
ENDBRANCH   4   9
BRANCH   5  11
ATOM     11  O   UNL     1       5.185  -1.089  26.701  0.00  0.00    -0.340 OA
BRANCH  11  12
ATOM     12  C   UNL     1       6.080  -1.917  25.931  0.00  0.00    +0.282 C 
ATOM     13  O   UNL     1       5.409  -2.635  24.903  0.00  0.00    -0.341 OA
ATOM     14  C   UNL     1       4.355  -3.477  25.401  0.00  0.00    +0.178 C 
ATOM     15  C   UNL     1       4.887  -4.509  26.413  0.00  0.00    +0.177 C 
ATOM     16  C   UNL     1       5.770  -3.847  27.480  0.00  0.00    +0.179 C 
ATOM     17  C   UNL     1       6.803  -2.915  26.844  0.00  0.00    +0.201 C 
BRANCH  17  18
ATOM     18  O   UNL     1       7.759  -3.703  26.104  0.00  0.00    -0.384 OA
ATOM     19  H   UNL     1       8.145  -3.098  25.429  0.00  0.00    +0.210 HD
ENDBRANCH  17  18
BRANCH  16  20
ATOM     20  O   UNL     1       6.443  -4.872  28.230  0.00  0.00    -0.386 OA
ATOM     21  H   UNL     1       7.396  -4.767  28.028  0.00  0.00    +0.210 HD
ENDBRANCH  16  20
BRANCH  15  22
ATOM     22  O   UNL     1       5.669  -5.509  25.732  0.00  0.00    -0.386 OA
ATOM     23  H   UNL     1       6.321  -5.813  26.394  0.00  0.00    +0.210 HD
ENDBRANCH  15  22
BRANCH  14  24
ATOM     24  C   UNL     1       3.695  -4.142  24.188  0.00  0.00    +0.190 C 
BRANCH  24  25
ATOM     25  O   UNL     1       4.624  -4.329  23.125  0.00  0.00    -0.392 OA
ATOM     26  H   UNL     1       4.512  -5.249  22.824  0.00  0.00    +0.210 HD
ENDBRANCH  24  25
ENDBRANCH  14  24
ENDBRANCH  11  12
ENDBRANCH   5  11
BRANCH   3  27
ATOM     27  C   UNL     1       5.713   2.578  29.869  0.00  0.00    +0.190 C 
BRANCH  27  28
ATOM     28  O   UNL     1       4.467   2.999  29.317  0.00  0.00    -0.392 OA
ATOM     29  H   UNL     1       3.780   2.400  29.666  0.00  0.00    +0.210 HD
ENDBRANCH  27  28
ENDBRANCH   3  27
BRANCH   1  30
ATOM     30  O   UNL     1       6.979   2.068  25.335  0.00  0.00    -0.453 OA
BRANCH  30  41
ATOM     31  C   UNL     1       8.856   1.550  23.796  0.00  0.00    +0.181 A 
ATOM     32  O   UNL     1      10.045   2.029  23.221  0.00  0.00    -0.451 OA
ATOM     33  C   UNL     1      10.447   3.316  23.495  0.00  0.00    +0.147 A 
ATOM     34  C   UNL     1       9.566   4.267  23.990  0.00  0.00    +0.109 A 
ATOM     35  C   UNL     1       9.950   5.607  24.132  0.00  0.00    +0.135 A 
ATOM     36  C   UNL     1      11.264   5.983  23.891  0.00  0.00    +0.091 A 
ATOM     37  C   UNL     1      12.174   5.005  23.505  0.00  0.00    +0.124 A 
ATOM     38  C   UNL     1       8.270   3.796  24.453  0.00  0.00    +0.238 A 
ATOM     39  O   UNL     1       7.415   4.610  24.804  0.00  0.00    -0.283 OA
ATOM     40  C   UNL     1      11.770   3.686  23.262  0.00  0.00    +0.092 A 
ATOM     41  C   UNL     1       8.032   2.321  24.543  0.00  0.00    +0.214 A 
BRANCH  31  43
ATOM     42  C   UNL     1       9.661  -0.827  23.742  0.00  0.00    +0.015 A 
ATOM     43  C   UNL     1       8.649   0.122  23.504  0.00  0.00    +0.025 A 
ATOM     44  C   UNL     1       7.419  -0.313  23.016  0.00  0.00    +0.060 A 
ATOM     45  C   UNL     1       7.255  -1.647  22.671  0.00  0.00    +0.159 A 
ATOM     46  C   UNL     1       8.292  -2.567  22.821  0.00  0.00    +0.158 A 
ATOM     47  C   UNL     1       9.500  -2.177  23.389  0.00  0.00    +0.050 A 
BRANCH  46  48
ATOM     48  O   UNL     1       8.084  -3.832  22.343  0.00  0.00    -0.503 OA
ATOM     49  H   UNL     1       7.994  -4.440  23.098  0.00  0.00    +0.292 HD
ENDBRANCH  46  48
BRANCH  45  50
ATOM     50  O   UNL     1       6.068  -2.044  22.130  0.00  0.00    -0.503 OA
ATOM     51  H   UNL     1       6.299  -2.392  21.244  0.00  0.00    +0.292 HD
ENDBRANCH  45  50
ENDBRANCH  31  43
BRANCH  37  52
ATOM     52  O   UNL     1      13.496   5.307  23.360  0.00  0.00    -0.507 OA
ATOM     53  H   UNL     1      13.751   5.157  22.432  0.00  0.00    +0.292 HD
ENDBRANCH  37  52
BRANCH  35  54
ATOM     54  O   UNL     1       9.094   6.597  24.534  0.00  0.00    -0.506 OA
ATOM     55  H   UNL     1       8.174   6.257  24.455  0.00  0.00    +0.292 HD
ENDBRANCH  35  54
ENDBRANCH  30  41
ENDBRANCH   1  30
TORSDOF 18
ENDMDL
MODEL 8
REMARK VINA RESULT:      -6.1      2.724      6.504
REMARK  Name = 
REMARK  18 active torsions:
REMARK  status: ('A' for Active; 'I' for Inactive)
REMARK    1  A    between atoms: C_3  and  O_49
REMARK    2  A    between atoms: C_4  and  O_48
REMARK    3  A    between atoms: C_6  and  C_7
REMARK    4  A    between atoms: C_8  and  O_20
REMARK    5  A    between atoms: C_12  and  O_19
REMARK    6  A    between atoms: C_14  and  O_18
REMARK    7  A    between atoms: O_20  and  C_21
REMARK    8  A    between atoms: C_23  and  O_47
REMARK    9  A    between atoms: C_24  and  O_32
REMARK   10  A    between atoms: C_25  and  O_31
REMARK   11  A    between atoms: C_27  and  C_29
REMARK   12  A    between atoms: C_29  and  O_30
REMARK   13  A    between atoms: O_32  and  C_33
REMARK   14  A    between atoms: C_35  and  O_46
REMARK   15  A    between atoms: C_37  and  O_45
REMARK   16  A    between atoms: C_38  and  O_44
REMARK   17  A    between atoms: C_40  and  C_42
REMARK   18  A    between atoms: C_42  and  O_43
REMARK                            x       y       z     vdW  Elec       q    Type
REMARK                         _______ _______ _______ _____ _____    ______ ____
ROOT
ATOM      1  C   UNL     1       8.846   2.060  23.540  0.00  0.00    +0.340 C 
ATOM      2  O   UNL     1       9.330   2.965  24.522  0.00  0.00    -0.331 OA
ATOM      3  C   UNL     1       9.232   4.393  24.279  0.00  0.00    +0.179 C 
ATOM      4  C   UNL     1       7.974   4.877  23.504  0.00  0.00    +0.177 C 
ATOM      5  C   UNL     1       7.141   3.671  23.059  0.00  0.00    +0.187 C 
ATOM      6  C   UNL     1       8.155   2.746  22.351  0.00  0.00    +0.214 C 
ENDROOT
BRANCH   6   7
ATOM      7  O   UNL     1       7.623   1.808  21.421  0.00  0.00    -0.383 OA
ATOM      8  H   UNL     1       7.011   2.275  20.816  0.00  0.00    +0.210 HD
ENDBRANCH   6   7
BRANCH   4   9
ATOM      9  O   UNL     1       8.324   5.671  22.363  0.00  0.00    -0.386 OA
ATOM     10  H   UNL     1       8.828   5.091  21.758  0.00  0.00    +0.210 HD
ENDBRANCH   4   9
BRANCH   5  11
ATOM     11  O   UNL     1       5.991   4.079  22.315  0.00  0.00    -0.340 OA
BRANCH  11  12
ATOM     12  C   UNL     1       4.851   3.252  22.622  0.00  0.00    +0.282 C 
ATOM     13  O   UNL     1       3.691   3.631  21.891  0.00  0.00    -0.341 OA
ATOM     14  C   UNL     1       3.310   5.000  22.111  0.00  0.00    +0.178 C 
ATOM     15  C   UNL     1       3.027   5.274  23.600  0.00  0.00    +0.177 C 
ATOM     16  C   UNL     1       4.158   4.747  24.494  0.00  0.00    +0.179 C 
ATOM     17  C   UNL     1       4.535   3.311  24.122  0.00  0.00    +0.201 C 
BRANCH  17  18
ATOM     18  O   UNL     1       3.443   2.432  24.460  0.00  0.00    -0.384 OA
ATOM     19  H   UNL     1       2.618   2.929  24.252  0.00  0.00    +0.210 HD
ENDBRANCH  17  18
BRANCH  16  20
ATOM     20  O   UNL     1       3.728   4.791  25.865  0.00  0.00    -0.386 OA
ATOM     21  H   UNL     1       3.232   3.959  26.015  0.00  0.00    +0.210 HD
ENDBRANCH  16  20
BRANCH  15  22
ATOM     22  O   UNL     1       1.799   4.634  23.995  0.00  0.00    -0.386 OA
ATOM     23  H   UNL     1       1.928   3.688  23.785  0.00  0.00    +0.210 HD
ENDBRANCH  15  22
BRANCH  14  24
ATOM     24  C   UNL     1       2.088   5.278  21.229  0.00  0.00    +0.190 C 
BRANCH  24  25
ATOM     25  O   UNL     1       2.314   4.878  19.881  0.00  0.00    -0.392 OA
ATOM     26  H   UNL     1       2.487   5.694  19.379  0.00  0.00    +0.210 HD
ENDBRANCH  24  25
ENDBRANCH  14  24
ENDBRANCH  11  12
ENDBRANCH   5  11
BRANCH   3  27
ATOM     27  C   UNL     1      10.553   4.999  23.769  0.00  0.00    +0.190 C 
BRANCH  27  28
ATOM     28  O   UNL     1      10.656   6.384  24.097  0.00  0.00    -0.392 OA
ATOM     29  H   UNL     1      10.257   6.885  23.361  0.00  0.00    +0.210 HD
ENDBRANCH  27  28
ENDBRANCH   3  27
BRANCH   1  30
ATOM     30  O   UNL     1       7.865   1.105  23.957  0.00  0.00    -0.453 OA
BRANCH  30  41
ATOM     31  C   UNL     1       7.415  -0.134  26.060  0.00  0.00    +0.181 A 
ATOM     32  O   UNL     1       7.381  -1.398  26.672  0.00  0.00    -0.451 OA
ATOM     33  C   UNL     1       7.637  -2.515  25.910  0.00  0.00    +0.147 A 
ATOM     34  C   UNL     1       7.556  -2.489  24.525  0.00  0.00    +0.109 A 
ATOM     35  C   UNL     1       7.682  -3.663  23.769  0.00  0.00    +0.135 A 
ATOM     36  C   UNL     1       8.011  -4.858  24.391  0.00  0.00    +0.091 A 
ATOM     37  C   UNL     1       8.205  -4.858  25.769  0.00  0.00    +0.124 A 
ATOM     38  C   UNL     1       7.444  -1.186  23.889  0.00  0.00    +0.238 A 
ATOM     39  O   UNL     1       7.264  -1.113  22.674  0.00  0.00    -0.283 OA
ATOM     40  C   UNL     1       7.979  -3.711  26.539  0.00  0.00    +0.092 A 
ATOM     41  C   UNL     1       7.606   0.041  24.732  0.00  0.00    +0.214 A 
BRANCH  31  43
ATOM     42  C   UNL     1       7.388   0.712  28.424  0.00  0.00    +0.015 A 
ATOM     43  C   UNL     1       7.249   0.949  27.044  0.00  0.00    +0.025 A 
ATOM     44  C   UNL     1       6.982   2.245  26.606  0.00  0.00    +0.060 A 
ATOM     45  C   UNL     1       6.750   3.245  27.540  0.00  0.00    +0.159 A 
ATOM     46  C   UNL     1       6.797   2.985  28.908  0.00  0.00    +0.158 A 
ATOM     47  C   UNL     1       7.149   1.721  29.371  0.00  0.00    +0.050 A 
BRANCH  46  48
ATOM     48  O   UNL     1       6.436   3.998  29.754  0.00  0.00    -0.503 OA
ATOM     49  H   UNL     1       7.152   4.135  30.400  0.00  0.00    +0.292 HD
ENDBRANCH  46  48
BRANCH  45  50
ATOM     50  O   UNL     1       6.421   4.493  27.096  0.00  0.00    -0.503 OA
ATOM     51  H   UNL     1       5.509   4.642  27.417  0.00  0.00    +0.292 HD
ENDBRANCH  45  50
ENDBRANCH  31  43
BRANCH  37  52
ATOM     52  O   UNL     1       8.632  -5.985  26.408  0.00  0.00    -0.507 OA
ATOM     53  H   UNL     1       9.405  -5.759  26.957  0.00  0.00    +0.292 HD
ENDBRANCH  37  52
BRANCH  35  54
ATOM     54  O   UNL     1       7.524  -3.702  22.410  0.00  0.00    -0.506 OA
ATOM     55  H   UNL     1       8.304  -3.267  21.998  0.00  0.00    +0.292 HD
ENDBRANCH  35  54
ENDBRANCH  30  41
ENDBRANCH   1  30
TORSDOF 18
ENDMDL
MODEL 9
REMARK VINA RESULT:      -6.1      2.334      6.481
REMARK  Name = 
REMARK  18 active torsions:
REMARK  status: ('A' for Active; 'I' for Inactive)
REMARK    1  A    between atoms: C_3  and  O_49
REMARK    2  A    between atoms: C_4  and  O_48
REMARK    3  A    between atoms: C_6  and  C_7
REMARK    4  A    between atoms: C_8  and  O_20
REMARK    5  A    between atoms: C_12  and  O_19
REMARK    6  A    between atoms: C_14  and  O_18
REMARK    7  A    between atoms: O_20  and  C_21
REMARK    8  A    between atoms: C_23  and  O_47
REMARK    9  A    between atoms: C_24  and  O_32
REMARK   10  A    between atoms: C_25  and  O_31
REMARK   11  A    between atoms: C_27  and  C_29
REMARK   12  A    between atoms: C_29  and  O_30
REMARK   13  A    between atoms: O_32  and  C_33
REMARK   14  A    between atoms: C_35  and  O_46
REMARK   15  A    between atoms: C_37  and  O_45
REMARK   16  A    between atoms: C_38  and  O_44
REMARK   17  A    between atoms: C_40  and  C_42
REMARK   18  A    between atoms: C_42  and  O_43
REMARK                            x       y       z     vdW  Elec       q    Type
REMARK                         _______ _______ _______ _____ _____    ______ ____
ROOT
ATOM      1  C   UNL     1       5.424  -0.264  27.860  0.00  0.00    +0.340 C 
ATOM      2  O   UNL     1       4.076  -0.289  27.412  0.00  0.00    -0.331 OA
ATOM      3  C   UNL     1       3.411   0.963  27.098  0.00  0.00    +0.179 C 
ATOM      4  C   UNL     1       4.295   2.074  26.463  0.00  0.00    +0.177 C 
ATOM      5  C   UNL     1       5.754   1.611  26.410  0.00  0.00    +0.187 C 
ATOM      6  C   UNL     1       6.057   1.136  27.847  0.00  0.00    +0.214 C 
ENDROOT
BRANCH   6   7
ATOM      7  O   UNL     1       7.426   1.113  28.236  0.00  0.00    -0.383 OA
ATOM      8  H   UNL     1       7.972   1.456  27.499  0.00  0.00    +0.210 HD
ENDBRANCH   6   7
BRANCH   4   9
ATOM      9  O   UNL     1       4.204   3.307  27.188  0.00  0.00    -0.386 OA
ATOM     10  H   UNL     1       3.255   3.461  27.366  0.00  0.00    +0.210 HD
ENDBRANCH   4   9
BRANCH   5  11
ATOM     11  O   UNL     1       6.600   2.623  25.858  0.00  0.00    -0.340 OA
BRANCH  11  12
ATOM     12  C   UNL     1       7.193   2.187  24.619  0.00  0.00    +0.282 C 
ATOM     13  O   UNL     1       8.402   2.875  24.323  0.00  0.00    -0.341 OA
ATOM     14  C   UNL     1       8.235   4.301  24.249  0.00  0.00    +0.178 C 
ATOM     15  C   UNL     1       7.205   4.694  23.172  0.00  0.00    +0.177 C 
ATOM     16  C   UNL     1       5.912   3.878  23.308  0.00  0.00    +0.179 C 
ATOM     17  C   UNL     1       6.212   2.385  23.456  0.00  0.00    +0.201 C 
BRANCH  17  18
ATOM     18  O   UNL     1       6.760   1.886  22.219  0.00  0.00    -0.384 OA
ATOM     19  H   UNL     1       6.184   1.134  21.949  0.00  0.00    +0.210 HD
ENDBRANCH  17  18
BRANCH  16  20
ATOM     20  O   UNL     1       5.102   4.091  22.139  0.00  0.00    -0.386 OA
ATOM     21  H   UNL     1       4.609   3.256  22.000  0.00  0.00    +0.210 HD
ENDBRANCH  16  20
BRANCH  15  22
ATOM     22  O   UNL     1       7.752   4.465  21.860  0.00  0.00    -0.386 OA
ATOM     23  H   UNL     1       7.676   5.326  21.402  0.00  0.00    +0.210 HD
ENDBRANCH  15  22
BRANCH  14  24
ATOM     24  C   UNL     1       9.616   4.907  23.978  0.00  0.00    +0.190 C 
BRANCH  24  25
ATOM     25  O   UNL     1      10.387   4.083  23.109  0.00  0.00    -0.392 OA
ATOM     26  H   UNL     1       9.984   3.197  23.145  0.00  0.00    +0.210 HD
ENDBRANCH  24  25
ENDBRANCH  14  24
ENDBRANCH  11  12
ENDBRANCH   5  11
BRANCH   3  27
ATOM     27  C   UNL     1       2.511   1.459  28.245  0.00  0.00    +0.190 C 
BRANCH  27  28
ATOM     28  O   UNL     1       1.567   2.427  27.791  0.00  0.00    -0.392 OA
ATOM     29  H   UNL     1       1.532   3.134  28.463  0.00  0.00    +0.210 HD
ENDBRANCH  27  28
ENDBRANCH   3  27
BRANCH   1  30
ATOM     30  O   UNL     1       6.373  -1.039  27.120  0.00  0.00    -0.453 OA
BRANCH  30  41
ATOM     31  C   UNL     1       7.317  -2.469  25.325  0.00  0.00    +0.181 A 
ATOM     32  O   UNL     1       7.209  -3.695  24.646  0.00  0.00    -0.451 OA
ATOM     33  C   UNL     1       6.263  -4.605  25.060  0.00  0.00    +0.147 A 
ATOM     34  C   UNL     1       5.682  -4.534  26.318  0.00  0.00    +0.109 A 
ATOM     35  C   UNL     1       4.826  -5.544  26.779  0.00  0.00    +0.135 A 
ATOM     36  C   UNL     1       4.450  -6.576  25.933  0.00  0.00    +0.091 A 
ATOM     37  C   UNL     1       4.944  -6.583  24.633  0.00  0.00    +0.124 A 
ATOM     38  C   UNL     1       5.912  -3.323  27.090  0.00  0.00    +0.238 A 
ATOM     39  O   UNL     1       5.507  -3.253  28.251  0.00  0.00    -0.283 OA
ATOM     40  C   UNL     1       5.879  -5.634  24.202  0.00  0.00    +0.092 A 
ATOM     41  C   UNL     1       6.592  -2.166  26.427  0.00  0.00    +0.214 A 
BRANCH  31  43
ATOM     42  C   UNL     1       9.320  -0.957  25.400  0.00  0.00    +0.015 A 
ATOM     43  C   UNL     1       8.284  -1.571  24.671  0.00  0.00    +0.025 A 
ATOM     44  C   UNL     1       8.199  -1.346  23.299  0.00  0.00    +0.060 A 
ATOM     45  C   UNL     1       9.065  -0.440  22.702  0.00  0.00    +0.159 A 
ATOM     46  C   UNL     1      10.030   0.237  23.445  0.00  0.00    +0.158 A 
ATOM     47  C   UNL     1      10.193  -0.036  24.800  0.00  0.00    +0.050 A 
BRANCH  46  48
ATOM     48  O   UNL     1      10.758   1.201  22.802  0.00  0.00    -0.503 OA
ATOM     49  H   UNL     1      10.142   1.824  22.376  0.00  0.00    +0.292 HD
ENDBRANCH  46  48
BRANCH  45  50
ATOM     50  O   UNL     1       8.924  -0.178  21.371  0.00  0.00    -0.503 OA
ATOM     51  H   UNL     1       9.744  -0.519  20.960  0.00  0.00    +0.292 HD
ENDBRANCH  45  50
ENDBRANCH  31  43
BRANCH  37  52
ATOM     52  O   UNL     1       4.519  -7.517  23.735  0.00  0.00    -0.507 OA
ATOM     53  H   UNL     1       4.292  -7.069  22.900  0.00  0.00    +0.292 HD
ENDBRANCH  37  52
BRANCH  35  54
ATOM     54  O   UNL     1       4.297  -5.563  28.042  0.00  0.00    -0.506 OA
ATOM     55  H   UNL     1       4.483  -6.443  28.439  0.00  0.00    +0.292 HD
ENDBRANCH  35  54
ENDBRANCH  30  41
ENDBRANCH   1  30
TORSDOF 18
ENDMDL
