MODEL 1
REMARK VINA RESULT:      -6.8      0.000      0.000
REMARK  Name = 
REMARK  28 active torsions:
REMARK  status: ('A' for Active; 'I' for Inactive)
REMARK    1  A    between atoms: C_1  and  C_2
REMARK    2  A    between atoms: C_4  and  O_84
REMARK    3  A    between atoms: C_6  and  O_83
REMARK    4  A    between atoms: C_8  and  O_82
REMARK    5  A    between atoms: C_10  and  O_13
REMARK    6  A    between atoms: O_13  and  C_14
REMARK    7  A    between atoms: C_14  and  C_15
REMARK    8  A    between atoms: C_17  and  O_81
REMARK    9  A    between atoms: C_19  and  O_80
REMARK   10  A    between atoms: C_21  and  O_79
REMARK   11  A    between atoms: C_23  and  O_26
REMARK   12  A    between atoms: O_26  and  C_27
REMARK   13  A    between atoms: C_29  and  O_78
REMARK   14  A    between atoms: C_31  and  O_77
REMARK   15  A    between atoms: C_33  and  C_75
REMARK   16  A    between atoms: C_36  and  O_38
REMARK   17  A    between atoms: O_38  and  C_39
REMARK   18  A    between atoms: C_40  and  C_67
REMARK   19  A    between atoms: C_44  and  O_51
REMARK   20  A    between atoms: C_46  and  O_50
REMARK   21  A    between atoms: O_51  and  C_52
REMARK   22  A    between atoms: C_54  and  O_66
REMARK   23  A    between atoms: C_56  and  O_65
REMARK   24  A    between atoms: C_58  and  O_64
REMARK   25  A    between atoms: C_60  and  C_63
REMARK   26  A    between atoms: C_69  and  O_74
REMARK   27  A    between atoms: C_70  and  O_73
REMARK   28  A    between atoms: C_75  and  O_76
REMARK                            x       y       z     vdW  Elec       q    Type
REMARK                         _______ _______ _______ _____ _____    ______ ____
ROOT
ATOM      1  C   UNL     1       5.280  -0.663  27.213  0.00  0.00    +0.221 C 
ATOM      2  C   UNL     1       4.409  -2.305  27.933  0.00  0.00    +0.340 C 
ATOM      3  O   UNL     1       5.125  -3.973  27.549  0.00  0.00    -0.331 OA
ATOM      4  C   UNL     1       6.535  -4.228  26.480  0.00  0.00    +0.179 C 
ATOM      5  C   UNL     1       7.667  -2.752  25.979  0.00  0.00    +0.177 C 
ATOM      6  C   UNL     1       6.881  -0.902  26.084  0.00  0.00    +0.180 C 
ENDROOT
BRANCH   6   7
ATOM      7  O   UNL     1       7.894   0.113  26.211  0.00  0.00    -0.386 OA
ATOM      8  H   UNL     1       7.739   0.746  25.487  0.00  0.00    +0.210 HD
ENDBRANCH   6   7
BRANCH   5   9
ATOM      9  O   UNL     1       8.375  -3.058  24.753  0.00  0.00    -0.386 OA
ATOM     10  H   UNL     1       8.892  -2.266  24.528  0.00  0.00    +0.210 HD
ENDBRANCH   5   9
BRANCH   4  11
ATOM     11  C   UNL     1       7.123  -5.649  26.585  0.00  0.00    +0.190 C 
BRANCH  11  12
ATOM     12  O   UNL     1       7.500  -5.966  27.934  0.00  0.00    -0.392 OA
ATOM     13  H   UNL     1       7.173  -6.861  28.142  0.00  0.00    +0.210 HD
ENDBRANCH  11  12
ENDBRANCH   4  11
BRANCH   2  14
ATOM     14  O   UNL     1       4.617  -2.330  29.296  0.00  0.00    -0.453 OA
BRANCH  14  15
ATOM     15  C   UNL     1       3.445  -3.032  29.448  0.00  0.00    +0.214 A 
ATOM     16  C   UNL     1       3.784  -4.483  29.668  0.00  0.00    +0.238 A 
ATOM     17  O   UNL     1       4.724  -4.816  30.380  0.00  0.00    -0.283 OA
ATOM     18  C   UNL     1       3.080  -5.435  28.814  0.00  0.00    +0.109 A 
ATOM     19  C   UNL     1       1.886  -4.976  28.315  0.00  0.00    +0.147 A 
ATOM     20  C   UNL     1       1.204  -5.811  27.386  0.00  0.00    +0.093 A 
ATOM     21  C   UNL     1       1.717  -7.055  26.916  0.00  0.00    +0.131 A 
ATOM     22  C   UNL     1       2.899  -7.521  27.467  0.00  0.00    +0.092 A 
ATOM     23  O   UNL     1       1.352  -3.720  28.656  0.00  0.00    -0.451 OA
ATOM     24  C   UNL     1       3.588  -6.695  28.388  0.00  0.00    +0.135 A 
ATOM     25  C   UNL     1       2.231  -2.449  29.026  0.00  0.00    +0.181 A 
BRANCH  25  26
ATOM     26  C   UNL     1       1.876  -0.503  28.432  0.00  0.00    +0.025 A 
ATOM     27  C   UNL     1       1.339   0.147  27.142  0.00  0.00    +0.015 A 
ATOM     28  C   UNL     1       1.017   1.487  26.748  0.00  0.00    +0.050 A 
ATOM     29  C   UNL     1       1.193   2.508  27.617  0.00  0.00    +0.158 A 
ATOM     30  C   UNL     1       1.593   2.172  28.880  0.00  0.00    +0.159 A 
ATOM     31  C   UNL     1       1.857   0.807  29.252  0.00  0.00    +0.060 A 
BRANCH  30  32
ATOM     32  O   UNL     1       1.656   3.183  29.809  0.00  0.00    -0.503 OA
ATOM     33  H   UNL     1       0.934   3.817  29.609  0.00  0.00    +0.292 HD
ENDBRANCH  30  32
BRANCH  29  34
ATOM     34  O   UNL     1       0.904   3.779  27.244  0.00  0.00    -0.503 OA
ATOM     35  H   UNL     1       0.981   4.308  28.061  0.00  0.00    +0.292 HD
ENDBRANCH  29  34
ENDBRANCH  25  26
BRANCH  24  36
ATOM     36  O   UNL     1       4.835  -7.098  28.790  0.00  0.00    -0.506 OA
ATOM     37  H   UNL     1       5.306  -7.513  28.049  0.00  0.00    +0.292 HD
ENDBRANCH  24  36
BRANCH  21  38
ATOM     38  O   UNL     1       1.140  -7.548  25.771  0.00  0.00    -0.461 OA
BRANCH  38  39
ATOM     39  C   UNL     1       1.837  -8.215  24.690  0.00  0.00    +0.339 C 
ATOM     40  O   UNL     1       3.251  -7.958  24.565  0.00  0.00    -0.334 OA
ATOM     41  C   UNL     1       3.630  -6.619  24.233  0.00  0.00    +0.150 C 
ATOM     42  C   UNL     1       5.144  -6.577  23.966  0.00  0.00    +0.041 C 
ATOM     43  C   UNL     1       2.891  -5.999  23.032  0.00  0.00    +0.174 C 
ATOM     44  C   UNL     1       1.388  -6.273  23.128  0.00  0.00    +0.180 C 
ATOM     45  C   UNL     1       1.122  -7.770  23.376  0.00  0.00    +0.214 C 
BRANCH  45  46
ATOM     46  O   UNL     1       1.548  -8.576  22.262  0.00  0.00    -0.383 OA
ATOM     47  H   UNL     1       1.619  -9.503  22.556  0.00  0.00    +0.210 HD
ENDBRANCH  45  46
BRANCH  44  48
ATOM     48  O   UNL     1       0.757  -5.857  21.909  0.00  0.00    -0.386 OA
ATOM     49  H   UNL     1       0.635  -6.646  21.351  0.00  0.00    +0.210 HD
ENDBRANCH  44  48
BRANCH  43  50
ATOM     50  O   UNL     1       3.152  -4.587  22.974  0.00  0.00    -0.387 OA
ATOM     51  H   UNL     1       3.958  -4.440  22.453  0.00  0.00    +0.210 HD
ENDBRANCH  43  50
ENDBRANCH  38  39
ENDBRANCH  21  38
ENDBRANCH  14  15
ENDBRANCH   2  14
BRANCH   1  52
ATOM     52  O   UNL     1       4.355   0.327  26.726  0.00  0.00    -0.337 OA
BRANCH  52  55
ATOM     53  C   UNL     1       6.078   3.441  26.210  0.00  0.00    +0.178 C 
ATOM     54  O   UNL     1       5.565   2.130  25.971  0.00  0.00    -0.341 OA
ATOM     55  C   UNL     1       4.817   1.656  27.072  0.00  0.00    +0.282 C 
ATOM     56  C   UNL     1       5.694   1.611  28.342  0.00  0.00    +0.201 C 
ATOM     57  C   UNL     1       6.548   2.880  28.544  0.00  0.00    +0.179 C 
ATOM     58  C   UNL     1       7.183   3.371  27.248  0.00  0.00    +0.177 C 
BRANCH  58  59
ATOM     59  O   UNL     1       7.764   4.666  27.443  0.00  0.00    -0.386 OA
ATOM     60  H   UNL     1       8.548   4.725  26.868  0.00  0.00    +0.210 HD
ENDBRANCH  58  59
BRANCH  57  61
ATOM     61  O   UNL     1       7.592   2.583  29.487  0.00  0.00    -0.386 OA
ATOM     62  H   UNL     1       7.938   1.705  29.255  0.00  0.00    +0.210 HD
ENDBRANCH  57  61
BRANCH  56  63
ATOM     63  O   UNL     1       4.859   1.446  29.504  0.00  0.00    -0.384 OA
ATOM     64  H   UNL     1       3.944   1.457  29.174  0.00  0.00    +0.210 HD
ENDBRANCH  56  63
BRANCH  53  65
ATOM     65  C   UNL     1       6.633   3.943  24.909  0.00  0.00    +0.197 C 
BRANCH  65  66
ATOM     66  O   UNL     1       8.045   3.746  24.961  0.00  0.00    -0.346 OA
BRANCH  66  70
ATOM     67  C   UNL     1       7.283   1.586  21.490  0.00  0.00    +0.041 C 
ATOM     68  C   UNL     1       7.878   0.942  22.740  0.00  0.00    +0.149 C 
ATOM     69  O   UNL     1       7.691   1.770  23.882  0.00  0.00    -0.343 OA
ATOM     70  C   UNL     1       8.424   2.985  23.836  0.00  0.00    +0.282 C 
ATOM     71  C   UNL     1       9.939   2.778  23.838  0.00  0.00    +0.201 C 
ATOM     72  C   UNL     1      10.317   1.747  22.763  0.00  0.00    +0.179 C 
ATOM     73  C   UNL     1       9.359   0.544  22.727  0.00  0.00    +0.174 C 
BRANCH  73  74
ATOM     74  O   UNL     1       9.596  -0.237  23.916  0.00  0.00    -0.387 OA
ATOM     75  H   UNL     1       8.730  -0.384  24.349  0.00  0.00    +0.210 HD
ENDBRANCH  73  74
BRANCH  72  76
ATOM     76  O   UNL     1      10.398   2.384  21.478  0.00  0.00    -0.386 OA
ATOM     77  H   UNL     1      10.089   3.303  21.550  0.00  0.00    +0.210 HD
ENDBRANCH  72  76
BRANCH  71  78
ATOM     78  O   UNL     1      10.577   4.044  23.534  0.00  0.00    -0.384 OA
ATOM     79  H   UNL     1      11.081   4.293  24.337  0.00  0.00    +0.210 HD
ENDBRANCH  71  78
ENDBRANCH  66  70
ENDBRANCH  65  66
ENDBRANCH  53  65
ENDBRANCH  52  55
ENDBRANCH   1  52
TORSDOF 26
ENDMDL
MODEL 2
REMARK VINA RESULT:      -6.5      2.305      8.465
REMARK  Name = 
REMARK  28 active torsions:
REMARK  status: ('A' for Active; 'I' for Inactive)
REMARK    1  A    between atoms: C_1  and  C_2
REMARK    2  A    between atoms: C_4  and  O_84
REMARK    3  A    between atoms: C_6  and  O_83
REMARK    4  A    between atoms: C_8  and  O_82
REMARK    5  A    between atoms: C_10  and  O_13
REMARK    6  A    between atoms: O_13  and  C_14
REMARK    7  A    between atoms: C_14  and  C_15
REMARK    8  A    between atoms: C_17  and  O_81
REMARK    9  A    between atoms: C_19  and  O_80
REMARK   10  A    between atoms: C_21  and  O_79
REMARK   11  A    between atoms: C_23  and  O_26
REMARK   12  A    between atoms: O_26  and  C_27
REMARK   13  A    between atoms: C_29  and  O_78
REMARK   14  A    between atoms: C_31  and  O_77
REMARK   15  A    between atoms: C_33  and  C_75
REMARK   16  A    between atoms: C_36  and  O_38
REMARK   17  A    between atoms: O_38  and  C_39
REMARK   18  A    between atoms: C_40  and  C_67
REMARK   19  A    between atoms: C_44  and  O_51
REMARK   20  A    between atoms: C_46  and  O_50
REMARK   21  A    between atoms: O_51  and  C_52
REMARK   22  A    between atoms: C_54  and  O_66
REMARK   23  A    between atoms: C_56  and  O_65
REMARK   24  A    between atoms: C_58  and  O_64
REMARK   25  A    between atoms: C_60  and  C_63
REMARK   26  A    between atoms: C_69  and  O_74
REMARK   27  A    between atoms: C_70  and  O_73
REMARK   28  A    between atoms: C_75  and  O_76
REMARK                            x       y       z     vdW  Elec       q    Type
REMARK                         _______ _______ _______ _____ _____    ______ ____
ROOT
ATOM      1  C   UNL     1       2.509  -4.014  28.879  0.00  0.00    +0.221 C 
ATOM      2  C   UNL     1       3.080  -3.750  26.987  0.00  0.00    +0.340 C 
ATOM      3  O   UNL     1       2.615  -5.003  25.700  0.00  0.00    -0.331 OA
ATOM      4  C   UNL     1       1.736  -6.518  26.059  0.00  0.00    +0.179 C 
ATOM      5  C   UNL     1       0.845  -6.760  27.749  0.00  0.00    +0.177 C 
ATOM      6  C   UNL     1       1.477  -5.642  29.299  0.00  0.00    +0.180 C 
ENDROOT
BRANCH   6   7
ATOM      7  O   UNL     1       0.465  -5.498  30.313  0.00  0.00    -0.386 OA
ATOM      8  H   UNL     1       0.571  -4.601  30.680  0.00  0.00    +0.210 HD
ENDBRANCH   6   7
BRANCH   5   9
ATOM      9  O   UNL     1       0.675  -8.171  28.028  0.00  0.00    -0.386 OA
ATOM     10  H   UNL     1       1.532  -8.492  28.355  0.00  0.00    +0.210 HD
ENDBRANCH   5   9
BRANCH   4  11
ATOM     11  C   UNL     1       1.193  -7.215  24.795  0.00  0.00    +0.190 C 
BRANCH  11  12
ATOM     12  O   UNL     1       2.197  -8.028  24.169  0.00  0.00    -0.392 OA
ATOM     13  H   UNL     1       1.755  -8.647  23.558  0.00  0.00    +0.210 HD
ENDBRANCH  11  12
ENDBRANCH   4  11
BRANCH   2  14
ATOM     14  O   UNL     1       2.362  -2.691  26.473  0.00  0.00    -0.453 OA
BRANCH  14  15
ATOM     15  C   UNL     1       3.466  -1.887  26.625  0.00  0.00    +0.214 A 
ATOM     16  C   UNL     1       3.105  -0.752  27.547  0.00  0.00    +0.238 A 
ATOM     17  O   UNL     1       2.415  -0.937  28.543  0.00  0.00    -0.283 OA
ATOM     18  C   UNL     1       3.431   0.586  27.063  0.00  0.00    +0.109 A 
ATOM     19  C   UNL     1       4.438   0.624  26.131  0.00  0.00    +0.147 A 
ATOM     20  C   UNL     1       4.729   1.884  25.536  0.00  0.00    +0.093 A 
ATOM     21  C   UNL     1       4.002   3.078  25.817  0.00  0.00    +0.131 A 
ATOM     22  C   UNL     1       3.021   3.027  26.794  0.00  0.00    +0.092 A 
ATOM     23  O   UNL     1       5.145  -0.523  25.728  0.00  0.00    -0.451 OA
ATOM     24  C   UNL     1       2.722   1.777  27.388  0.00  0.00    +0.135 A 
ATOM     25  C   UNL     1       4.526  -1.986  25.698  0.00  0.00    +0.181 A 
BRANCH  25  26
ATOM     26  C   UNL     1       4.821  -3.408  24.228  0.00  0.00    +0.025 A 
ATOM     27  C   UNL     1       5.336  -3.363  22.777  0.00  0.00    +0.015 A 
ATOM     28  C   UNL     1       5.617  -4.352  21.777  0.00  0.00    +0.050 A 
ATOM     29  C   UNL     1       5.410  -5.661  22.044  0.00  0.00    +0.158 A 
ATOM     30  C   UNL     1       5.021  -5.970  23.317  0.00  0.00    +0.159 A 
ATOM     31  C   UNL     1       4.800  -4.950  24.309  0.00  0.00    +0.060 A 
BRANCH  30  32
ATOM     32  O   UNL     1       4.929  -7.303  23.639  0.00  0.00    -0.503 OA
ATOM     33  H   UNL     1       5.360  -7.814  22.922  0.00  0.00    +0.292 HD
ENDBRANCH  30  32
BRANCH  29  34
ATOM     34  O   UNL     1       5.660  -6.599  21.097  0.00  0.00    -0.503 OA
ATOM     35  H   UNL     1       5.341  -7.439  21.479  0.00  0.00    +0.292 HD
ENDBRANCH  29  34
ENDBRANCH  25  26
BRANCH  24  36
ATOM     36  O   UNL     1       1.638   1.718  28.226  0.00  0.00    -0.506 OA
ATOM     37  H   UNL     1       1.412   2.608  28.541  0.00  0.00    +0.292 HD
ENDBRANCH  24  36
BRANCH  21  38
ATOM     38  O   UNL     1       4.149   4.098  24.910  0.00  0.00    -0.461 OA
BRANCH  38  39
ATOM     39  C   UNL     1       3.949   3.997  23.478  0.00  0.00    +0.339 C 
ATOM     40  O   UNL     1       4.785   3.063  22.765  0.00  0.00    -0.334 OA
ATOM     41  C   UNL     1       6.187   3.352  22.737  0.00  0.00    +0.150 C 
ATOM     42  C   UNL     1       6.885   2.361  21.791  0.00  0.00    +0.041 C 
ATOM     43  C   UNL     1       6.559   4.788  22.325  0.00  0.00    +0.174 C 
ATOM     44  C   UNL     1       5.673   5.802  23.053  0.00  0.00    +0.180 C 
ATOM     45  C   UNL     1       4.185   5.429  22.906  0.00  0.00    +0.214 C 
BRANCH  45  46
ATOM     46  O   UNL     1       3.749   5.513  21.538  0.00  0.00    -0.383 OA
ATOM     47  H   UNL     1       4.362   4.994  20.983  0.00  0.00    +0.210 HD
ENDBRANCH  45  46
BRANCH  44  48
ATOM     48  O   UNL     1       5.908   7.108  22.507  0.00  0.00    -0.386 OA
ATOM     49  H   UNL     1       6.855   7.309  22.610  0.00  0.00    +0.210 HD
ENDBRANCH  44  48
BRANCH  43  50
ATOM     50  O   UNL     1       7.948   5.031  22.600  0.00  0.00    -0.387 OA
ATOM     51  H   UNL     1       8.458   4.245  22.346  0.00  0.00    +0.210 HD
ENDBRANCH  43  50
ENDBRANCH  38  39
ENDBRANCH  21  38
ENDBRANCH  14  15
ENDBRANCH   2  14
BRANCH   1  52
ATOM     52  O   UNL     1       3.522  -3.688  29.849  0.00  0.00    -0.337 OA
BRANCH  52  55
ATOM     53  C   UNL     1       6.480  -4.211  27.873  0.00  0.00    +0.178 C 
ATOM     54  O   UNL     1       5.240  -3.663  28.322  0.00  0.00    -0.341 OA
ATOM     55  C   UNL     1       4.778  -4.313  29.489  0.00  0.00    +0.282 C 
ATOM     56  C   UNL     1       4.577  -5.821  29.224  0.00  0.00    +0.201 C 
ATOM     57  C   UNL     1       5.744  -6.471  28.452  0.00  0.00    +0.179 C 
ATOM     58  C   UNL     1       6.245  -5.599  27.306  0.00  0.00    +0.177 C 
BRANCH  58  59
ATOM     59  O   UNL     1       7.465  -6.133  26.778  0.00  0.00    -0.386 OA
ATOM     60  H   UNL     1       7.968  -6.508  27.524  0.00  0.00    +0.210 HD
ENDBRANCH  58  59
BRANCH  57  61
ATOM     61  O   UNL     1       5.294  -7.727  27.916  0.00  0.00    -0.386 OA
ATOM     62  H   UNL     1       4.899  -7.537  27.049  0.00  0.00    +0.210 HD
ENDBRANCH  57  61
BRANCH  56  63
ATOM     63  O   UNL     1       4.426  -6.519  30.474  0.00  0.00    -0.384 OA
ATOM     64  H   UNL     1       4.762  -5.912  31.156  0.00  0.00    +0.210 HD
ENDBRANCH  56  63
BRANCH  53  65
ATOM     65  C   UNL     1       7.001  -3.304  26.797  0.00  0.00    +0.197 C 
BRANCH  65  66
ATOM     66  O   UNL     1       8.420  -3.456  26.782  0.00  0.00    -0.346 OA
BRANCH  66  70
ATOM     67  C   UNL     1      10.339  -0.109  25.230  0.00  0.00    +0.041 C 
ATOM     68  C   UNL     1       8.875  -0.423  24.934  0.00  0.00    +0.149 C 
ATOM     69  O   UNL     1       8.357  -1.374  25.856  0.00  0.00    -0.343 OA
ATOM     70  C   UNL     1       8.935  -2.666  25.734  0.00  0.00    +0.282 C 
ATOM     71  C   UNL     1       8.641  -3.334  24.390  0.00  0.00    +0.201 C 
ATOM     72  C   UNL     1       8.974  -2.359  23.249  0.00  0.00    +0.179 C 
ATOM     73  C   UNL     1       8.499  -0.924  23.534  0.00  0.00    +0.174 C 
BRANCH  73  74
ATOM     74  O   UNL     1       7.060  -0.917  23.456  0.00  0.00    -0.387 OA
ATOM     75  H   UNL     1       6.723  -0.466  24.258  0.00  0.00    +0.210 HD
ENDBRANCH  73  74
BRANCH  72  76
ATOM     76  O   UNL     1      10.381  -2.394  22.967  0.00  0.00    -0.386 OA
ATOM     77  H   UNL     1      10.852  -2.813  23.708  0.00  0.00    +0.210 HD
ENDBRANCH  72  76
BRANCH  71  78
ATOM     78  O   UNL     1       9.474  -4.514  24.270  0.00  0.00    -0.384 OA
ATOM     79  H   UNL     1      10.393  -4.188  24.177  0.00  0.00    +0.210 HD
ENDBRANCH  71  78
ENDBRANCH  66  70
ENDBRANCH  65  66
ENDBRANCH  53  65
ENDBRANCH  52  55
ENDBRANCH   1  52
TORSDOF 26
ENDMDL
MODEL 3
REMARK VINA RESULT:      -6.2      2.686     10.071
REMARK  Name = 
REMARK  28 active torsions:
REMARK  status: ('A' for Active; 'I' for Inactive)
REMARK    1  A    between atoms: C_1  and  C_2
REMARK    2  A    between atoms: C_4  and  O_84
REMARK    3  A    between atoms: C_6  and  O_83
REMARK    4  A    between atoms: C_8  and  O_82
REMARK    5  A    between atoms: C_10  and  O_13
REMARK    6  A    between atoms: O_13  and  C_14
REMARK    7  A    between atoms: C_14  and  C_15
REMARK    8  A    between atoms: C_17  and  O_81
REMARK    9  A    between atoms: C_19  and  O_80
REMARK   10  A    between atoms: C_21  and  O_79
REMARK   11  A    between atoms: C_23  and  O_26
REMARK   12  A    between atoms: O_26  and  C_27
REMARK   13  A    between atoms: C_29  and  O_78
REMARK   14  A    between atoms: C_31  and  O_77
REMARK   15  A    between atoms: C_33  and  C_75
REMARK   16  A    between atoms: C_36  and  O_38
REMARK   17  A    between atoms: O_38  and  C_39
REMARK   18  A    between atoms: C_40  and  C_67
REMARK   19  A    between atoms: C_44  and  O_51
REMARK   20  A    between atoms: C_46  and  O_50
REMARK   21  A    between atoms: O_51  and  C_52
REMARK   22  A    between atoms: C_54  and  O_66
REMARK   23  A    between atoms: C_56  and  O_65
REMARK   24  A    between atoms: C_58  and  O_64
REMARK   25  A    between atoms: C_60  and  C_63
REMARK   26  A    between atoms: C_69  and  O_74
REMARK   27  A    between atoms: C_70  and  O_73
REMARK   28  A    between atoms: C_75  and  O_76
REMARK                            x       y       z     vdW  Elec       q    Type
REMARK                         _______ _______ _______ _____ _____    ______ ____
ROOT
ATOM      1  C   UNL     1       4.892  -0.846  26.388  0.00  0.00    +0.221 C 
ATOM      2  C   UNL     1       5.153   0.893  27.329  0.00  0.00    +0.340 C 
ATOM      3  O   UNL     1       3.773   1.608  28.342  0.00  0.00    -0.331 OA
ATOM      4  C   UNL     1       2.150   0.871  28.475  0.00  0.00    +0.179 C 
ATOM      5  C   UNL     1       1.846  -0.943  27.903  0.00  0.00    +0.177 C 
ATOM      6  C   UNL     1       3.135  -1.723  26.568  0.00  0.00    +0.180 C 
ENDROOT
BRANCH   6   7
ATOM      7  O   UNL     1       3.155  -3.163  26.609  0.00  0.00    -0.386 OA
ATOM      8  H   UNL     1       2.898  -3.414  27.515  0.00  0.00    +0.210 HD
ENDBRANCH   6   7
BRANCH   5   9
ATOM      9  O   UNL     1       0.443  -1.145  27.605  0.00  0.00    -0.386 OA
ATOM     10  H   UNL     1       0.001  -0.295  27.770  0.00  0.00    +0.210 HD
ENDBRANCH   5   9
BRANCH   4  11
ATOM     11  C   UNL     1       1.306   1.471  29.617  0.00  0.00    +0.190 C 
BRANCH  11  12
ATOM     12  O   UNL     1       1.515   2.886  29.741  0.00  0.00    -0.392 OA
ATOM     13  H   UNL     1       1.101   3.326  28.975  0.00  0.00    +0.210 HD
ENDBRANCH  11  12
ENDBRANCH   4  11
BRANCH   2  14
ATOM     14  O   UNL     1       6.044   0.686  28.360  0.00  0.00    -0.453 OA
BRANCH  14  15
ATOM     15  C   UNL     1       6.721   1.821  27.985  0.00  0.00    +0.214 A 
ATOM     16  C   UNL     1       6.000   3.015  28.553  0.00  0.00    +0.238 A 
ATOM     17  O   UNL     1       5.536   2.998  29.687  0.00  0.00    -0.283 OA
ATOM     18  C   UNL     1       5.698   4.083  27.605  0.00  0.00    +0.109 A 
ATOM     19  C   UNL     1       6.516   4.112  26.502  0.00  0.00    +0.147 A 
ATOM     20  C   UNL     1       6.204   5.058  25.485  0.00  0.00    +0.093 A 
ATOM     21  C   UNL     1       5.073   5.924  25.530  0.00  0.00    +0.131 A 
ATOM     22  C   UNL     1       4.288   5.911  26.672  0.00  0.00    +0.092 A 
ATOM     23  O   UNL     1       7.599   3.231  26.336  0.00  0.00    -0.451 OA
ATOM     24  C   UNL     1       4.587   4.970  27.687  0.00  0.00    +0.135 A 
ATOM     25  C   UNL     1       7.645   1.755  26.920  0.00  0.00    +0.181 A 
BRANCH  25  26
ATOM     26  C   UNL     1       8.380   0.082  25.956  0.00  0.00    +0.025 A 
ATOM     27  C   UNL     1       9.134  -0.153  24.634  0.00  0.00    +0.015 A 
ATOM     28  C   UNL     1       9.715  -1.298  23.995  0.00  0.00    +0.050 A 
ATOM     29  C   UNL     1       9.639  -2.512  24.584  0.00  0.00    +0.158 A 
ATOM     30  C   UNL     1       9.074  -2.552  25.828  0.00  0.00    +0.159 A 
ATOM     31  C   UNL     1       8.548  -1.370  26.458  0.00  0.00    +0.060 A 
BRANCH  30  32
ATOM     32  O   UNL     1       9.102  -3.755  26.492  0.00  0.00    -0.503 OA
ATOM     33  H   UNL     1       9.729  -3.668  27.241  0.00  0.00    +0.292 HD
ENDBRANCH  30  32
BRANCH  29  34
ATOM     34  O   UNL     1      10.174  -3.600  23.977  0.00  0.00    -0.503 OA
ATOM     35  H   UNL     1      10.402  -4.211  24.704  0.00  0.00    +0.292 HD
ENDBRANCH  29  34
ENDBRANCH  25  26
BRANCH  24  36
ATOM     36  O   UNL     1       3.701   4.858  28.727  0.00  0.00    -0.506 OA
ATOM     37  H   UNL     1       3.854   4.028  29.207  0.00  0.00    +0.292 HD
ENDBRANCH  24  36
BRANCH  21  38
ATOM     38  O   UNL     1       4.706   6.495  24.336  0.00  0.00    -0.461 OA
BRANCH  38  39
ATOM     39  C   UNL     1       5.078   6.020  23.019  0.00  0.00    +0.339 C 
ATOM     40  O   UNL     1       4.426   6.639  21.891  0.00  0.00    -0.334 OA
ATOM     41  C   UNL     1       3.015   6.430  21.773  0.00  0.00    +0.150 C 
ATOM     42  C   UNL     1       2.533   7.004  20.431  0.00  0.00    +0.041 C 
ATOM     43  C   UNL     1       2.551   4.966  21.890  0.00  0.00    +0.174 C 
ATOM     44  C   UNL     1       3.242   4.276  23.069  0.00  0.00    +0.180 C 
ATOM     45  C   UNL     1       4.766   4.490  23.008  0.00  0.00    +0.214 C 
BRANCH  45  46
ATOM     46  O   UNL     1       5.345   3.857  21.852  0.00  0.00    -0.383 OA
ATOM     47  H   UNL     1       6.314   3.830  21.964  0.00  0.00    +0.210 HD
ENDBRANCH  45  46
BRANCH  44  48
ATOM     48  O   UNL     1       2.941   2.874  23.033  0.00  0.00    -0.386 OA
ATOM     49  H   UNL     1       3.545   2.454  22.394  0.00  0.00    +0.210 HD
ENDBRANCH  44  48
BRANCH  43  50
ATOM     50  O   UNL     1       1.122   4.917  22.033  0.00  0.00    -0.387 OA
ATOM     51  H   UNL     1       0.726   4.760  21.160  0.00  0.00    +0.210 HD
ENDBRANCH  43  50
ENDBRANCH  38  39
ENDBRANCH  21  38
ENDBRANCH  14  15
ENDBRANCH   2  14
BRANCH   1  52
ATOM     52  O   UNL     1       5.438  -0.880  25.056  0.00  0.00    -0.337 OA
BRANCH  52  55
ATOM     53  C   UNL     1       5.686  -4.466  25.118  0.00  0.00    +0.178 C 
ATOM     54  O   UNL     1       5.728  -3.106  25.550  0.00  0.00    -0.341 OA
ATOM     55  C   UNL     1       5.352  -2.221  24.515  0.00  0.00    +0.282 C 
ATOM     56  C   UNL     1       6.295  -2.376  23.302  0.00  0.00    +0.201 C 
ATOM     57  C   UNL     1       6.575  -3.846  22.926  0.00  0.00    +0.179 C 
ATOM     58  C   UNL     1       6.822  -4.726  24.147  0.00  0.00    +0.177 C 
BRANCH  58  59
ATOM     59  O   UNL     1       6.843  -6.106  23.764  0.00  0.00    -0.386 OA
ATOM     60  H   UNL     1       6.950  -6.139  22.796  0.00  0.00    +0.210 HD
ENDBRANCH  58  59
BRANCH  57  61
ATOM     61  O   UNL     1       7.740  -3.888  22.083  0.00  0.00    -0.386 OA
ATOM     62  H   UNL     1       7.707  -4.731  21.601  0.00  0.00    +0.210 HD
ENDBRANCH  57  61
BRANCH  56  63
ATOM     63  O   UNL     1       5.722  -1.724  22.153  0.00  0.00    -0.384 OA
ATOM     64  H   UNL     1       4.788  -1.996  22.135  0.00  0.00    +0.210 HD
ENDBRANCH  56  63
BRANCH  53  65
ATOM     65  C   UNL     1       5.854  -5.323  26.339  0.00  0.00    +0.197 C 
BRANCH  65  66
ATOM     66  O   UNL     1       5.262  -6.587  26.038  0.00  0.00    -0.346 OA
BRANCH  66  70
ATOM     67  C   UNL     1       1.356  -7.490  27.141  0.00  0.00    +0.041 C 
ATOM     68  C   UNL     1       2.003  -6.143  27.453  0.00  0.00    +0.149 C 
ATOM     69  O   UNL     1       3.169  -5.938  26.664  0.00  0.00    -0.343 OA
ATOM     70  C   UNL     1       4.235  -6.824  26.974  0.00  0.00    +0.282 C 
ATOM     71  C   UNL     1       4.777  -6.642  28.393  0.00  0.00    +0.201 C 
ATOM     72  C   UNL     1       3.609  -6.651  29.392  0.00  0.00    +0.179 C 
ATOM     73  C   UNL     1       2.399  -5.836  28.903  0.00  0.00    +0.174 C 
BRANCH  73  74
ATOM     74  O   UNL     1       2.762  -4.442  28.955  0.00  0.00    -0.387 OA
ATOM     75  H   UNL     1       2.472  -4.094  29.824  0.00  0.00    +0.210 HD
ENDBRANCH  73  74
BRANCH  72  76
ATOM     76  O   UNL     1       3.235  -8.002  29.700  0.00  0.00    -0.386 OA
ATOM     77  H   UNL     1       4.034  -8.542  29.825  0.00  0.00    +0.210 HD
ENDBRANCH  72  76
BRANCH  71  78
ATOM     78  O   UNL     1       5.669  -7.745  28.689  0.00  0.00    -0.384 OA
ATOM     79  H   UNL     1       6.294  -7.798  27.936  0.00  0.00    +0.210 HD
ENDBRANCH  71  78
ENDBRANCH  66  70
ENDBRANCH  65  66
ENDBRANCH  53  65
ENDBRANCH  52  55
ENDBRANCH   1  52
TORSDOF 26
ENDMDL
MODEL 4
REMARK VINA RESULT:      -6.2      2.909     10.037
REMARK  Name = 
REMARK  28 active torsions:
REMARK  status: ('A' for Active; 'I' for Inactive)
REMARK    1  A    between atoms: C_1  and  C_2
REMARK    2  A    between atoms: C_4  and  O_84
REMARK    3  A    between atoms: C_6  and  O_83
REMARK    4  A    between atoms: C_8  and  O_82
REMARK    5  A    between atoms: C_10  and  O_13
REMARK    6  A    between atoms: O_13  and  C_14
REMARK    7  A    between atoms: C_14  and  C_15
REMARK    8  A    between atoms: C_17  and  O_81
REMARK    9  A    between atoms: C_19  and  O_80
REMARK   10  A    between atoms: C_21  and  O_79
REMARK   11  A    between atoms: C_23  and  O_26
REMARK   12  A    between atoms: O_26  and  C_27
REMARK   13  A    between atoms: C_29  and  O_78
REMARK   14  A    between atoms: C_31  and  O_77
REMARK   15  A    between atoms: C_33  and  C_75
REMARK   16  A    between atoms: C_36  and  O_38
REMARK   17  A    between atoms: O_38  and  C_39
REMARK   18  A    between atoms: C_40  and  C_67
REMARK   19  A    between atoms: C_44  and  O_51
REMARK   20  A    between atoms: C_46  and  O_50
REMARK   21  A    between atoms: O_51  and  C_52
REMARK   22  A    between atoms: C_54  and  O_66
REMARK   23  A    between atoms: C_56  and  O_65
REMARK   24  A    between atoms: C_58  and  O_64
REMARK   25  A    between atoms: C_60  and  C_63
REMARK   26  A    between atoms: C_69  and  O_74
REMARK   27  A    between atoms: C_70  and  O_73
REMARK   28  A    between atoms: C_75  and  O_76
REMARK                            x       y       z     vdW  Elec       q    Type
REMARK                         _______ _______ _______ _____ _____    ______ ____
ROOT
ATOM      1  C   UNL     1       5.546  -0.208  25.781  0.00  0.00    +0.221 C 
ATOM      2  C   UNL     1       5.759   1.738  26.159  0.00  0.00    +0.340 C 
ATOM      3  O   UNL     1       4.465   2.634  27.140  0.00  0.00    -0.331 OA
ATOM      4  C   UNL     1       2.954   1.875  27.721  0.00  0.00    +0.179 C 
ATOM      5  C   UNL     1       2.755  -0.041  27.721  0.00  0.00    +0.177 C 
ATOM      6  C   UNL     1       3.923  -1.095  26.466  0.00  0.00    +0.180 C 
ENDROOT
BRANCH   6   7
ATOM      7  O   UNL     1       4.088  -2.460  26.895  0.00  0.00    -0.386 OA
ATOM      8  H   UNL     1       3.271  -2.699  27.369  0.00  0.00    +0.210 HD
ENDBRANCH   6   7
BRANCH   5   9
ATOM      9  O   UNL     1       1.351  -0.398  27.712  0.00  0.00    -0.386 OA
ATOM     10  H   UNL     1       0.866   0.381  28.035  0.00  0.00    +0.210 HD
ENDBRANCH   5   9
BRANCH   4  11
ATOM     11  C   UNL     1       2.216   2.726  28.773  0.00  0.00    +0.190 C 
BRANCH  11  12
ATOM     12  O   UNL     1       0.887   3.062  28.342  0.00  0.00    -0.392 OA
ATOM     13  H   UNL     1       0.578   3.825  28.865  0.00  0.00    +0.210 HD
ENDBRANCH  11  12
ENDBRANCH   4  11
BRANCH   2  14
ATOM     14  O   UNL     1       6.797   1.883  27.055  0.00  0.00    -0.453 OA
BRANCH  14  15
ATOM     15  C   UNL     1       7.107   3.092  26.480  0.00  0.00    +0.214 A 
ATOM     16  C   UNL     1       6.388   4.178  27.235  0.00  0.00    +0.238 A 
ATOM     17  O   UNL     1       6.304   4.154  28.458  0.00  0.00    -0.283 OA
ATOM     18  C   UNL     1       5.620   5.116  26.421  0.00  0.00    +0.109 A 
ATOM     19  C   UNL     1       6.043   5.214  25.118  0.00  0.00    +0.147 A 
ATOM     20  C   UNL     1       5.268   6.025  24.242  0.00  0.00    +0.093 A 
ATOM     21  C   UNL     1       4.065   6.686  24.631  0.00  0.00    +0.131 A 
ATOM     22  C   UNL     1       3.684   6.610  25.961  0.00  0.00    +0.092 A 
ATOM     23  O   UNL     1       7.165   4.524  24.628  0.00  0.00    -0.451 OA
ATOM     24  C   UNL     1       4.445   5.802  26.839  0.00  0.00    +0.135 A 
ATOM     25  C   UNL     1       7.657   3.117  25.180  0.00  0.00    +0.181 A 
BRANCH  25  26
ATOM     26  C   UNL     1       8.356   1.537  24.047  0.00  0.00    +0.025 A 
ATOM     27  C   UNL     1       8.551   1.299  22.538  0.00  0.00    +0.015 A 
ATOM     28  C   UNL     1       9.106   0.239  21.748  0.00  0.00    +0.050 A 
ATOM     29  C   UNL     1       9.593  -0.869  22.351  0.00  0.00    +0.158 A 
ATOM     30  C   UNL     1       9.604  -0.864  23.718  0.00  0.00    +0.159 A 
ATOM     31  C   UNL     1       9.084   0.244  24.475  0.00  0.00    +0.060 A 
BRANCH  30  32
ATOM     32  O   UNL     1      10.209  -1.928  24.344  0.00  0.00    -0.503 OA
ATOM     33  H   UNL     1      10.215  -2.681  23.716  0.00  0.00    +0.292 HD
ENDBRANCH  30  32
BRANCH  29  34
ATOM     34  O   UNL     1      10.105  -1.881  21.609  0.00  0.00    -0.503 OA
ATOM     35  H   UNL     1       9.383  -2.148  21.009  0.00  0.00    +0.292 HD
ENDBRANCH  29  34
ENDBRANCH  25  26
BRANCH  24  36
ATOM     36  O   UNL     1       3.955   5.606  28.104  0.00  0.00    -0.506 OA
ATOM     37  H   UNL     1       4.545   6.018  28.757  0.00  0.00    +0.292 HD
ENDBRANCH  24  36
BRANCH  21  38
ATOM     38  O   UNL     1       3.253   7.107  23.607  0.00  0.00    -0.461 OA
BRANCH  38  39
ATOM     39  C   UNL     1       1.898   6.660  23.360  0.00  0.00    +0.339 C 
ATOM     40  O   UNL     1       1.451   5.495  24.084  0.00  0.00    -0.334 OA
ATOM     41  C   UNL     1       2.113   4.262  23.782  0.00  0.00    +0.150 C 
ATOM     42  C   UNL     1       1.390   3.115  24.505  0.00  0.00    +0.041 C 
ATOM     43  C   UNL     1       2.226   3.920  22.284  0.00  0.00    +0.174 C 
ATOM     44  C   UNL     1       2.681   5.146  21.487  0.00  0.00    +0.180 C 
ATOM     45  C   UNL     1       1.811   6.371  21.829  0.00  0.00    +0.214 C 
BRANCH  45  46
ATOM     46  O   UNL     1       0.444   6.182  21.419  0.00  0.00    -0.383 OA
ATOM     47  H   UNL     1      -0.118   6.811  21.908  0.00  0.00    +0.210 HD
ENDBRANCH  45  46
BRANCH  44  48
ATOM     48  O   UNL     1       2.589   4.854  20.086  0.00  0.00    -0.386 OA
ATOM     49  H   UNL     1       1.895   5.423  19.706  0.00  0.00    +0.210 HD
ENDBRANCH  44  48
BRANCH  43  50
ATOM     50  O   UNL     1       3.136   2.823  22.101  0.00  0.00    -0.387 OA
ATOM     51  H   UNL     1       4.023   3.179  21.929  0.00  0.00    +0.210 HD
ENDBRANCH  43  50
ENDBRANCH  38  39
ENDBRANCH  21  38
ENDBRANCH  14  15
ENDBRANCH   2  14
BRANCH   1  52
ATOM     52  O   UNL     1       5.910  -0.589  24.442  0.00  0.00    -0.337 OA
BRANCH  52  55
ATOM     53  C   UNL     1       7.081  -3.859  25.372  0.00  0.00    +0.178 C 
ATOM     54  O   UNL     1       6.892  -2.444  25.380  0.00  0.00    -0.341 OA
ATOM     55  C   UNL     1       6.023  -2.030  24.345  0.00  0.00    +0.282 C 
ATOM     56  C   UNL     1       6.591  -2.438  22.968  0.00  0.00    +0.201 C 
ATOM     57  C   UNL     1       7.122  -3.885  22.927  0.00  0.00    +0.179 C 
ATOM     58  C   UNL     1       7.923  -4.251  24.172  0.00  0.00    +0.177 C 
BRANCH  58  59
ATOM     59  O   UNL     1       8.189  -5.658  24.191  0.00  0.00    -0.386 OA
ATOM     60  H   UNL     1       9.027  -5.791  24.670  0.00  0.00    +0.210 HD
ENDBRANCH  58  59
BRANCH  57  61
ATOM     61  O   UNL     1       7.970  -4.028  21.773  0.00  0.00    -0.386 OA
ATOM     62  H   UNL     1       8.162  -4.976  21.681  0.00  0.00    +0.210 HD
ENDBRANCH  57  61
BRANCH  56  63
ATOM     63  O   UNL     1       5.568  -2.310  21.963  0.00  0.00    -0.384 OA
ATOM     64  H   UNL     1       6.029  -2.375  21.108  0.00  0.00    +0.210 HD
ENDBRANCH  56  63
BRANCH  53  65
ATOM     65  C   UNL     1       7.803  -4.216  26.638  0.00  0.00    +0.197 C 
BRANCH  65  66
ATOM     66  O   UNL     1       7.305  -5.489  27.050  0.00  0.00    -0.346 OA
BRANCH  66  70
ATOM     67  C   UNL     1       4.527  -3.574  29.481  0.00  0.00    +0.041 C 
ATOM     68  C   UNL     1       4.948  -5.024  29.705  0.00  0.00    +0.149 C 
ATOM     69  O   UNL     1       6.152  -5.322  29.009  0.00  0.00    -0.343 OA
ATOM     70  C   UNL     1       6.019  -5.301  27.596  0.00  0.00    +0.282 C 
ATOM     71  C   UNL     1       5.070  -6.375  27.062  0.00  0.00    +0.201 C 
ATOM     72  C   UNL     1       3.747  -6.324  27.844  0.00  0.00    +0.179 C 
ATOM     73  C   UNL     1       3.955  -6.140  29.357  0.00  0.00    +0.174 C 
BRANCH  73  74
ATOM     74  O   UNL     1       4.503  -7.368  29.874  0.00  0.00    -0.387 OA
ATOM     75  H   UNL     1       3.789  -8.039  29.861  0.00  0.00    +0.210 HD
ENDBRANCH  73  74
BRANCH  72  76
ATOM     76  O   UNL     1       2.899  -5.297  27.308  0.00  0.00    -0.386 OA
ATOM     77  H   UNL     1       2.788  -5.432  26.351  0.00  0.00    +0.210 HD
ENDBRANCH  72  76
BRANCH  71  78
ATOM     78  O   UNL     1       4.810  -6.105  25.662  0.00  0.00    -0.384 OA
ATOM     79  H   UNL     1       4.773  -6.979  25.220  0.00  0.00    +0.210 HD
ENDBRANCH  71  78
ENDBRANCH  66  70
ENDBRANCH  65  66
ENDBRANCH  53  65
ENDBRANCH  52  55
ENDBRANCH   1  52
TORSDOF 26
ENDMDL
MODEL 5
REMARK VINA RESULT:      -6.0      2.726      8.767
REMARK  Name = 
REMARK  28 active torsions:
REMARK  status: ('A' for Active; 'I' for Inactive)
REMARK    1  A    between atoms: C_1  and  C_2
REMARK    2  A    between atoms: C_4  and  O_84
REMARK    3  A    between atoms: C_6  and  O_83
REMARK    4  A    between atoms: C_8  and  O_82
REMARK    5  A    between atoms: C_10  and  O_13
REMARK    6  A    between atoms: O_13  and  C_14
REMARK    7  A    between atoms: C_14  and  C_15
REMARK    8  A    between atoms: C_17  and  O_81
REMARK    9  A    between atoms: C_19  and  O_80
REMARK   10  A    between atoms: C_21  and  O_79
REMARK   11  A    between atoms: C_23  and  O_26
REMARK   12  A    between atoms: O_26  and  C_27
REMARK   13  A    between atoms: C_29  and  O_78
REMARK   14  A    between atoms: C_31  and  O_77
REMARK   15  A    between atoms: C_33  and  C_75
REMARK   16  A    between atoms: C_36  and  O_38
REMARK   17  A    between atoms: O_38  and  C_39
REMARK   18  A    between atoms: C_40  and  C_67
REMARK   19  A    between atoms: C_44  and  O_51
REMARK   20  A    between atoms: C_46  and  O_50
REMARK   21  A    between atoms: O_51  and  C_52
REMARK   22  A    between atoms: C_54  and  O_66
REMARK   23  A    between atoms: C_56  and  O_65
REMARK   24  A    between atoms: C_58  and  O_64
REMARK   25  A    between atoms: C_60  and  C_63
REMARK   26  A    between atoms: C_69  and  O_74
REMARK   27  A    between atoms: C_70  and  O_73
REMARK   28  A    between atoms: C_75  and  O_76
REMARK                            x       y       z     vdW  Elec       q    Type
REMARK                         _______ _______ _______ _____ _____    ______ ____
ROOT
ATOM      1  C   UNL     1       5.098   2.867  25.438  0.00  0.00    +0.221 C 
ATOM      2  C   UNL     1       6.004   3.176  23.689  0.00  0.00    +0.340 C 
ATOM      3  O   UNL     1       4.988   3.433  22.158  0.00  0.00    -0.331 OA
ATOM      4  C   UNL     1       3.203   3.338  22.121  0.00  0.00    +0.179 C 
ATOM      5  C   UNL     1       2.184   3.371  23.754  0.00  0.00    +0.177 C 
ATOM      6  C   UNL     1       3.126   2.825  25.447  0.00  0.00    +0.180 C 
ENDROOT
BRANCH   6   7
ATOM      7  O   UNL     1       2.493   3.367  26.621  0.00  0.00    -0.386 OA
ATOM      8  H   UNL     1       1.671   2.859  26.748  0.00  0.00    +0.210 HD
ENDBRANCH   6   7
BRANCH   5   9
ATOM      9  O   UNL     1       0.883   2.771  23.545  0.00  0.00    -0.386 OA
ATOM     10  H   UNL     1       0.358   3.417  23.042  0.00  0.00    +0.210 HD
ENDBRANCH   5   9
BRANCH   4  11
ATOM     11  C   UNL     1       2.595   3.905  20.822  0.00  0.00    +0.190 C 
BRANCH  11  12
ATOM     12  O   UNL     1       2.668   5.338  20.786  0.00  0.00    -0.392 OA
ATOM     13  H   UNL     1       2.165   5.653  20.012  0.00  0.00    +0.210 HD
ENDBRANCH  11  12
ENDBRANCH   4  11
BRANCH   2  14
ATOM     14  O   UNL     1       6.585   4.425  23.730  0.00  0.00    -0.453 OA
BRANCH  14  15
ATOM     15  C   UNL     1       7.783   3.842  24.063  0.00  0.00    +0.214 A 
ATOM     16  C   UNL     1       8.218   2.961  22.921  0.00  0.00    +0.238 A 
ATOM     17  O   UNL     1       8.082   3.317  21.756  0.00  0.00    -0.283 OA
ATOM     18  C   UNL     1       8.591   1.596  23.279  0.00  0.00    +0.109 A 
ATOM     19  C   UNL     1       8.987   1.439  24.584  0.00  0.00    +0.147 A 
ATOM     20  C   UNL     1       9.256   0.114  25.028  0.00  0.00    +0.093 A 
ATOM     21  C   UNL     1       9.086  -1.044  24.213  0.00  0.00    +0.131 A 
ATOM     22  C   UNL     1       8.732  -0.858  22.887  0.00  0.00    +0.092 A 
ATOM     23  O   UNL     1       9.091   2.516  25.482  0.00  0.00    -0.451 OA
ATOM     24  C   UNL     1       8.457   0.456  22.437  0.00  0.00    +0.135 A 
ATOM     25  C   UNL     1       8.191   3.824  25.414  0.00  0.00    +0.181 A 
BRANCH  25  26
ATOM     26  C   UNL     1       7.362   4.821  27.022  0.00  0.00    +0.025 A 
ATOM     27  C   UNL     1       7.104   6.304  27.350  0.00  0.00    +0.015 A 
ATOM     28  C   UNL     1       6.460   7.001  28.426  0.00  0.00    +0.050 A 
ATOM     29  C   UNL     1       5.928   6.307  29.457  0.00  0.00    +0.158 A 
ATOM     30  C   UNL     1       5.962   4.945  29.358  0.00  0.00    +0.159 A 
ATOM     31  C   UNL     1       6.572   4.283  28.235  0.00  0.00    +0.060 A 
BRANCH  30  32
ATOM     32  O   UNL     1       5.315   4.228  30.336  0.00  0.00    -0.503 OA
ATOM     33  H   UNL     1       4.995   3.393  29.933  0.00  0.00    +0.292 HD
ENDBRANCH  30  32
BRANCH  29  34
ATOM     34  O   UNL     1       5.332   6.962  30.484  0.00  0.00    -0.503 OA
ATOM     35  H   UNL     1       5.797   6.656  31.286  0.00  0.00    +0.292 HD
ENDBRANCH  29  34
ENDBRANCH  25  26
BRANCH  24  36
ATOM     36  O   UNL     1       7.946   0.599  21.173  0.00  0.00    -0.506 OA
ATOM     37  H   UNL     1       8.518   0.149  20.530  0.00  0.00    +0.292 HD
ENDBRANCH  24  36
BRANCH  21  38
ATOM     38  O   UNL     1       9.023  -2.243  24.879  0.00  0.00    -0.461 OA
BRANCH  38  39
ATOM     39  C   UNL     1       9.639  -3.483  24.452  0.00  0.00    +0.339 C 
ATOM     40  O   UNL     1       9.047  -4.152  23.319  0.00  0.00    -0.334 OA
ATOM     41  C   UNL     1       7.719  -4.653  23.494  0.00  0.00    +0.150 C 
ATOM     42  C   UNL     1       7.329  -5.482  22.260  0.00  0.00    +0.041 C 
ATOM     43  C   UNL     1       7.492  -5.500  24.761  0.00  0.00    +0.174 C 
ATOM     44  C   UNL     1       8.127  -4.823  25.978  0.00  0.00    +0.180 C 
ATOM     45  C   UNL     1       9.589  -4.437  25.686  0.00  0.00    +0.214 C 
BRANCH  45  46
ATOM     46  O   UNL     1      10.412  -5.598  25.471  0.00  0.00    -0.383 OA
ATOM     47  H   UNL     1       9.959  -6.189  24.840  0.00  0.00    +0.210 HD
ENDBRANCH  45  46
BRANCH  44  48
ATOM     48  O   UNL     1       8.070  -5.721  27.096  0.00  0.00    -0.386 OA
ATOM     49  H   UNL     1       7.137  -5.963  27.239  0.00  0.00    +0.210 HD
ENDBRANCH  44  48
BRANCH  43  50
ATOM     50  O   UNL     1       6.084  -5.706  24.965  0.00  0.00    -0.387 OA
ATOM     51  H   UNL     1       5.789  -6.430  24.388  0.00  0.00    +0.210 HD
ENDBRANCH  43  50
ENDBRANCH  38  39
ENDBRANCH  21  38
ENDBRANCH  14  15
ENDBRANCH   2  14
BRANCH   1  52
ATOM     52  O   UNL     1       5.716   1.848  26.247  0.00  0.00    -0.337 OA
BRANCH  52  55
ATOM     53  C   UNL     1       4.591  -1.444  27.153  0.00  0.00    +0.178 C 
ATOM     54  O   UNL     1       5.211  -0.161  27.242  0.00  0.00    -0.341 OA
ATOM     55  C   UNL     1       5.048   0.578  26.049  0.00  0.00    +0.282 C 
ATOM     56  C   UNL     1       5.667  -0.179  24.855  0.00  0.00    +0.201 C 
ATOM     57  C   UNL     1       5.309  -1.680  24.826  0.00  0.00    +0.179 C 
ATOM     58  C   UNL     1       5.384  -2.326  26.206  0.00  0.00    +0.177 C 
BRANCH  58  59
ATOM     59  O   UNL     1       4.822  -3.643  26.164  0.00  0.00    -0.386 OA
ATOM     60  H   UNL     1       5.352  -4.167  25.537  0.00  0.00    +0.210 HD
ENDBRANCH  58  59
BRANCH  57  61
ATOM     61  O   UNL     1       6.229  -2.352  23.950  0.00  0.00    -0.386 OA
ATOM     62  H   UNL     1       5.927  -3.273  23.878  0.00  0.00    +0.210 HD
ENDBRANCH  57  61
BRANCH  56  63
ATOM     63  O   UNL     1       5.218   0.409  23.619  0.00  0.00    -0.384 OA
ATOM     64  H   UNL     1       5.442  -0.235  22.925  0.00  0.00    +0.210 HD
ENDBRANCH  56  63
BRANCH  53  65
ATOM     65  C   UNL     1       4.603  -2.039  28.531  0.00  0.00    +0.197 C 
BRANCH  65  66
ATOM     66  O   UNL     1       3.369  -2.740  28.687  0.00  0.00    -0.346 OA
BRANCH  66  70
ATOM     67  C   UNL     1       5.783  -5.632  30.450  0.00  0.00    +0.041 C 
ATOM     68  C   UNL     1       5.382  -5.687  28.977  0.00  0.00    +0.149 C 
ATOM     69  O   UNL     1       4.893  -4.428  28.531  0.00  0.00    -0.343 OA
ATOM     70  C   UNL     1       3.661  -4.048  29.127  0.00  0.00    +0.282 C 
ATOM     71  C   UNL     1       2.504  -4.982  28.771  0.00  0.00    +0.201 C 
ATOM     72  C   UNL     1       2.927  -6.439  29.021  0.00  0.00    +0.179 C 
ATOM     73  C   UNL     1       4.356  -6.737  28.534  0.00  0.00    +0.174 C 
BRANCH  73  74
ATOM     74  O   UNL     1       4.337  -6.726  27.093  0.00  0.00    -0.387 OA
ATOM     75  H   UNL     1       4.770  -7.549  26.786  0.00  0.00    +0.210 HD
ENDBRANCH  73  74
BRANCH  72  76
ATOM     76  O   UNL     1       2.774  -6.764  30.411  0.00  0.00    -0.386 OA
ATOM     77  H   UNL     1       1.844  -6.987  30.593  0.00  0.00    +0.210 HD
ENDBRANCH  72  76
BRANCH  71  78
ATOM     78  O   UNL     1       1.374  -4.659  29.620  0.00  0.00    -0.384 OA
ATOM     79  H   UNL     1       1.675  -4.810  30.541  0.00  0.00    +0.210 HD
ENDBRANCH  71  78
ENDBRANCH  66  70
ENDBRANCH  65  66
ENDBRANCH  53  65
ENDBRANCH  52  55
ENDBRANCH   1  52
TORSDOF 26
ENDMDL
MODEL 6
REMARK VINA RESULT:      -4.5      2.745      8.529
REMARK  Name = 
REMARK  28 active torsions:
REMARK  status: ('A' for Active; 'I' for Inactive)
REMARK    1  A    between atoms: C_1  and  C_2
REMARK    2  A    between atoms: C_4  and  O_84
REMARK    3  A    between atoms: C_6  and  O_83
REMARK    4  A    between atoms: C_8  and  O_82
REMARK    5  A    between atoms: C_10  and  O_13
REMARK    6  A    between atoms: O_13  and  C_14
REMARK    7  A    between atoms: C_14  and  C_15
REMARK    8  A    between atoms: C_17  and  O_81
REMARK    9  A    between atoms: C_19  and  O_80
REMARK   10  A    between atoms: C_21  and  O_79
REMARK   11  A    between atoms: C_23  and  O_26
REMARK   12  A    between atoms: O_26  and  C_27
REMARK   13  A    between atoms: C_29  and  O_78
REMARK   14  A    between atoms: C_31  and  O_77
REMARK   15  A    between atoms: C_33  and  C_75
REMARK   16  A    between atoms: C_36  and  O_38
REMARK   17  A    between atoms: O_38  and  C_39
REMARK   18  A    between atoms: C_40  and  C_67
REMARK   19  A    between atoms: C_44  and  O_51
REMARK   20  A    between atoms: C_46  and  O_50
REMARK   21  A    between atoms: O_51  and  C_52
REMARK   22  A    between atoms: C_54  and  O_66
REMARK   23  A    between atoms: C_56  and  O_65
REMARK   24  A    between atoms: C_58  and  O_64
REMARK   25  A    between atoms: C_60  and  C_63
REMARK   26  A    between atoms: C_69  and  O_74
REMARK   27  A    between atoms: C_70  and  O_73
REMARK   28  A    between atoms: C_75  and  O_76
REMARK                            x       y       z     vdW  Elec       q    Type
REMARK                         _______ _______ _______ _____ _____    ______ ____
ROOT
ATOM      1  C   UNL     1       5.338  -0.624  25.275  0.00  0.00    +0.221 C 
ATOM      2  C   UNL     1       4.597  -0.303  27.098  0.00  0.00    +0.340 C 
ATOM      3  O   UNL     1       3.498  -1.575  27.883  0.00  0.00    -0.331 OA
ATOM      4  C   UNL     1       2.972  -3.076  27.068  0.00  0.00    +0.179 C 
ATOM      5  C   UNL     1       3.847  -3.678  25.461  0.00  0.00    +0.177 C 
ATOM      6  C   UNL     1       4.834  -2.304  24.371  0.00  0.00    +0.180 C 
ENDROOT
BRANCH   6   7
ATOM      7  O   UNL     1       5.849  -2.897  23.539  0.00  0.00    -0.386 OA
ATOM      8  H   UNL     1       6.705  -2.644  23.931  0.00  0.00    +0.210 HD
ENDBRANCH   6   7
BRANCH   5   9
ATOM      9  O   UNL     1       2.969  -4.553  24.711  0.00  0.00    -0.386 OA
ATOM     10  H   UNL     1       3.450  -4.799  23.902  0.00  0.00    +0.210 HD
ENDBRANCH   5   9
BRANCH   4  11
ATOM     11  C   UNL     1       2.345  -4.101  28.034  0.00  0.00    +0.190 C 
BRANCH  11  12
ATOM     12  O   UNL     1       3.164  -4.299  29.197  0.00  0.00    -0.392 OA
ATOM     13  H   UNL     1       3.085  -5.231  29.473  0.00  0.00    +0.210 HD
ENDBRANCH  11  12
ENDBRANCH   4  11
BRANCH   2  14
ATOM     14  O   UNL     1       5.638  -0.386  27.997  0.00  0.00    -0.453 OA
BRANCH  14  15
ATOM     15  C   UNL     1       5.493   0.953  28.269  0.00  0.00    +0.214 A 
ATOM     16  C   UNL     1       4.141   1.167  28.898  0.00  0.00    +0.238 A 
ATOM     17  O   UNL     1       3.695   0.383  29.728  0.00  0.00    -0.283 OA
ATOM     18  C   UNL     1       3.322   2.217  28.300  0.00  0.00    +0.109 A 
ATOM     19  C   UNL     1       4.034   3.178  27.626  0.00  0.00    +0.147 A 
ATOM     20  C   UNL     1       3.289   4.168  26.925  0.00  0.00    +0.093 A 
ATOM     21  C   UNL     1       1.865   4.179  26.846  0.00  0.00    +0.131 A 
ATOM     22  C   UNL     1       1.167   3.228  27.571  0.00  0.00    +0.092 A 
ATOM     23  O   UNL     1       5.439   3.189  27.576  0.00  0.00    -0.451 OA
ATOM     24  C   UNL     1       1.899   2.236  28.268  0.00  0.00    +0.135 A 
ATOM     25  C   UNL     1       6.342   1.884  27.633  0.00  0.00    +0.181 A 
BRANCH  25  26
ATOM     26  C   UNL     1       8.035   1.519  26.507  0.00  0.00    +0.025 A 
ATOM     27  C   UNL     1       8.961   0.302  26.320  0.00  0.00    +0.015 A 
ATOM     28  C   UNL     1      10.090   0.014  25.484  0.00  0.00    +0.050 A 
ATOM     29  C   UNL     1      10.554   0.952  24.627  0.00  0.00    +0.158 A 
ATOM     30  C   UNL     1       9.838   2.113  24.549  0.00  0.00    +0.159 A 
ATOM     31  C   UNL     1       8.678   2.344  25.369  0.00  0.00    +0.060 A 
BRANCH  30  32
ATOM     32  O   UNL     1      10.222   3.024  23.594  0.00  0.00    -0.503 OA
ATOM     33  H   UNL     1      11.164   2.853  23.380  0.00  0.00    +0.292 HD
ENDBRANCH  30  32
BRANCH  29  34
ATOM     34  O   UNL     1      11.630   0.690  23.846  0.00  0.00    -0.503 OA
ATOM     35  H   UNL     1      12.010   1.564  23.633  0.00  0.00    +0.292 HD
ENDBRANCH  29  34
ENDBRANCH  25  26
BRANCH  24  36
ATOM     36  O   UNL     1       1.190   1.209  28.837  0.00  0.00    -0.506 OA
ATOM     37  H   UNL     1       1.696   0.822  29.570  0.00  0.00    +0.292 HD
ENDBRANCH  24  36
BRANCH  21  38
ATOM     38  O   UNL     1       1.325   4.954  25.849  0.00  0.00    -0.461 OA
BRANCH  38  39
ATOM     39  C   UNL     1       1.866   6.207  25.362  0.00  0.00    +0.339 C 
ATOM     40  O   UNL     1       1.142   6.864  24.302  0.00  0.00    -0.334 OA
ATOM     41  C   UNL     1       1.091   6.182  23.045  0.00  0.00    +0.150 C 
ATOM     42  C   UNL     1       0.443   7.105  21.999  0.00  0.00    +0.041 C 
ATOM     43  C   UNL     1       2.444   5.683  22.506  0.00  0.00    +0.174 C 
ATOM     44  C   UNL     1       3.244   4.998  23.616  0.00  0.00    +0.180 C 
ATOM     45  C   UNL     1       3.312   5.891  24.869  0.00  0.00    +0.214 C 
BRANCH  45  46
ATOM     46  O   UNL     1       4.045   7.104  24.617  0.00  0.00    -0.383 OA
ATOM     47  H   UNL     1       4.131   7.222  23.653  0.00  0.00    +0.210 HD
ENDBRANCH  45  46
BRANCH  44  48
ATOM     48  O   UNL     1       4.568   4.721  23.138  0.00  0.00    -0.386 OA
ATOM     49  H   UNL     1       5.027   5.571  23.019  0.00  0.00    +0.210 HD
ENDBRANCH  44  48
BRANCH  43  50
ATOM     50  O   UNL     1       2.231   4.790  21.401  0.00  0.00    -0.387 OA
ATOM     51  H   UNL     1       3.075   4.659  20.938  0.00  0.00    +0.210 HD
ENDBRANCH  43  50
ENDBRANCH  38  39
ENDBRANCH  21  38
ENDBRANCH  14  15
ENDBRANCH   2  14
BRANCH   1  52
ATOM     52  O   UNL     1       5.321   0.535  24.422  0.00  0.00    -0.337 OA
BRANCH  52  55
ATOM     53  C   UNL     1       8.045  -0.799  22.490  0.00  0.00    +0.178 C 
ATOM     54  O   UNL     1       7.206  -0.497  23.606  0.00  0.00    -0.341 OA
ATOM     55  C   UNL     1       6.093   0.285  23.222  0.00  0.00    +0.282 C 
ATOM     56  C   UNL     1       6.559   1.614  22.590  0.00  0.00    +0.201 C 
ATOM     57  C   UNL     1       7.704   1.442  21.571  0.00  0.00    +0.179 C 
ATOM     58  C   UNL     1       8.769   0.459  22.046  0.00  0.00    +0.177 C 
BRANCH  58  59
ATOM     59  O   UNL     1       9.675   0.159  20.978  0.00  0.00    -0.386 OA
ATOM     60  H   UNL     1       9.466   0.760  20.240  0.00  0.00    +0.210 HD
ENDBRANCH  58  59
BRANCH  57  61
ATOM     61  O   UNL     1       8.321   2.723  21.356  0.00  0.00    -0.386 OA
ATOM     62  H   UNL     1       7.608   3.343  21.128  0.00  0.00    +0.210 HD
ENDBRANCH  57  61
BRANCH  56  63
ATOM     63  O   UNL     1       5.455   2.247  21.917  0.00  0.00    -0.384 OA
ATOM     64  H   UNL     1       5.577   2.052  20.971  0.00  0.00    +0.210 HD
ENDBRANCH  56  63
BRANCH  53  65
ATOM     65  C   UNL     1       9.041  -1.823  22.950  0.00  0.00    +0.197 C 
BRANCH  65  66
ATOM     66  O   UNL     1       8.455  -3.102  22.711  0.00  0.00    -0.346 OA
BRANCH  66  70
ATOM     67  C   UNL     1       7.654  -3.005  26.791  0.00  0.00    +0.041 C 
ATOM     68  C   UNL     1       8.917  -3.646  26.220  0.00  0.00    +0.149 C 
ATOM     69  O   UNL     1       9.144  -3.227  24.880  0.00  0.00    -0.343 OA
ATOM     70  C   UNL     1       8.170  -3.694  23.959  0.00  0.00    +0.282 C 
ATOM     71  C   UNL     1       8.154  -5.217  23.816  0.00  0.00    +0.201 C 
ATOM     72  C   UNL     1       8.096  -5.861  25.211  0.00  0.00    +0.179 C 
ATOM     73  C   UNL     1       9.030  -5.176  26.224  0.00  0.00    +0.174 C 
BRANCH  73  74
ATOM     74  O   UNL     1      10.385  -5.499  25.856  0.00  0.00    -0.387 OA
ATOM     75  H   UNL     1      10.644  -4.897  25.127  0.00  0.00    +0.210 HD
ENDBRANCH  73  74
BRANCH  72  76
ATOM     76  O   UNL     1       6.742  -5.883  25.686  0.00  0.00    -0.386 OA
ATOM     77  H   UNL     1       6.187  -6.388  25.067  0.00  0.00    +0.210 HD
ENDBRANCH  72  76
BRANCH  71  78
ATOM     78  O   UNL     1       6.975  -5.597  23.064  0.00  0.00    -0.384 OA
ATOM     79  H   UNL     1       6.367  -6.017  23.707  0.00  0.00    +0.210 HD
ENDBRANCH  71  78
ENDBRANCH  66  70
ENDBRANCH  65  66
ENDBRANCH  53  65
ENDBRANCH  52  55
ENDBRANCH   1  52
TORSDOF 26
ENDMDL
MODEL 7
REMARK VINA RESULT:      -4.4      1.676      3.872
REMARK  Name = 
REMARK  28 active torsions:
REMARK  status: ('A' for Active; 'I' for Inactive)
REMARK    1  A    between atoms: C_1  and  C_2
REMARK    2  A    between atoms: C_4  and  O_84
REMARK    3  A    between atoms: C_6  and  O_83
REMARK    4  A    between atoms: C_8  and  O_82
REMARK    5  A    between atoms: C_10  and  O_13
REMARK    6  A    between atoms: O_13  and  C_14
REMARK    7  A    between atoms: C_14  and  C_15
REMARK    8  A    between atoms: C_17  and  O_81
REMARK    9  A    between atoms: C_19  and  O_80
REMARK   10  A    between atoms: C_21  and  O_79
REMARK   11  A    between atoms: C_23  and  O_26
REMARK   12  A    between atoms: O_26  and  C_27
REMARK   13  A    between atoms: C_29  and  O_78
REMARK   14  A    between atoms: C_31  and  O_77
REMARK   15  A    between atoms: C_33  and  C_75
REMARK   16  A    between atoms: C_36  and  O_38
REMARK   17  A    between atoms: O_38  and  C_39
REMARK   18  A    between atoms: C_40  and  C_67
REMARK   19  A    between atoms: C_44  and  O_51
REMARK   20  A    between atoms: C_46  and  O_50
REMARK   21  A    between atoms: O_51  and  C_52
REMARK   22  A    between atoms: C_54  and  O_66
REMARK   23  A    between atoms: C_56  and  O_65
REMARK   24  A    between atoms: C_58  and  O_64
REMARK   25  A    between atoms: C_60  and  C_63
REMARK   26  A    between atoms: C_69  and  O_74
REMARK   27  A    between atoms: C_70  and  O_73
REMARK   28  A    between atoms: C_75  and  O_76
REMARK                            x       y       z     vdW  Elec       q    Type
REMARK                         _______ _______ _______ _____ _____    ______ ____
ROOT
ATOM      1  C   UNL     1       5.588  -1.839  27.138  0.00  0.00    +0.221 C 
ATOM      2  C   UNL     1       4.178  -3.052  27.858  0.00  0.00    +0.340 C 
ATOM      3  O   UNL     1       4.512  -4.871  28.000  0.00  0.00    -0.331 OA
ATOM      4  C   UNL     1       6.021  -5.652  27.445  0.00  0.00    +0.179 C 
ATOM      5  C   UNL     1       7.579  -4.597  27.036  0.00  0.00    +0.177 C 
ATOM      6  C   UNL     1       7.294  -2.658  26.579  0.00  0.00    +0.180 C 
ENDROOT
BRANCH   6   7
ATOM      7  O   UNL     1       8.474  -1.866  26.809  0.00  0.00    -0.386 OA
ATOM      8  H   UNL     1       8.769  -2.071  27.715  0.00  0.00    +0.210 HD
ENDBRANCH   6   7
BRANCH   5   9
ATOM      9  O   UNL     1       8.455  -5.325  26.141  0.00  0.00    -0.386 OA
ATOM     10  H   UNL     1       7.902  -5.984  25.688  0.00  0.00    +0.210 HD
ENDBRANCH   5   9
BRANCH   4  11
ATOM     11  C   UNL     1       6.181  -7.094  27.966  0.00  0.00    +0.190 C 
BRANCH  11  12
ATOM     12  O   UNL     1       6.435  -7.119  29.379  0.00  0.00    -0.392 OA
ATOM     13  H   UNL     1       7.205  -6.550  29.564  0.00  0.00    +0.210 HD
ENDBRANCH  11  12
ENDBRANCH   4  11
BRANCH   2  14
ATOM     14  O   UNL     1       4.042  -2.788  29.204  0.00  0.00    -0.453 OA
BRANCH  14  15
ATOM     15  C   UNL     1       2.756  -3.268  29.154  0.00  0.00    +0.214 A 
ATOM     16  C   UNL     1       2.772  -4.718  29.560  0.00  0.00    +0.238 A 
ATOM     17  O   UNL     1       3.473  -5.112  30.485  0.00  0.00    -0.283 OA
ATOM     18  C   UNL     1       2.090  -5.638  28.654  0.00  0.00    +0.109 A 
ATOM     19  C   UNL     1       1.125  -5.053  27.872  0.00  0.00    +0.147 A 
ATOM     20  C   UNL     1       0.501  -5.870  26.888  0.00  0.00    +0.093 A 
ATOM     21  C   UNL     1       0.860  -7.229  26.643  0.00  0.00    +0.131 A 
ATOM     22  C   UNL     1       1.803  -7.811  27.475  0.00  0.00    +0.092 A 
ATOM     23  O   UNL     1       0.774  -3.696  27.984  0.00  0.00    -0.451 OA
ATOM     24  C   UNL     1       2.432  -7.004  28.453  0.00  0.00    +0.135 A 
ATOM     25  C   UNL     1       1.778  -2.550  28.432  0.00  0.00    +0.181 A 
BRANCH  25  26
ATOM     26  C   UNL     1       1.913  -0.656  27.618  0.00  0.00    +0.025 A 
ATOM     27  C   UNL     1       0.976   0.214  26.759  0.00  0.00    +0.015 A 
ATOM     28  C   UNL     1       1.027   1.556  26.255  0.00  0.00    +0.050 A 
ATOM     29  C   UNL     1       2.101   2.335  26.516  0.00  0.00    +0.158 A 
ATOM     30  C   UNL     1       3.053   1.805  27.342  0.00  0.00    +0.159 A 
ATOM     31  C   UNL     1       2.939   0.471  27.870  0.00  0.00    +0.060 A 
BRANCH  30  32
ATOM     32  O   UNL     1       4.087   2.629  27.716  0.00  0.00    -0.503 OA
ATOM     33  H   UNL     1       4.194   3.310  27.019  0.00  0.00    +0.292 HD
ENDBRANCH  30  32
BRANCH  29  34
ATOM     34  O   UNL     1       2.161   3.599  26.029  0.00  0.00    -0.503 OA
ATOM     35  H   UNL     1       2.701   4.095  26.674  0.00  0.00    +0.292 HD
ENDBRANCH  29  34
ENDBRANCH  25  26
BRANCH  24  36
ATOM     36  O   UNL     1       3.479  -7.554  29.149  0.00  0.00    -0.506 OA
ATOM     37  H   UNL     1       3.353  -8.513  29.236  0.00  0.00    +0.292 HD
ENDBRANCH  24  36
BRANCH  21  38
ATOM     38  O   UNL     1       0.444  -7.753  25.444  0.00  0.00    -0.461 OA
BRANCH  38  39
ATOM     39  C   UNL     1       1.288  -8.411  24.468  0.00  0.00    +0.339 C 
ATOM     40  O   UNL     1       2.707  -8.173  24.563  0.00  0.00    -0.334 OA
ATOM     41  C   UNL     1       3.149  -6.834  24.320  0.00  0.00    +0.150 C 
ATOM     42  C   UNL     1       4.686  -6.811  24.286  0.00  0.00    +0.041 C 
ATOM     43  C   UNL     1       2.608  -6.181  23.034  0.00  0.00    +0.174 C 
ATOM     44  C   UNL     1       1.105  -6.434  22.897  0.00  0.00    +0.180 C 
ATOM     45  C   UNL     1       0.786  -7.931  23.070  0.00  0.00    +0.214 C 
BRANCH  45  46
ATOM     46  O   UNL     1       1.365  -8.722  22.017  0.00  0.00    -0.383 OA
ATOM     47  H   UNL     1       2.332  -8.592  22.025  0.00  0.00    +0.210 HD
ENDBRANCH  45  46
BRANCH  44  48
ATOM     48  O   UNL     1       0.670  -5.986  21.604  0.00  0.00    -0.386 OA
ATOM     49  H   UNL     1       0.682  -6.752  21.003  0.00  0.00    +0.210 HD
ENDBRANCH  44  48
BRANCH  43  50
ATOM     50  O   UNL     1       2.892  -4.772  23.045  0.00  0.00    -0.387 OA
ATOM     51  H   UNL     1       2.121  -4.301  23.401  0.00  0.00    +0.210 HD
ENDBRANCH  43  50
ENDBRANCH  38  39
ENDBRANCH  21  38
ENDBRANCH  14  15
ENDBRANCH   2  14
BRANCH   1  52
ATOM     52  O   UNL     1       5.092  -0.832  26.237  0.00  0.00    -0.337 OA
BRANCH  52  55
ATOM     53  C   UNL     1       7.360   1.873  25.554  0.00  0.00    +0.178 C 
ATOM     54  O   UNL     1       6.299   1.122  26.145  0.00  0.00    -0.341 OA
ATOM     55  C   UNL     1       6.195  -0.166  25.574  0.00  0.00    +0.282 C 
ATOM     56  C   UNL     1       5.932  -0.065  24.056  0.00  0.00    +0.201 C 
ATOM     57  C   UNL     1       6.831   0.967  23.344  0.00  0.00    +0.179 C 
ATOM     58  C   UNL     1       6.979   2.261  24.137  0.00  0.00    +0.177 C 
BRANCH  58  59
ATOM     59  O   UNL     1       7.998   3.082  23.555  0.00  0.00    -0.386 OA
ATOM     60  H   UNL     1       7.813   4.004  23.811  0.00  0.00    +0.210 HD
ENDBRANCH  58  59
BRANCH  57  61
ATOM     61  O   UNL     1       6.252   1.272  22.064  0.00  0.00    -0.386 OA
ATOM     62  H   UNL     1       5.293   1.140  22.151  0.00  0.00    +0.210 HD
ENDBRANCH  57  61
BRANCH  56  63
ATOM     63  O   UNL     1       6.149  -1.347  23.438  0.00  0.00    -0.384 OA
ATOM     64  H   UNL     1       5.647  -1.326  22.605  0.00  0.00    +0.210 HD
ENDBRANCH  56  63
BRANCH  53  65
ATOM     65  C   UNL     1       7.546   3.108  26.386  0.00  0.00    +0.197 C 
BRANCH  65  66
ATOM     66  O   UNL     1       6.999   2.822  27.673  0.00  0.00    -0.346 OA
BRANCH  66  70
ATOM     67  C   UNL     1       5.963   6.849  27.615  0.00  0.00    +0.041 C 
ATOM     68  C   UNL     1       7.250   6.345  28.262  0.00  0.00    +0.149 C 
ATOM     69  O   UNL     1       7.560   5.026  27.830  0.00  0.00    -0.343 OA
ATOM     70  C   UNL     1       6.636   4.044  28.277  0.00  0.00    +0.282 C 
ATOM     71  C   UNL     1       6.615   3.882  29.797  0.00  0.00    +0.201 C 
ATOM     72  C   UNL     1       6.470   5.263  30.457  0.00  0.00    +0.179 C 
ATOM     73  C   UNL     1       7.349   6.337  29.793  0.00  0.00    +0.174 C 
BRANCH  73  74
ATOM     74  O   UNL     1       8.721   6.044  30.125  0.00  0.00    -0.387 OA
ATOM     75  H   UNL     1       8.856   6.292  31.063  0.00  0.00    +0.210 HD
ENDBRANCH  73  74
BRANCH  72  76
ATOM     76  O   UNL     1       5.090   5.658  30.472  0.00  0.00    -0.386 OA
ATOM     77  H   UNL     1       5.027   6.625  30.390  0.00  0.00    +0.210 HD
ENDBRANCH  72  76
BRANCH  71  78
ATOM     78  O   UNL     1       5.478   3.057  30.157  0.00  0.00    -0.384 OA
ATOM     79  H   UNL     1       4.910   3.614  30.729  0.00  0.00    +0.210 HD
ENDBRANCH  71  78
ENDBRANCH  66  70
ENDBRANCH  65  66
ENDBRANCH  53  65
ENDBRANCH  52  55
ENDBRANCH   1  52
TORSDOF 26
ENDMDL
MODEL 8
REMARK VINA RESULT:      -4.2      2.554      8.150
REMARK  Name = 
REMARK  28 active torsions:
REMARK  status: ('A' for Active; 'I' for Inactive)
REMARK    1  A    between atoms: C_1  and  C_2
REMARK    2  A    between atoms: C_4  and  O_84
REMARK    3  A    between atoms: C_6  and  O_83
REMARK    4  A    between atoms: C_8  and  O_82
REMARK    5  A    between atoms: C_10  and  O_13
REMARK    6  A    between atoms: O_13  and  C_14
REMARK    7  A    between atoms: C_14  and  C_15
REMARK    8  A    between atoms: C_17  and  O_81
REMARK    9  A    between atoms: C_19  and  O_80
REMARK   10  A    between atoms: C_21  and  O_79
REMARK   11  A    between atoms: C_23  and  O_26
REMARK   12  A    between atoms: O_26  and  C_27
REMARK   13  A    between atoms: C_29  and  O_78
REMARK   14  A    between atoms: C_31  and  O_77
REMARK   15  A    between atoms: C_33  and  C_75
REMARK   16  A    between atoms: C_36  and  O_38
REMARK   17  A    between atoms: O_38  and  C_39
REMARK   18  A    between atoms: C_40  and  C_67
REMARK   19  A    between atoms: C_44  and  O_51
REMARK   20  A    between atoms: C_46  and  O_50
REMARK   21  A    between atoms: O_51  and  C_52
REMARK   22  A    between atoms: C_54  and  O_66
REMARK   23  A    between atoms: C_56  and  O_65
REMARK   24  A    between atoms: C_58  and  O_64
REMARK   25  A    between atoms: C_60  and  C_63
REMARK   26  A    between atoms: C_69  and  O_74
REMARK   27  A    between atoms: C_70  and  O_73
REMARK   28  A    between atoms: C_75  and  O_76
REMARK                            x       y       z     vdW  Elec       q    Type
REMARK                         _______ _______ _______ _____ _____    ______ ____
ROOT
ATOM      1  C   UNL     1       5.243  -3.329  25.919  0.00  0.00    +0.221 C 
ATOM      2  C   UNL     1       7.016  -4.204  26.174  0.00  0.00    +0.340 C 
ATOM      3  O   UNL     1       7.351  -5.176  27.719  0.00  0.00    -0.331 OA
ATOM      4  C   UNL     1       6.193  -5.322  29.073  0.00  0.00    +0.179 C 
ATOM      5  C   UNL     1       4.348  -4.818  28.846  0.00  0.00    +0.177 C 
ATOM      6  C   UNL     1       3.914  -3.527  27.365  0.00  0.00    +0.180 C 
ENDROOT
BRANCH   6   7
ATOM      7  O   UNL     1       2.540  -3.624  26.944  0.00  0.00    -0.386 OA
ATOM      8  H   UNL     1       2.560  -3.880  26.003  0.00  0.00    +0.210 HD
ENDBRANCH   6   7
BRANCH   5   9
ATOM      9  O   UNL     1       3.751  -4.516  30.130  0.00  0.00    -0.386 OA
ATOM     10  H   UNL     1       2.990  -3.936  29.951  0.00  0.00    +0.210 HD
ENDBRANCH   5   9
BRANCH   4  11
ATOM     11  C   UNL     1       6.572  -6.432  30.074  0.00  0.00    +0.190 C 
BRANCH  11  12
ATOM     12  O   UNL     1       6.993  -7.628  29.401  0.00  0.00    -0.392 OA
ATOM     13  H   UNL     1       6.822  -7.521  28.446  0.00  0.00    +0.210 HD
ENDBRANCH  11  12
ENDBRANCH   4  11
BRANCH   2  14
ATOM     14  O   UNL     1       7.103  -5.250  25.281  0.00  0.00    -0.453 OA
BRANCH  14  15
ATOM     15  C   UNL     1       7.397  -4.355  24.281  0.00  0.00    +0.214 A 
ATOM     16  C   UNL     1       8.649  -3.610  24.662  0.00  0.00    +0.238 A 
ATOM     17  O   UNL     1       9.597  -4.185  25.185  0.00  0.00    -0.283 OA
ATOM     18  C   UNL     1       8.571  -2.155  24.579  0.00  0.00    +0.109 A 
ATOM     19  C   UNL     1       7.611  -1.685  23.717  0.00  0.00    +0.147 A 
ATOM     20  C   UNL     1       7.407  -0.278  23.674  0.00  0.00    +0.093 A 
ATOM     21  C   UNL     1       8.101   0.649  24.507  0.00  0.00    +0.131 A 
ATOM     22  C   UNL     1       9.097   0.158  25.335  0.00  0.00    +0.092 A 
ATOM     23  O   UNL     1       6.818  -2.536  22.927  0.00  0.00    -0.451 OA
ATOM     24  C   UNL     1       9.304  -1.242  25.388  0.00  0.00    +0.135 A 
ATOM     25  C   UNL     1       6.396  -4.008  23.349  0.00  0.00    +0.181 A 
BRANCH  25  26
ATOM     26  C   UNL     1       4.543  -4.876  23.067  0.00  0.00    +0.025 A 
ATOM     27  C   UNL     1       4.065  -6.270  22.618  0.00  0.00    +0.015 A 
ATOM     28  C   UNL     1       2.786  -6.906  22.494  0.00  0.00    +0.050 A 
ATOM     29  C   UNL     1       1.660  -6.223  22.801  0.00  0.00    +0.158 A 
ATOM     30  C   UNL     1       1.828  -4.965  23.309  0.00  0.00    +0.159 A 
ATOM     31  C   UNL     1       3.134  -4.382  23.467  0.00  0.00    +0.060 A 
BRANCH  30  32
ATOM     32  O   UNL     1       0.702  -4.308  23.742  0.00  0.00    -0.503 OA
ATOM     33  H   UNL     1       0.153  -4.106  22.955  0.00  0.00    +0.292 HD
ENDBRANCH  30  32
BRANCH  29  34
ATOM     34  O   UNL     1       0.447  -6.815  22.671  0.00  0.00    -0.503 OA
ATOM     35  H   UNL     1       0.037  -6.389  21.894  0.00  0.00    +0.292 HD
ENDBRANCH  29  34
ENDBRANCH  25  26
BRANCH  24  36
ATOM     36  O   UNL     1      10.175  -1.717  26.336  0.00  0.00    -0.506 OA
ATOM     37  H   UNL     1      10.096  -2.682  26.404  0.00  0.00    +0.292 HD
ENDBRANCH  24  36
BRANCH  21  38
ATOM     38  O   UNL     1       7.540   1.898  24.614  0.00  0.00    -0.461 OA
BRANCH  38  39
ATOM     39  C   UNL     1       8.224   3.102  25.040  0.00  0.00    +0.339 C 
ATOM     40  O   UNL     1       7.469   4.036  25.838  0.00  0.00    -0.334 OA
ATOM     41  C   UNL     1       6.357   4.670  25.198  0.00  0.00    +0.150 C 
ATOM     42  C   UNL     1       5.792   5.753  26.131  0.00  0.00    +0.041 C 
ATOM     43  C   UNL     1       6.652   5.296  23.822  0.00  0.00    +0.174 C 
ATOM     44  C   UNL     1       7.471   4.332  22.959  0.00  0.00    +0.180 C 
ATOM     45  C   UNL     1       8.697   3.815  23.734  0.00  0.00    +0.214 C 
BRANCH  45  46
ATOM     46  O   UNL     1       9.621   4.875  24.035  0.00  0.00    -0.383 OA
ATOM     47  H   UNL     1      10.472   4.481  24.304  0.00  0.00    +0.210 HD
ENDBRANCH  45  46
BRANCH  44  48
ATOM     48  O   UNL     1       7.894   5.013  21.769  0.00  0.00    -0.386 OA
ATOM     49  H   UNL     1       7.207   5.664  21.536  0.00  0.00    +0.210 HD
ENDBRANCH  44  48
BRANCH  43  50
ATOM     50  O   UNL     1       5.420   5.648  23.170  0.00  0.00    -0.387 OA
ATOM     51  H   UNL     1       5.047   6.428  23.611  0.00  0.00    +0.210 HD
ENDBRANCH  43  50
ENDBRANCH  38  39
ENDBRANCH  21  38
ENDBRANCH  14  15
ENDBRANCH   2  14
BRANCH   1  52
ATOM     52  O   UNL     1       5.316  -2.005  25.360  0.00  0.00    -0.337 OA
BRANCH  52  55
ATOM     53  C   UNL     1       3.782   0.987  26.633  0.00  0.00    +0.178 C 
ATOM     54  O   UNL     1       4.171  -0.047  25.728  0.00  0.00    -0.341 OA
ATOM     55  C   UNL     1       4.977  -1.018  26.364  0.00  0.00    +0.282 C 
ATOM     56  C   UNL     1       6.254  -0.368  26.938  0.00  0.00    +0.201 C 
ATOM     57  C   UNL     1       5.986   0.951  27.692  0.00  0.00    +0.179 C 
ATOM     58  C   UNL     1       4.986   1.847  26.969  0.00  0.00    +0.177 C 
BRANCH  58  59
ATOM     59  O   UNL     1       4.599   2.936  27.814  0.00  0.00    -0.386 OA
ATOM     60  H   UNL     1       5.005   2.788  28.687  0.00  0.00    +0.210 HD
ENDBRANCH  58  59
BRANCH  57  61
ATOM     61  O   UNL     1       7.230   1.661  27.826  0.00  0.00    -0.386 OA
ATOM     62  H   UNL     1       7.478   1.964  26.937  0.00  0.00    +0.210 HD
ENDBRANCH  57  61
BRANCH  56  63
ATOM     63  O   UNL     1       6.896  -1.280  27.850  0.00  0.00    -0.384 OA
ATOM     64  H   UNL     1       7.500  -1.813  27.305  0.00  0.00    +0.210 HD
ENDBRANCH  56  63
BRANCH  53  65
ATOM     65  C   UNL     1       2.742   1.817  25.938  0.00  0.00    +0.197 C 
BRANCH  65  66
ATOM     66  O   UNL     1       3.444   2.777  25.149  0.00  0.00    -0.346 OA
BRANCH  66  70
ATOM     67  C   UNL     1       0.450   2.738  22.262  0.00  0.00    +0.041 C 
ATOM     68  C   UNL     1       1.835   3.322  21.996  0.00  0.00    +0.149 C 
ATOM     69  O   UNL     1       2.773   2.886  22.973  0.00  0.00    -0.343 OA
ATOM     70  C   UNL     1       2.519   3.388  24.277  0.00  0.00    +0.282 C 
ATOM     71  C   UNL     1       2.645   4.909  24.374  0.00  0.00    +0.201 C 
ATOM     72  C   UNL     1       1.824   5.563  23.251  0.00  0.00    +0.179 C 
ATOM     73  C   UNL     1       1.984   4.846  21.899  0.00  0.00    +0.174 C 
BRANCH  73  74
ATOM     74  O   UNL     1       3.317   5.110  21.420  0.00  0.00    -0.387 OA
ATOM     75  H   UNL     1       3.938   4.901  22.149  0.00  0.00    +0.210 HD
ENDBRANCH  73  74
BRANCH  72  76
ATOM     76  O   UNL     1       0.443   5.645  23.635  0.00  0.00    -0.386 OA
ATOM     77  H   UNL     1      -0.028   4.850  23.332  0.00  0.00    +0.210 HD
ENDBRANCH  72  76
BRANCH  71  78
ATOM     78  O   UNL     1       2.124   5.333  25.658  0.00  0.00    -0.384 OA
ATOM     79  H   UNL     1       1.616   6.153  25.487  0.00  0.00    +0.210 HD
ENDBRANCH  71  78
ENDBRANCH  66  70
ENDBRANCH  65  66
ENDBRANCH  53  65
ENDBRANCH  52  55
ENDBRANCH   1  52
TORSDOF 26
ENDMDL
MODEL 9
REMARK VINA RESULT:      -4.2      2.535      8.146
REMARK  Name = 
REMARK  28 active torsions:
REMARK  status: ('A' for Active; 'I' for Inactive)
REMARK    1  A    between atoms: C_1  and  C_2
REMARK    2  A    between atoms: C_4  and  O_84
REMARK    3  A    between atoms: C_6  and  O_83
REMARK    4  A    between atoms: C_8  and  O_82
REMARK    5  A    between atoms: C_10  and  O_13
REMARK    6  A    between atoms: O_13  and  C_14
REMARK    7  A    between atoms: C_14  and  C_15
REMARK    8  A    between atoms: C_17  and  O_81
REMARK    9  A    between atoms: C_19  and  O_80
REMARK   10  A    between atoms: C_21  and  O_79
REMARK   11  A    between atoms: C_23  and  O_26
REMARK   12  A    between atoms: O_26  and  C_27
REMARK   13  A    between atoms: C_29  and  O_78
REMARK   14  A    between atoms: C_31  and  O_77
REMARK   15  A    between atoms: C_33  and  C_75
REMARK   16  A    between atoms: C_36  and  O_38
REMARK   17  A    between atoms: O_38  and  C_39
REMARK   18  A    between atoms: C_40  and  C_67
REMARK   19  A    between atoms: C_44  and  O_51
REMARK   20  A    between atoms: C_46  and  O_50
REMARK   21  A    between atoms: O_51  and  C_52
REMARK   22  A    between atoms: C_54  and  O_66
REMARK   23  A    between atoms: C_56  and  O_65
REMARK   24  A    between atoms: C_58  and  O_64
REMARK   25  A    between atoms: C_60  and  C_63
REMARK   26  A    between atoms: C_69  and  O_74
REMARK   27  A    between atoms: C_70  and  O_73
REMARK   28  A    between atoms: C_75  and  O_76
REMARK                            x       y       z     vdW  Elec       q    Type
REMARK                         _______ _______ _______ _____ _____    ______ ____
ROOT
ATOM      1  C   UNL     1       5.085  -3.103  25.986  0.00  0.00    +0.221 C 
ATOM      2  C   UNL     1       6.741  -4.162  26.322  0.00  0.00    +0.340 C 
ATOM      3  O   UNL     1       7.002  -4.965  27.973  0.00  0.00    -0.331 OA
ATOM      4  C   UNL     1       5.882  -4.787  29.355  0.00  0.00    +0.179 C 
ATOM      5  C   UNL     1       4.109  -4.080  29.097  0.00  0.00    +0.177 C 
ATOM      6  C   UNL     1       3.792  -2.942  27.468  0.00  0.00    +0.180 C 
ENDROOT
BRANCH   6   7
ATOM      7  O   UNL     1       2.403  -2.912  27.087  0.00  0.00    -0.386 OA
ATOM      8  H   UNL     1       2.034  -2.092  27.463  0.00  0.00    +0.210 HD
ENDBRANCH   6   7
BRANCH   5   9
ATOM      9  O   UNL     1       3.599  -3.542  30.341  0.00  0.00    -0.386 OA
ATOM     10  H   UNL     1       3.879  -2.611  30.374  0.00  0.00    +0.210 HD
ENDBRANCH   5   9
BRANCH   4  11
ATOM     11  C   UNL     1       6.151  -5.801  30.485  0.00  0.00    +0.190 C 
BRANCH  11  12
ATOM     12  O   UNL     1       5.992  -7.153  30.029  0.00  0.00    -0.392 OA
ATOM     13  H   UNL     1       6.878  -7.545  29.915  0.00  0.00    +0.210 HD
ENDBRANCH  11  12
ENDBRANCH   4  11
BRANCH   2  14
ATOM     14  O   UNL     1       6.664  -5.315  25.571  0.00  0.00    -0.453 OA
BRANCH  14  15
ATOM     15  C   UNL     1       7.176  -4.633  24.494  0.00  0.00    +0.214 A 
ATOM     16  C   UNL     1       8.405  -3.886  24.944  0.00  0.00    +0.238 A 
ATOM     17  O   UNL     1       9.214  -4.396  25.710  0.00  0.00    -0.283 OA
ATOM     18  C   UNL     1       8.448  -2.469  24.597  0.00  0.00    +0.109 A 
ATOM     19  C   UNL     1       7.672  -2.124  23.518  0.00  0.00    +0.147 A 
ATOM     20  C   UNL     1       7.582  -0.740  23.197  0.00  0.00    +0.093 A 
ATOM     21  C   UNL     1       8.203   0.292  23.960  0.00  0.00    +0.131 A 
ATOM     22  C   UNL     1       9.017  -0.082  25.017  0.00  0.00    +0.092 A 
ATOM     23  O   UNL     1       6.953  -3.069  22.766  0.00  0.00    -0.451 OA
ATOM     24  C   UNL     1       9.110  -1.456  25.346  0.00  0.00    +0.135 A 
ATOM     25  C   UNL     1       6.362  -4.419  23.361  0.00  0.00    +0.181 A 
BRANCH  25  26
ATOM     26  C   UNL     1       4.517  -5.241  22.928  0.00  0.00    +0.025 A 
ATOM     27  C   UNL     1       4.051  -6.488  22.152  0.00  0.00    +0.015 A 
ATOM     28  C   UNL     1       2.781  -7.109  21.912  0.00  0.00    +0.050 A 
ATOM     29  C   UNL     1       1.654  -6.561  22.421  0.00  0.00    +0.158 A 
ATOM     30  C   UNL     1       1.817  -5.471  23.229  0.00  0.00    +0.159 A 
ATOM     31  C   UNL     1       3.117  -4.908  23.487  0.00  0.00    +0.060 A 
BRANCH  30  32
ATOM     32  O   UNL     1       0.696  -4.979  23.854  0.00  0.00    -0.503 OA
ATOM     33  H   UNL     1       0.983  -4.276  24.474  0.00  0.00    +0.292 HD
ENDBRANCH  30  32
BRANCH  29  34
ATOM     34  O   UNL     1       0.449  -7.136  22.185  0.00  0.00    -0.503 OA
ATOM     35  H   UNL     1       0.221  -7.600  23.013  0.00  0.00    +0.292 HD
ENDBRANCH  29  34
ENDBRANCH  25  26
BRANCH  24  36
ATOM     36  O   UNL     1       9.783  -1.787  26.494  0.00  0.00    -0.506 OA
ATOM     37  H   UNL     1       9.972  -2.739  26.506  0.00  0.00    +0.292 HD
ENDBRANCH  24  36
BRANCH  21  38
ATOM     38  O   UNL     1       7.725   1.562  23.753  0.00  0.00    -0.461 OA
BRANCH  38  39
ATOM     39  C   UNL     1       8.110   2.447  22.672  0.00  0.00    +0.339 C 
ATOM     40  O   UNL     1       9.496   2.843  22.612  0.00  0.00    -0.334 OA
ATOM     41  C   UNL     1       9.978   3.648  23.693  0.00  0.00    +0.150 C 
ATOM     42  C   UNL     1      11.405   4.118  23.370  0.00  0.00    +0.041 C 
ATOM     43  C   UNL     1       9.112   4.872  24.045  0.00  0.00    +0.174 C 
ATOM     44  C   UNL     1       7.632   4.485  24.096  0.00  0.00    +0.180 C 
ATOM     45  C   UNL     1       7.224   3.723  22.821  0.00  0.00    +0.214 C 
BRANCH  45  46
ATOM     46  O   UNL     1       7.321   4.555  21.651  0.00  0.00    -0.383 OA
ATOM     47  H   UNL     1       7.190   3.998  20.861  0.00  0.00    +0.210 HD
ENDBRANCH  45  46
BRANCH  44  48
ATOM     48  O   UNL     1       6.841   5.675  24.231  0.00  0.00    -0.386 OA
ATOM     49  H   UNL     1       7.428   6.392  24.532  0.00  0.00    +0.210 HD
ENDBRANCH  44  48
BRANCH  43  50
ATOM     50  O   UNL     1       9.541   5.429  25.298  0.00  0.00    -0.387 OA
ATOM     51  H   UNL     1      10.497   5.286  25.392  0.00  0.00    +0.210 HD
ENDBRANCH  43  50
ENDBRANCH  38  39
ENDBRANCH  21  38
ENDBRANCH  14  15
ENDBRANCH   2  14
BRANCH   1  52
ATOM     52  O   UNL     1       5.307  -1.881  25.258  0.00  0.00    -0.337 OA
BRANCH  52  55
ATOM     53  C   UNL     1       4.189   1.453  26.005  0.00  0.00    +0.178 C 
ATOM     54  O   UNL     1       4.493   0.268  25.269  0.00  0.00    -0.341 OA
ATOM     55  C   UNL     1       5.030  -0.738  26.103  0.00  0.00    +0.282 C 
ATOM     56  C   UNL     1       6.325  -0.242  26.783  0.00  0.00    +0.201 C 
ATOM     57  C   UNL     1       6.209   1.185  27.359  0.00  0.00    +0.179 C 
ATOM     58  C   UNL     1       5.478   2.138  26.419  0.00  0.00    +0.177 C 
BRANCH  58  59
ATOM     59  O   UNL     1       5.193   3.371  27.091  0.00  0.00    -0.386 OA
ATOM     60  H   UNL     1       5.745   3.401  27.894  0.00  0.00    +0.210 HD
ENDBRANCH  58  59
BRANCH  57  61
ATOM     61  O   UNL     1       7.534   1.692  27.594  0.00  0.00    -0.386 OA
ATOM     62  H   UNL     1       7.880   1.221  28.371  0.00  0.00    +0.210 HD
ENDBRANCH  57  61
BRANCH  56  63
ATOM     63  O   UNL     1       6.680  -1.129  27.860  0.00  0.00    -0.384 OA
ATOM     64  H   UNL     1       5.881  -1.655  28.042  0.00  0.00    +0.210 HD
ENDBRANCH  56  63
BRANCH  53  65
ATOM     65  C   UNL     1       3.405   2.352  25.094  0.00  0.00    +0.197 C 
BRANCH  65  66
ATOM     66  O   UNL     1       4.356   3.088  24.326  0.00  0.00    -0.346 OA
BRANCH  66  70
ATOM     67  C   UNL     1       3.763   6.976  22.974  0.00  0.00    +0.041 C 
ATOM     68  C   UNL     1       2.785   6.280  23.917  0.00  0.00    +0.149 C 
ATOM     69  O   UNL     1       3.380   5.139  24.523  0.00  0.00    -0.343 OA
ATOM     70  C   UNL     1       3.664   4.087  23.611  0.00  0.00    +0.282 C 
ATOM     71  C   UNL     1       2.411   3.489  22.970  0.00  0.00    +0.201 C 
ATOM     72  C   UNL     1       1.533   4.620  22.410  0.00  0.00    +0.179 C 
ATOM     73  C   UNL     1       1.430   5.823  23.363  0.00  0.00    +0.174 C 
BRANCH  73  74
ATOM     74  O   UNL     1       0.628   5.419  24.491  0.00  0.00    -0.387 OA
ATOM     75  H   UNL     1      -0.221   5.076  24.141  0.00  0.00    +0.210 HD
ENDBRANCH  73  74
BRANCH  72  76
ATOM     76  O   UNL     1       2.012   5.021  21.117  0.00  0.00    -0.386 OA
ATOM     77  H   UNL     1       2.824   5.546  21.219  0.00  0.00    +0.210 HD
ENDBRANCH  72  76
BRANCH  71  78
ATOM     78  O   UNL     1       2.820   2.618  21.886  0.00  0.00    -0.384 OA
ATOM     79  H   UNL     1       1.994   2.252  21.507  0.00  0.00    +0.210 HD
ENDBRANCH  71  78
ENDBRANCH  66  70
ENDBRANCH  65  66
ENDBRANCH  53  65
ENDBRANCH  52  55
ENDBRANCH   1  52
TORSDOF 26
ENDMDL
