MODEL 1
REMARK VINA RESULT:      -6.2      0.000      0.000
REMARK  Name = 
REMARK  32 active torsions:
REMARK  status: ('A' for Active; 'I' for Inactive)
REMARK    1  A    between atoms: C_1  and  O_2
REMARK    2  A    between atoms: O_2  and  C_3
REMARK    3  A    between atoms: C_5  and  C_12
REMARK    4  A    between atoms: C_7  and  O_10
REMARK    5  A    between atoms: C_8  and  O_9
REMARK    6  A    between atoms: O_10  and  C_11
REMARK    7  A    between atoms: C_13  and  C_14
REMARK    8  A    between atoms: C_14  and  O_16
REMARK    9  A    between atoms: O_16  and  C_17
REMARK   10  A    between atoms: C_17  and  C_18
REMARK   11  A    between atoms: C_19  and  O_70
REMARK   12  A    between atoms: C_20  and  O_69
REMARK   13  A    between atoms: C_21  and  O_68
REMARK   14  A    between atoms: C_22  and  O_24
REMARK   15  A    between atoms: O_24  and  C_25
REMARK   16  A    between atoms: C_26  and  O_67
REMARK   17  A    between atoms: C_27  and  O_66
REMARK   18  A    between atoms: C_28  and  C_64
REMARK   19  A    between atoms: C_30  and  O_31
REMARK   20  A    between atoms: O_31  and  C_32
REMARK   21  A    between atoms: C_33  and  O_63
REMARK   22  A    between atoms: C_34  and  O_62
REMARK   23  A    between atoms: C_35  and  C_60
REMARK   24  A    between atoms: C_37  and  O_38
REMARK   25  A    between atoms: O_38  and  C_39
REMARK   26  A    between atoms: C_40  and  C_52
REMARK   27  A    between atoms: C_44  and  O_51
REMARK   28  A    between atoms: C_46  and  O_50
REMARK   29  A    between atoms: C_54  and  O_59
REMARK   30  A    between atoms: C_55  and  O_58
REMARK   31  A    between atoms: C_60  and  O_61
REMARK   32  A    between atoms: C_64  and  O_65
REMARK                            x       y       z     vdW  Elec       q    Type
REMARK                         _______ _______ _______ _____ _____    ______ ____
ROOT
ATOM      1  C   UNL     1       5.673   0.390  25.799  0.00  0.00    +0.208 C 
ATOM      2  C   UNL     1       4.956   1.770  26.134  0.00  0.00    +0.283 C 
ATOM      3  O   UNL     1       4.365   1.854  27.428  0.00  0.00    -0.341 OA
ATOM      4  C   UNL     1       3.636   0.722  27.906  0.00  0.00    +0.178 C 
ATOM      5  C   UNL     1       4.595  -0.444  28.017  0.00  0.00    +0.177 C 
ATOM      6  C   UNL     1       5.191  -0.794  26.663  0.00  0.00    +0.179 C 
ENDROOT
BRANCH   5   7
ATOM      7  O   UNL     1       3.947  -1.611  28.537  0.00  0.00    -0.386 OA
ATOM      8  H   UNL     1       3.405  -1.308  29.295  0.00  0.00    +0.210 HD
ENDBRANCH   5   7
BRANCH   6   9
ATOM      9  O   UNL     1       6.200  -1.780  26.948  0.00  0.00    -0.386 OA
ATOM     10  H   UNL     1       6.688  -1.454  27.734  0.00  0.00    +0.210 HD
ENDBRANCH   6   9
BRANCH   2  11
ATOM     11  O   UNL     1       4.003   2.074  25.086  0.00  0.00    -0.337 OA
BRANCH  11  12
ATOM     12  C   UNL     1       4.138   3.363  24.433  0.00  0.00    +0.221 C 
ATOM     13  C   UNL     1       3.091   4.388  25.002  0.00  0.00    +0.340 C 
ATOM     14  O   UNL     1       1.757   4.022  24.608  0.00  0.00    -0.331 OA
ATOM     15  C   UNL     1       1.482   3.841  23.219  0.00  0.00    +0.179 C 
ATOM     16  C   UNL     1       2.503   2.903  22.553  0.00  0.00    +0.177 C 
ATOM     17  C   UNL     1       3.926   3.332  22.907  0.00  0.00    +0.180 C 
BRANCH  17  18
ATOM     18  O   UNL     1       4.875   2.522  22.205  0.00  0.00    -0.386 OA
ATOM     19  H   UNL     1       4.594   1.590  22.282  0.00  0.00    +0.210 HD
ENDBRANCH  17  18
BRANCH  16  20
ATOM     20  O   UNL     1       2.350   2.881  21.124  0.00  0.00    -0.386 OA
ATOM     21  H   UNL     1       1.886   3.708  20.877  0.00  0.00    +0.210 HD
ENDBRANCH  16  20
BRANCH  15  22
ATOM     22  C   UNL     1       1.272   5.174  22.467  0.00  0.00    +0.190 C 
BRANCH  22  23
ATOM     23  O   UNL     1       0.923   6.247  23.344  0.00  0.00    -0.392 OA
ATOM     24  H   UNL     1       0.651   7.000  22.778  0.00  0.00    +0.210 HD
ENDBRANCH  22  23
ENDBRANCH  15  22
BRANCH  13  25
ATOM     25  O   UNL     1       3.503   5.678  24.524  0.00  0.00    -0.453 OA
BRANCH  25  26
ATOM     26  C   UNL     1       4.743   6.221  24.782  0.00  0.00    +0.214 A 
ATOM     27  C   UNL     1       5.643   6.626  23.660  0.00  0.00    +0.238 A 
ATOM     28  O   UNL     1       5.206   7.051  22.600  0.00  0.00    -0.283 OA
ATOM     29  C   UNL     1       7.088   6.546  23.933  0.00  0.00    +0.109 A 
ATOM     30  C   UNL     1       7.476   6.605  25.269  0.00  0.00    +0.147 A 
ATOM     31  C   UNL     1       8.829   6.571  25.615  0.00  0.00    +0.092 A 
ATOM     32  C   UNL     1       9.784   6.455  24.610  0.00  0.00    +0.124 A 
ATOM     33  C   UNL     1       9.412   6.380  23.271  0.00  0.00    +0.091 A 
ATOM     34  O   UNL     1       6.567   6.707  26.293  0.00  0.00    -0.451 OA
ATOM     35  C   UNL     1       8.060   6.426  22.932  0.00  0.00    +0.135 A 
ATOM     36  C   UNL     1       5.249   6.323  26.040  0.00  0.00    +0.181 A 
BRANCH  36  37
ATOM     37  C   UNL     1       4.459   6.129  27.307  0.00  0.00    +0.025 A 
ATOM     38  C   UNL     1       4.877   5.245  28.317  0.00  0.00    +0.015 A 
ATOM     39  C   UNL     1       4.041   4.864  29.371  0.00  0.00    +0.050 A 
ATOM     40  C   UNL     1       2.798   5.449  29.489  0.00  0.00    +0.158 A 
ATOM     41  C   UNL     1       2.424   6.458  28.614  0.00  0.00    +0.159 A 
ATOM     42  C   UNL     1       3.226   6.790  27.516  0.00  0.00    +0.060 A 
BRANCH  41  43
ATOM     43  O   UNL     1       1.247   7.107  28.873  0.00  0.00    -0.503 OA
ATOM     44  H   UNL     1       0.600   6.777  28.223  0.00  0.00    +0.292 HD
ENDBRANCH  41  43
BRANCH  40  45
ATOM     45  O   UNL     1       1.962   5.038  30.484  0.00  0.00    -0.503 OA
ATOM     46  H   UNL     1       1.206   4.620  30.026  0.00  0.00    +0.292 HD
ENDBRANCH  40  45
ENDBRANCH  36  37
BRANCH  35  47
ATOM     47  O   UNL     1       7.701   6.310  21.621  0.00  0.00    -0.506 OA
ATOM     48  H   UNL     1       8.407   6.651  21.050  0.00  0.00    +0.292 HD
ENDBRANCH  35  47
BRANCH  32  49
ATOM     49  O   UNL     1      11.117   6.399  24.893  0.00  0.00    -0.507 OA
ATOM     50  H   UNL     1      11.510   7.278  24.761  0.00  0.00    +0.292 HD
ENDBRANCH  32  49
ENDBRANCH  25  26
ENDBRANCH  13  25
ENDBRANCH  11  12
ENDBRANCH   2  11
BRANCH   1  51
ATOM     51  O   UNL     1       7.130   0.456  25.740  0.00  0.00    -0.338 OA
BRANCH  51  54
ATOM     52  C   UNL     1       8.802  -1.848  23.373  0.00  0.00    +0.190 C 
ATOM     53  O   UNL     1       8.229  -1.292  24.586  0.00  0.00    -0.339 OA
ATOM     54  C   UNL     1       7.714   0.047  24.465  0.00  0.00    +0.282 C 
ATOM     55  C   UNL     1       8.828   0.993  23.974  0.00  0.00    +0.201 C 
ATOM     56  C   UNL     1       9.399   0.483  22.653  0.00  0.00    +0.179 C 
ATOM     57  C   UNL     1       9.922  -0.947  22.825  0.00  0.00    +0.178 C 
BRANCH  55  58
ATOM     58  O   UNL     1       9.890   1.100  24.940  0.00  0.00    -0.384 OA
ATOM     59  H   UNL     1      10.040   0.204  25.305  0.00  0.00    +0.210 HD
ENDBRANCH  55  58
BRANCH  56  60
ATOM     60  O   UNL     1      10.439   1.357  22.213  0.00  0.00    -0.386 OA
ATOM     61  H   UNL     1      10.300   1.485  21.252  0.00  0.00    +0.210 HD
ENDBRANCH  56  60
BRANCH  57  62
ATOM     62  O   UNL     1      10.460  -1.480  21.615  0.00  0.00    -0.386 OA
ATOM     63  H   UNL     1      10.064  -2.351  21.441  0.00  0.00    +0.210 HD
ENDBRANCH  57  62
BRANCH  52  64
ATOM     64  C   UNL     1       7.762  -2.203  22.280  0.00  0.00    +0.266 C 
BRANCH  64  65
ATOM     65  O   UNL     1       7.281  -3.544  22.431  0.00  0.00    -0.459 OA
BRANCH  65  66
ATOM     66  C   UNL     1       6.059  -3.761  21.884  0.00  0.00    +0.332 C 
ATOM     67  O   UNL     1       5.728  -3.558  20.729  0.00  0.00    -0.246 OA
BRANCH  66  69
ATOM     68  C   UNL     1       5.691  -5.152  23.836  0.00  0.00    +0.015 C 
ATOM     69  C   UNL     1       5.184  -4.296  22.940  0.00  0.00    +0.092 C 
BRANCH  68  74
ATOM     70  C   UNL     1       3.333  -7.571  25.448  0.00  0.00    +0.166 A 
ATOM     71  C   UNL     1       3.299  -7.120  26.784  0.00  0.00    +0.201 A 
ATOM     72  C   UNL     1       4.076  -6.023  27.178  0.00  0.00    +0.166 A 
ATOM     73  C   UNL     1       4.862  -5.377  26.208  0.00  0.00    +0.057 A 
ATOM     74  C   UNL     1       4.894  -5.805  24.877  0.00  0.00    -0.018 A 
ATOM     75  C   UNL     1       4.149  -6.924  24.515  0.00  0.00    +0.057 A 
BRANCH  70  77
ATOM     76  C   UNL     1       1.542  -8.472  24.182  0.00  0.00    +0.277 C 
ATOM     77  O   UNL     1       2.584  -8.680  25.132  0.00  0.00    -0.491 OA
ENDBRANCH  70  77
BRANCH  72  78
ATOM     78  O   UNL     1       4.206  -5.411  28.394  0.00  0.00    -0.491 OA
ATOM     79  C   UNL     1       5.448  -4.921  28.854  0.00  0.00    +0.277 C 
ENDBRANCH  72  78
BRANCH  71  80
ATOM     80  O   UNL     1       2.447  -7.791  27.623  0.00  0.00    -0.501 OA
ATOM     81  H   UNL     1       2.372  -7.297  28.448  0.00  0.00    +0.292 HD
ENDBRANCH  71  80
ENDBRANCH  68  74
ENDBRANCH  66  69
ENDBRANCH  65  66
ENDBRANCH  64  65
ENDBRANCH  52  64
ENDBRANCH  51  54
ENDBRANCH   1  51
BRANCH   4  82
ATOM     82  C   UNL     1       2.358   0.363  27.120  0.00  0.00    +0.190 C 
BRANCH  82  83
ATOM     83  O   UNL     1       1.832   1.482  26.412  0.00  0.00    -0.392 OA
ATOM     84  H   UNL     1       1.942   2.271  26.973  0.00  0.00    +0.210 HD
ENDBRANCH  82  83
ENDBRANCH   4  82
TORSDOF 30
ENDMDL
MODEL 2
REMARK VINA RESULT:      -5.1      2.329      7.485
REMARK  Name = 
REMARK  32 active torsions:
REMARK  status: ('A' for Active; 'I' for Inactive)
REMARK    1  A    between atoms: C_1  and  O_2
REMARK    2  A    between atoms: O_2  and  C_3
REMARK    3  A    between atoms: C_5  and  C_12
REMARK    4  A    between atoms: C_7  and  O_10
REMARK    5  A    between atoms: C_8  and  O_9
REMARK    6  A    between atoms: O_10  and  C_11
REMARK    7  A    between atoms: C_13  and  C_14
REMARK    8  A    between atoms: C_14  and  O_16
REMARK    9  A    between atoms: O_16  and  C_17
REMARK   10  A    between atoms: C_17  and  C_18
REMARK   11  A    between atoms: C_19  and  O_70
REMARK   12  A    between atoms: C_20  and  O_69
REMARK   13  A    between atoms: C_21  and  O_68
REMARK   14  A    between atoms: C_22  and  O_24
REMARK   15  A    between atoms: O_24  and  C_25
REMARK   16  A    between atoms: C_26  and  O_67
REMARK   17  A    between atoms: C_27  and  O_66
REMARK   18  A    between atoms: C_28  and  C_64
REMARK   19  A    between atoms: C_30  and  O_31
REMARK   20  A    between atoms: O_31  and  C_32
REMARK   21  A    between atoms: C_33  and  O_63
REMARK   22  A    between atoms: C_34  and  O_62
REMARK   23  A    between atoms: C_35  and  C_60
REMARK   24  A    between atoms: C_37  and  O_38
REMARK   25  A    between atoms: O_38  and  C_39
REMARK   26  A    between atoms: C_40  and  C_52
REMARK   27  A    between atoms: C_44  and  O_51
REMARK   28  A    between atoms: C_46  and  O_50
REMARK   29  A    between atoms: C_54  and  O_59
REMARK   30  A    between atoms: C_55  and  O_58
REMARK   31  A    between atoms: C_60  and  O_61
REMARK   32  A    between atoms: C_64  and  O_65
REMARK                            x       y       z     vdW  Elec       q    Type
REMARK                         _______ _______ _______ _____ _____    ______ ____
ROOT
ATOM      1  C   UNL     1       5.565  -2.225  26.700  0.00  0.00    +0.208 C 
ATOM      2  C   UNL     1       5.468  -0.676  26.352  0.00  0.00    +0.283 C 
ATOM      3  O   UNL     1       6.626  -0.112  25.742  0.00  0.00    -0.341 OA
ATOM      4  C   UNL     1       7.905  -0.483  26.262  0.00  0.00    +0.178 C 
ATOM      5  C   UNL     1       8.078  -1.974  26.067  0.00  0.00    +0.177 C 
ATOM      6  C   UNL     1       7.010  -2.753  26.819  0.00  0.00    +0.179 C 
ENDROOT
BRANCH   5   7
ATOM      7  O   UNL     1       9.361  -2.419  26.522  0.00  0.00    -0.386 OA
ATOM      8  H   UNL     1       9.793  -2.844  25.752  0.00  0.00    +0.210 HD
ENDBRANCH   5   7
BRANCH   6   9
ATOM      9  O   UNL     1       7.187  -4.119  26.402  0.00  0.00    -0.386 OA
ATOM     10  H   UNL     1       7.314  -4.095  25.429  0.00  0.00    +0.210 HD
ENDBRANCH   6   9
BRANCH   2  11
ATOM     11  O   UNL     1       5.078   0.053  27.542  0.00  0.00    -0.337 OA
BRANCH  11  12
ATOM     12  C   UNL     1       3.813   0.761  27.491  0.00  0.00    +0.221 C 
ATOM     13  C   UNL     1       3.714   1.809  28.659  0.00  0.00    +0.340 C 
ATOM     14  O   UNL     1       3.603   1.146  29.930  0.00  0.00    -0.331 OA
ATOM     15  C   UNL     1       2.557   0.190  30.110  0.00  0.00    +0.179 C 
ATOM     16  C   UNL     1       2.528  -0.844  28.972  0.00  0.00    +0.177 C 
ATOM     17  C   UNL     1       2.570  -0.141  27.616  0.00  0.00    +0.180 C 
BRANCH  17  18
ATOM     18  O   UNL     1       2.438  -1.097  26.559  0.00  0.00    -0.386 OA
ATOM     19  H   UNL     1       2.046  -1.910  26.933  0.00  0.00    +0.210 HD
ENDBRANCH  17  18
BRANCH  16  20
ATOM     20  O   UNL     1       1.358  -1.678  29.044  0.00  0.00    -0.386 OA
ATOM     21  H   UNL     1       1.675  -2.601  29.135  0.00  0.00    +0.210 HD
ENDBRANCH  16  20
BRANCH  15  22
ATOM     22  C   UNL     1       1.188   0.843  30.401  0.00  0.00    +0.190 C 
BRANCH  22  23
ATOM     23  O   UNL     1       0.555   1.336  29.219  0.00  0.00    -0.392 OA
ATOM     24  H   UNL     1      -0.412   1.261  29.362  0.00  0.00    +0.210 HD
ENDBRANCH  22  23
ENDBRANCH  15  22
BRANCH  13  25
ATOM     25  O   UNL     1       2.591   2.646  28.341  0.00  0.00    -0.453 OA
BRANCH  25  26
ATOM     26  C   UNL     1       2.561   3.496  27.257  0.00  0.00    +0.214 A 
ATOM     27  C   UNL     1       1.560   3.297  26.165  0.00  0.00    +0.238 A 
ATOM     28  O   UNL     1       0.444   2.847  26.382  0.00  0.00    -0.283 OA
ATOM     29  C   UNL     1       1.976   3.738  24.823  0.00  0.00    +0.109 A 
ATOM     30  C   UNL     1       2.971   4.710  24.765  0.00  0.00    +0.147 A 
ATOM     31  C   UNL     1       3.400   5.212  23.534  0.00  0.00    +0.092 A 
ATOM     32  C   UNL     1       2.837   4.711  22.363  0.00  0.00    +0.124 A 
ATOM     33  C   UNL     1       1.852   3.730  22.404  0.00  0.00    +0.091 A 
ATOM     34  O   UNL     1       3.563   5.222  25.893  0.00  0.00    -0.451 OA
ATOM     35  C   UNL     1       1.420   3.242  23.637  0.00  0.00    +0.135 A 
ATOM     36  C   UNL     1       3.483   4.478  27.071  0.00  0.00    +0.181 A 
BRANCH  36  37
ATOM     37  C   UNL     1       4.464   4.948  28.111  0.00  0.00    +0.025 A 
ATOM     38  C   UNL     1       4.312   6.178  28.775  0.00  0.00    +0.015 A 
ATOM     39  C   UNL     1       5.333   6.742  29.548  0.00  0.00    +0.050 A 
ATOM     40  C   UNL     1       6.493   6.027  29.755  0.00  0.00    +0.158 A 
ATOM     41  C   UNL     1       6.605   4.734  29.265  0.00  0.00    +0.159 A 
ATOM     42  C   UNL     1       5.618   4.195  28.431  0.00  0.00    +0.060 A 
BRANCH  41  43
ATOM     43  O   UNL     1       7.713   4.019  29.631  0.00  0.00    -0.503 OA
ATOM     44  H   UNL     1       7.801   4.119  30.597  0.00  0.00    +0.292 HD
ENDBRANCH  41  43
BRANCH  40  45
ATOM     45  O   UNL     1       7.509   6.599  30.461  0.00  0.00    -0.503 OA
ATOM     46  H   UNL     1       7.984   5.851  30.876  0.00  0.00    +0.292 HD
ENDBRANCH  40  45
ENDBRANCH  36  37
BRANCH  35  47
ATOM     47  O   UNL     1       0.484   2.250  23.667  0.00  0.00    -0.506 OA
ATOM     48  H   UNL     1      -0.381   2.614  23.916  0.00  0.00    +0.292 HD
ENDBRANCH  35  47
BRANCH  32  49
ATOM     49  O   UNL     1       3.232   5.151  21.135  0.00  0.00    -0.507 OA
ATOM     50  H   UNL     1       2.890   6.049  20.991  0.00  0.00    +0.292 HD
ENDBRANCH  32  49
ENDBRANCH  25  26
ENDBRANCH  13  25
ENDBRANCH  11  12
ENDBRANCH   2  11
BRANCH   1  51
ATOM     51  O   UNL     1       4.741  -3.092  25.864  0.00  0.00    -0.338 OA
BRANCH  51  54
ATOM     52  C   UNL     1       6.073  -2.762  22.425  0.00  0.00    +0.190 C 
ATOM     53  O   UNL     1       5.421  -2.462  23.687  0.00  0.00    -0.339 OA
ATOM     54  C   UNL     1       5.380  -3.548  24.632  0.00  0.00    +0.282 C 
ATOM     55  C   UNL     1       4.679  -4.766  23.998  0.00  0.00    +0.201 C 
ATOM     56  C   UNL     1       5.393  -5.163  22.708  0.00  0.00    +0.179 C 
ATOM     57  C   UNL     1       5.424  -3.977  21.739  0.00  0.00    +0.178 C 
BRANCH  55  58
ATOM     58  O   UNL     1       3.297  -4.487  23.709  0.00  0.00    -0.384 OA
ATOM     59  H   UNL     1       3.211  -4.432  22.736  0.00  0.00    +0.210 HD
ENDBRANCH  55  58
BRANCH  56  60
ATOM     60  O   UNL     1       4.730  -6.283  22.120  0.00  0.00    -0.386 OA
ATOM     61  H   UNL     1       4.576  -6.922  22.847  0.00  0.00    +0.210 HD
ENDBRANCH  56  60
BRANCH  57  62
ATOM     62  O   UNL     1       6.090  -4.289  20.516  0.00  0.00    -0.386 OA
ATOM     63  H   UNL     1       5.895  -3.601  19.857  0.00  0.00    +0.210 HD
ENDBRANCH  57  62
BRANCH  52  64
ATOM     64  C   UNL     1       7.613  -2.912  22.524  0.00  0.00    +0.266 C 
BRANCH  64  65
ATOM     65  O   UNL     1       8.287  -1.794  21.932  0.00  0.00    -0.459 OA
BRANCH  65  66
ATOM     66  C   UNL     1       9.452  -1.462  22.542  0.00  0.00    +0.332 C 
ATOM     67  O   UNL     1      10.457  -2.146  22.622  0.00  0.00    -0.246 OA
BRANCH  66  69
ATOM     68  C   UNL     1       9.734   0.942  22.391  0.00  0.00    +0.015 C 
ATOM     69  C   UNL     1       9.297  -0.108  23.098  0.00  0.00    +0.092 C 
BRANCH  68  74
ATOM     70  C   UNL     1      10.966   4.262  23.604  0.00  0.00    +0.166 A 
ATOM     71  C   UNL     1       9.765   4.960  23.856  0.00  0.00    +0.201 A 
ATOM     72  C   UNL     1       8.529   4.351  23.604  0.00  0.00    +0.166 A 
ATOM     73  C   UNL     1       8.521   3.030  23.122  0.00  0.00    +0.057 A 
ATOM     74  C   UNL     1       9.702   2.322  22.882  0.00  0.00    -0.018 A 
ATOM     75  C   UNL     1      10.921   2.960  23.097  0.00  0.00    +0.057 A 
BRANCH  70  77
ATOM     76  C   UNL     1      12.854   5.344  22.663  0.00  0.00    +0.277 C 
ATOM     77  O   UNL     1      12.147   4.928  23.829  0.00  0.00    -0.491 OA
ENDBRANCH  70  77
BRANCH  72  78
ATOM     78  O   UNL     1       7.255   4.816  23.767  0.00  0.00    -0.491 OA
ATOM     79  C   UNL     1       6.910   5.696  24.817  0.00  0.00    +0.277 C 
ENDBRANCH  72  78
BRANCH  71  80
ATOM     80  O   UNL     1       9.902   6.217  24.384  0.00  0.00    -0.501 OA
ATOM     81  H   UNL     1       9.994   6.143  25.341  0.00  0.00    +0.292 HD
ENDBRANCH  71  80
ENDBRANCH  68  74
ENDBRANCH  66  69
ENDBRANCH  65  66
ENDBRANCH  64  65
ENDBRANCH  52  64
ENDBRANCH  51  54
ENDBRANCH   1  51
BRANCH   4  82
ATOM     82  C   UNL     1       8.199  -0.039  27.709  0.00  0.00    +0.190 C 
BRANCH  82  83
ATOM     83  O   UNL     1       7.593   1.214  28.019  0.00  0.00    -0.392 OA
ATOM     84  H   UNL     1       8.271   1.781  28.431  0.00  0.00    +0.210 HD
ENDBRANCH  82  83
ENDBRANCH   4  82
TORSDOF 30
ENDMDL
MODEL 3
REMARK VINA RESULT:      -4.6      2.301      4.417
REMARK  Name = 
REMARK  32 active torsions:
REMARK  status: ('A' for Active; 'I' for Inactive)
REMARK    1  A    between atoms: C_1  and  O_2
REMARK    2  A    between atoms: O_2  and  C_3
REMARK    3  A    between atoms: C_5  and  C_12
REMARK    4  A    between atoms: C_7  and  O_10
REMARK    5  A    between atoms: C_8  and  O_9
REMARK    6  A    between atoms: O_10  and  C_11
REMARK    7  A    between atoms: C_13  and  C_14
REMARK    8  A    between atoms: C_14  and  O_16
REMARK    9  A    between atoms: O_16  and  C_17
REMARK   10  A    between atoms: C_17  and  C_18
REMARK   11  A    between atoms: C_19  and  O_70
REMARK   12  A    between atoms: C_20  and  O_69
REMARK   13  A    between atoms: C_21  and  O_68
REMARK   14  A    between atoms: C_22  and  O_24
REMARK   15  A    between atoms: O_24  and  C_25
REMARK   16  A    between atoms: C_26  and  O_67
REMARK   17  A    between atoms: C_27  and  O_66
REMARK   18  A    between atoms: C_28  and  C_64
REMARK   19  A    between atoms: C_30  and  O_31
REMARK   20  A    between atoms: O_31  and  C_32
REMARK   21  A    between atoms: C_33  and  O_63
REMARK   22  A    between atoms: C_34  and  O_62
REMARK   23  A    between atoms: C_35  and  C_60
REMARK   24  A    between atoms: C_37  and  O_38
REMARK   25  A    between atoms: O_38  and  C_39
REMARK   26  A    between atoms: C_40  and  C_52
REMARK   27  A    between atoms: C_44  and  O_51
REMARK   28  A    between atoms: C_46  and  O_50
REMARK   29  A    between atoms: C_54  and  O_59
REMARK   30  A    between atoms: C_55  and  O_58
REMARK   31  A    between atoms: C_60  and  O_61
REMARK   32  A    between atoms: C_64  and  O_65
REMARK                            x       y       z     vdW  Elec       q    Type
REMARK                         _______ _______ _______ _____ _____    ______ ____
ROOT
ATOM      1  C   UNL     1       6.953   1.225  24.732  0.00  0.00    +0.208 C 
ATOM      2  C   UNL     1       6.260   0.584  23.452  0.00  0.00    +0.283 C 
ATOM      3  O   UNL     1       7.141  -0.070  22.542  0.00  0.00    -0.341 OA
ATOM      4  C   UNL     1       8.383   0.568  22.237  0.00  0.00    +0.178 C 
ATOM      5  C   UNL     1       9.187   0.669  23.516  0.00  0.00    +0.177 C 
ATOM      6  C   UNL     1       8.460   1.507  24.556  0.00  0.00    +0.179 C 
ENDROOT
BRANCH   5   7
ATOM      7  O   UNL     1      10.472   1.258  23.285  0.00  0.00    -0.386 OA
ATOM      8  H   UNL     1      10.598   1.926  23.991  0.00  0.00    +0.210 HD
ENDBRANCH   5   7
BRANCH   6   9
ATOM      9  O   UNL     1       9.241   1.367  25.755  0.00  0.00    -0.386 OA
ATOM     10  H   UNL     1       8.610   1.426  26.504  0.00  0.00    +0.210 HD
ENDBRANCH   6   9
BRANCH   2  11
ATOM     11  O   UNL     1       5.458   1.594  22.792  0.00  0.00    -0.337 OA
BRANCH  11  12
ATOM     12  C   UNL     1       5.286   2.854  23.492  0.00  0.00    +0.221 C 
ATOM     13  C   UNL     1       4.250   2.702  24.665  0.00  0.00    +0.340 C 
ATOM     14  O   UNL     1       2.924   2.496  24.148  0.00  0.00    -0.331 OA
ATOM     15  C   UNL     1       2.400   3.446  23.220  0.00  0.00    +0.179 C 
ATOM     16  C   UNL     1       3.378   3.716  22.065  0.00  0.00    +0.177 C 
ATOM     17  C   UNL     1       4.774   4.010  22.611  0.00  0.00    +0.180 C 
BRANCH  17  18
ATOM     18  O   UNL     1       5.659   4.362  21.543  0.00  0.00    -0.386 OA
ATOM     19  H   UNL     1       5.235   5.067  21.018  0.00  0.00    +0.210 HD
ENDBRANCH  17  18
BRANCH  16  20
ATOM     20  O   UNL     1       2.942   4.814  21.246  0.00  0.00    -0.386 OA
ATOM     21  H   UNL     1       3.665   4.996  20.610  0.00  0.00    +0.210 HD
ENDBRANCH  16  20
BRANCH  15  22
ATOM     22  C   UNL     1       1.867   4.724  23.903  0.00  0.00    +0.190 C 
BRANCH  22  23
ATOM     23  O   UNL     1       2.670   5.871  23.619  0.00  0.00    -0.392 OA
ATOM     24  H   UNL     1       2.455   6.150  22.704  0.00  0.00    +0.210 HD
ENDBRANCH  22  23
ENDBRANCH  15  22
BRANCH  13  25
ATOM     25  O   UNL     1       4.384   3.889  25.462  0.00  0.00    -0.453 OA
BRANCH  25  26
ATOM     26  C   UNL     1       5.581   4.543  25.655  0.00  0.00    +0.214 A 
ATOM     27  C   UNL     1       6.027   5.606  24.704  0.00  0.00    +0.238 A 
ATOM     28  O   UNL     1       5.233   6.337  24.130  0.00  0.00    -0.283 OA
ATOM     29  C   UNL     1       7.483   5.763  24.552  0.00  0.00    +0.109 A 
ATOM     30  C   UNL     1       8.274   5.317  25.608  0.00  0.00    +0.147 A 
ATOM     31  C   UNL     1       9.663   5.460  25.562  0.00  0.00    +0.092 A 
ATOM     32  C   UNL     1      10.250   6.035  24.438  0.00  0.00    +0.124 A 
ATOM     33  C   UNL     1       9.474   6.472  23.369  0.00  0.00    +0.091 A 
ATOM     34  O   UNL     1       7.739   4.734  26.729  0.00  0.00    -0.451 OA
ATOM     35  C   UNL     1       8.087   6.336  23.426  0.00  0.00    +0.135 A 
ATOM     36  C   UNL     1       6.454   4.196  26.639  0.00  0.00    +0.181 A 
BRANCH  36  37
ATOM     37  C   UNL     1       6.137   3.277  27.789  0.00  0.00    +0.025 A 
ATOM     38  C   UNL     1       7.129   2.506  28.420  0.00  0.00    +0.015 A 
ATOM     39  C   UNL     1       6.819   1.471  29.308  0.00  0.00    +0.050 A 
ATOM     40  C   UNL     1       5.504   1.260  29.663  0.00  0.00    +0.158 A 
ATOM     41  C   UNL     1       4.517   2.119  29.200  0.00  0.00    +0.159 A 
ATOM     42  C   UNL     1       4.812   3.108  28.255  0.00  0.00    +0.060 A 
BRANCH  41  43
ATOM     43  O   UNL     1       3.256   1.955  29.706  0.00  0.00    -0.503 OA
ATOM     44  H   UNL     1       2.683   1.723  28.952  0.00  0.00    +0.292 HD
ENDBRANCH  41  43
BRANCH  40  45
ATOM     45  O   UNL     1       5.196   0.218  30.485  0.00  0.00    -0.503 OA
ATOM     46  H   UNL     1       4.598   0.594  31.161  0.00  0.00    +0.292 HD
ENDBRANCH  40  45
ENDBRANCH  36  37
BRANCH  35  47
ATOM     47  O   UNL     1       7.338   6.730  22.357  0.00  0.00    -0.506 OA
ATOM     48  H   UNL     1       7.621   7.607  22.054  0.00  0.00    +0.292 HD
ENDBRANCH  35  47
BRANCH  32  49
ATOM     49  O   UNL     1      11.601   6.182  24.332  0.00  0.00    -0.507 OA
ATOM     50  H   UNL     1      11.854   6.155  23.395  0.00  0.00    +0.292 HD
ENDBRANCH  32  49
ENDBRANCH  25  26
ENDBRANCH  13  25
ENDBRANCH  11  12
ENDBRANCH   2  11
BRANCH   1  51
ATOM     51  O   UNL     1       6.677   0.533  25.987  0.00  0.00    -0.338 OA
BRANCH  51  54
ATOM     52  C   UNL     1       5.154  -2.687  26.996  0.00  0.00    +0.190 C 
ATOM     53  O   UNL     1       5.603  -1.306  27.016  0.00  0.00    -0.339 OA
ATOM     54  C   UNL     1       6.331  -0.879  25.850  0.00  0.00    +0.282 C 
ATOM     55  C   UNL     1       7.558  -1.788  25.638  0.00  0.00    +0.201 C 
ATOM     56  C   UNL     1       7.113  -3.245  25.527  0.00  0.00    +0.179 C 
ATOM     57  C   UNL     1       6.333  -3.651  26.781  0.00  0.00    +0.178 C 
BRANCH  55  58
ATOM     58  O   UNL     1       8.501  -1.660  26.718  0.00  0.00    -0.384 OA
ATOM     59  H   UNL     1       7.998  -1.761  27.552  0.00  0.00    +0.210 HD
ENDBRANCH  55  58
BRANCH  56  60
ATOM     60  O   UNL     1       8.256  -4.081  25.345  0.00  0.00    -0.386 OA
ATOM     61  H   UNL     1       8.131  -4.533  24.485  0.00  0.00    +0.210 HD
ENDBRANCH  56  60
BRANCH  57  62
ATOM     62  O   UNL     1       5.882  -5.005  26.728  0.00  0.00    -0.386 OA
ATOM     63  H   UNL     1       5.712  -5.324  27.631  0.00  0.00    +0.210 HD
ENDBRANCH  57  62
BRANCH  52  64
ATOM     64  C   UNL     1       3.995  -2.966  26.005  0.00  0.00    +0.266 C 
BRANCH  64  65
ATOM     65  O   UNL     1       2.810  -2.247  26.370  0.00  0.00    -0.459 OA
BRANCH  65  66
ATOM     66  C   UNL     1       1.680  -2.698  25.771  0.00  0.00    +0.332 C 
ATOM     67  O   UNL     1       0.789  -2.023  25.285  0.00  0.00    -0.246 OA
BRANCH  66  69
ATOM     68  C   UNL     1       1.121  -4.857  24.818  0.00  0.00    +0.015 C 
ATOM     69  C   UNL     1       1.713  -4.170  25.802  0.00  0.00    +0.092 C 
BRANCH  68  74
ATOM     70  C   UNL     1       0.991  -8.386  26.058  0.00  0.00    +0.166 A 
ATOM     71  C   UNL     1       0.882  -9.127  24.862  0.00  0.00    +0.201 A 
ATOM     72  C   UNL     1       0.825  -8.468  23.627  0.00  0.00    +0.166 A 
ATOM     73  C   UNL     1       0.903  -7.064  23.615  0.00  0.00    +0.057 A 
ATOM     74  C   UNL     1       1.026  -6.319  24.791  0.00  0.00    -0.018 A 
ATOM     75  C   UNL     1       1.036  -6.990  26.011  0.00  0.00    +0.057 A 
BRANCH  70  77
ATOM     76  C   UNL     1       1.128  -8.302  28.424  0.00  0.00    +0.277 C 
ATOM     77  O   UNL     1       0.998  -9.087  27.241  0.00  0.00    -0.491 OA
ENDBRANCH  70  77
BRANCH  72  78
ATOM     78  O   UNL     1       0.723  -8.960  22.357  0.00  0.00    -0.491 OA
ATOM     79  C   UNL     1       1.188  -8.236  21.236  0.00  0.00    +0.277 C 
ENDBRANCH  72  78
BRANCH  71  80
ATOM     80  O   UNL     1       0.878 -10.491  24.999  0.00  0.00    -0.501 OA
ATOM     81  H   UNL     1       0.531 -10.883  24.189  0.00  0.00    +0.292 HD
ENDBRANCH  71  80
ENDBRANCH  68  74
ENDBRANCH  66  69
ENDBRANCH  65  66
ENDBRANCH  64  65
ENDBRANCH  52  64
ENDBRANCH  51  54
ENDBRANCH   1  51
BRANCH   4  82
ATOM     82  C   UNL     1       8.284   1.915  21.494  0.00  0.00    +0.190 C 
BRANCH  82  83
ATOM     83  O   UNL     1       8.796   2.995  22.271  0.00  0.00    -0.392 OA
ATOM     84  H   UNL     1       8.634   3.821  21.780  0.00  0.00    +0.210 HD
ENDBRANCH  82  83
ENDBRANCH   4  82
TORSDOF 30
ENDMDL
MODEL 4
REMARK VINA RESULT:      -4.3      2.332      9.720
REMARK  Name = 
REMARK  32 active torsions:
REMARK  status: ('A' for Active; 'I' for Inactive)
REMARK    1  A    between atoms: C_1  and  O_2
REMARK    2  A    between atoms: O_2  and  C_3
REMARK    3  A    between atoms: C_5  and  C_12
REMARK    4  A    between atoms: C_7  and  O_10
REMARK    5  A    between atoms: C_8  and  O_9
REMARK    6  A    between atoms: O_10  and  C_11
REMARK    7  A    between atoms: C_13  and  C_14
REMARK    8  A    between atoms: C_14  and  O_16
REMARK    9  A    between atoms: O_16  and  C_17
REMARK   10  A    between atoms: C_17  and  C_18
REMARK   11  A    between atoms: C_19  and  O_70
REMARK   12  A    between atoms: C_20  and  O_69
REMARK   13  A    between atoms: C_21  and  O_68
REMARK   14  A    between atoms: C_22  and  O_24
REMARK   15  A    between atoms: O_24  and  C_25
REMARK   16  A    between atoms: C_26  and  O_67
REMARK   17  A    between atoms: C_27  and  O_66
REMARK   18  A    between atoms: C_28  and  C_64
REMARK   19  A    between atoms: C_30  and  O_31
REMARK   20  A    between atoms: O_31  and  C_32
REMARK   21  A    between atoms: C_33  and  O_63
REMARK   22  A    between atoms: C_34  and  O_62
REMARK   23  A    between atoms: C_35  and  C_60
REMARK   24  A    between atoms: C_37  and  O_38
REMARK   25  A    between atoms: O_38  and  C_39
REMARK   26  A    between atoms: C_40  and  C_52
REMARK   27  A    between atoms: C_44  and  O_51
REMARK   28  A    between atoms: C_46  and  O_50
REMARK   29  A    between atoms: C_54  and  O_59
REMARK   30  A    between atoms: C_55  and  O_58
REMARK   31  A    between atoms: C_60  and  O_61
REMARK   32  A    between atoms: C_64  and  O_65
REMARK                            x       y       z     vdW  Elec       q    Type
REMARK                         _______ _______ _______ _____ _____    ______ ____
ROOT
ATOM      1  C   UNL     1       7.448   0.894  22.923  0.00  0.00    +0.208 C 
ATOM      2  C   UNL     1       7.243   0.962  24.499  0.00  0.00    +0.283 C 
ATOM      3  O   UNL     1       8.122   1.845  25.192  0.00  0.00    -0.341 OA
ATOM      4  C   UNL     1       9.500   1.852  24.814  0.00  0.00    +0.178 C 
ATOM      5  C   UNL     1       9.590   2.306  23.372  0.00  0.00    +0.177 C 
ATOM      6  C   UNL     1       8.844   1.353  22.450  0.00  0.00    +0.179 C 
ENDROOT
BRANCH   5   7
ATOM      7  O   UNL     1      10.949   2.385  22.928  0.00  0.00    -0.386 OA
ATOM      8  H   UNL     1      11.056   1.689  22.247  0.00  0.00    +0.210 HD
ENDBRANCH   5   7
BRANCH   6   9
ATOM      9  O   UNL     1       8.861   1.996  21.163  0.00  0.00    -0.386 OA
ATOM     10  H   UNL     1       7.950   1.922  20.807  0.00  0.00    +0.210 HD
ENDBRANCH   6   9
BRANCH   2  11
ATOM     11  O   UNL     1       7.291  -0.380  25.041  0.00  0.00    -0.337 OA
BRANCH  11  12
ATOM     12  C   UNL     1       6.055  -1.140  25.017  0.00  0.00    +0.221 C 
ATOM     13  C   UNL     1       5.944  -2.062  26.286  0.00  0.00    +0.340 C 
ATOM     14  O   UNL     1       6.915  -3.122  26.230  0.00  0.00    -0.331 OA
ATOM     15  C   UNL     1       6.939  -3.964  25.077  0.00  0.00    +0.179 C 
ATOM     16  C   UNL     1       6.977  -3.147  23.775  0.00  0.00    +0.177 C 
ATOM     17  C   UNL     1       5.897  -2.066  23.796  0.00  0.00    +0.180 C 
BRANCH  17  18
ATOM     18  O   UNL     1       5.865  -1.375  22.543  0.00  0.00    -0.386 OA
ATOM     19  H   UNL     1       6.616  -1.689  22.004  0.00  0.00    +0.210 HD
ENDBRANCH  17  18
BRANCH  16  20
ATOM     20  O   UNL     1       6.796  -3.983  22.619  0.00  0.00    -0.386 OA
ATOM     21  H   UNL     1       7.677  -4.081  22.202  0.00  0.00    +0.210 HD
ENDBRANCH  16  20
BRANCH  15  22
ATOM     22  C   UNL     1       5.844  -5.053  25.104  0.00  0.00    +0.190 C 
BRANCH  22  23
ATOM     23  O   UNL     1       6.359  -6.336  25.464  0.00  0.00    -0.392 OA
ATOM     24  H   UNL     1       5.796  -6.674  26.193  0.00  0.00    +0.210 HD
ENDBRANCH  22  23
ENDBRANCH  15  22
BRANCH  13  25
ATOM     25  O   UNL     1       4.584  -2.523  26.319  0.00  0.00    -0.453 OA
BRANCH  25  26
ATOM     26  C   UNL     1       4.018  -3.136  27.415  0.00  0.00    +0.214 A 
ATOM     27  C   UNL     1       4.427  -4.519  27.806  0.00  0.00    +0.238 A 
ATOM     28  O   UNL     1       5.563  -4.934  27.628  0.00  0.00    -0.283 OA
ATOM     29  C   UNL     1       3.397  -5.329  28.479  0.00  0.00    +0.109 A 
ATOM     30  C   UNL     1       2.379  -4.633  29.126  0.00  0.00    +0.147 A 
ATOM     31  C   UNL     1       1.381  -5.321  29.820  0.00  0.00    +0.092 A 
ATOM     32  C   UNL     1       1.403  -6.713  29.838  0.00  0.00    +0.124 A 
ATOM     33  C   UNL     1       2.406  -7.423  29.185  0.00  0.00    +0.091 A 
ATOM     34  O   UNL     1       2.311  -3.262  29.123  0.00  0.00    -0.451 OA
ATOM     35  C   UNL     1       3.405  -6.729  28.504  0.00  0.00    +0.135 A 
ATOM     36  C   UNL     1       3.005  -2.573  28.126  0.00  0.00    +0.181 A 
BRANCH  36  37
ATOM     37  C   UNL     1       2.558  -1.141  28.005  0.00  0.00    +0.025 A 
ATOM     38  C   UNL     1       2.855  -0.183  28.990  0.00  0.00    +0.015 A 
ATOM     39  C   UNL     1       2.241   1.074  29.021  0.00  0.00    +0.050 A 
ATOM     40  C   UNL     1       1.390   1.432  27.997  0.00  0.00    +0.158 A 
ATOM     41  C   UNL     1       1.215   0.582  26.915  0.00  0.00    +0.159 A 
ATOM     42  C   UNL     1       1.769  -0.704  26.915  0.00  0.00    +0.060 A 
BRANCH  41  43
ATOM     43  O   UNL     1       0.484   1.055  25.859  0.00  0.00    -0.503 OA
ATOM     44  H   UNL     1       0.720   0.504  25.090  0.00  0.00    +0.292 HD
ENDBRANCH  41  43
BRANCH  40  45
ATOM     45  O   UNL     1       0.750   2.634  28.055  0.00  0.00    -0.503 OA
ATOM     46  H   UNL     1       0.185   2.660  27.257  0.00  0.00    +0.292 HD
ENDBRANCH  40  45
ENDBRANCH  36  37
BRANCH  35  47
ATOM     47  O   UNL     1       4.361  -7.432  27.831  0.00  0.00    -0.506 OA
ATOM     48  H   UNL     1       3.965  -8.207  27.400  0.00  0.00    +0.292 HD
ENDBRANCH  35  47
BRANCH  32  49
ATOM     49  O   UNL     1       0.444  -7.435  30.484  0.00  0.00    -0.507 OA
ATOM     50  H   UNL     1      -0.287  -7.618  29.870  0.00  0.00    +0.292 HD
ENDBRANCH  32  49
ENDBRANCH  25  26
ENDBRANCH  13  25
ENDBRANCH  11  12
ENDBRANCH   2  11
BRANCH   1  51
ATOM     51  O   UNL     1       6.384   1.513  22.140  0.00  0.00    -0.338 OA
BRANCH  51  54
ATOM     52  C   UNL     1       3.764   4.091  22.588  0.00  0.00    +0.190 C 
ATOM     53  O   UNL     1       4.548   3.001  22.034  0.00  0.00    -0.339 OA
ATOM     54  C   UNL     1       5.725   2.646  22.784  0.00  0.00    +0.282 C 
ATOM     55  C   UNL     1       6.639   3.878  22.933  0.00  0.00    +0.201 C 
ATOM     56  C   UNL     1       5.870   5.021  23.591  0.00  0.00    +0.179 C 
ATOM     57  C   UNL     1       4.622   5.355  22.769  0.00  0.00    +0.178 C 
BRANCH  55  58
ATOM     58  O   UNL     1       7.143   4.317  21.658  0.00  0.00    -0.384 OA
ATOM     59  H   UNL     1       7.106   3.548  21.053  0.00  0.00    +0.210 HD
ENDBRANCH  55  58
BRANCH  56  60
ATOM     60  O   UNL     1       6.721   6.162  23.713  0.00  0.00    -0.386 OA
ATOM     61  H   UNL     1       6.833   6.517  22.807  0.00  0.00    +0.210 HD
ENDBRANCH  56  60
BRANCH  57  62
ATOM     62  O   UNL     1       3.856   6.414  23.344  0.00  0.00    -0.386 OA
ATOM     63  H   UNL     1       4.078   6.497  24.288  0.00  0.00    +0.210 HD
ENDBRANCH  57  62
BRANCH  52  64
ATOM     64  C   UNL     1       2.994   3.728  23.883  0.00  0.00    +0.266 C 
BRANCH  64  65
ATOM     65  O   UNL     1       2.244   4.846  24.377  0.00  0.00    -0.459 OA
BRANCH  65  66
ATOM     66  C   UNL     1       1.869   4.733  25.675  0.00  0.00    +0.332 C 
ATOM     67  O   UNL     1       0.748   4.504  26.095  0.00  0.00    -0.246 OA
BRANCH  66  69
ATOM     68  C   UNL     1       3.741   3.864  26.948  0.00  0.00    +0.015 C 
ATOM     69  C   UNL     1       3.067   4.933  26.507  0.00  0.00    +0.092 C 
BRANCH  68  74
ATOM     70  C   UNL     1       6.573   2.753  29.129  0.00  0.00    +0.166 A 
ATOM     71  C   UNL     1       7.101   3.977  29.592  0.00  0.00    +0.201 A 
ATOM     72  C   UNL     1       6.542   5.191  29.169  0.00  0.00    +0.166 A 
ATOM     73  C   UNL     1       5.438   5.152  28.300  0.00  0.00    +0.057 A 
ATOM     74  C   UNL     1       4.897   3.946  27.845  0.00  0.00    -0.018 A 
ATOM     75  C   UNL     1       5.494   2.752  28.241  0.00  0.00    +0.057 A 
BRANCH  70  77
ATOM     76  C   UNL     1       7.443   0.631  28.525  0.00  0.00    +0.277 C 
ATOM     77  O   UNL     1       7.192   1.597  29.543  0.00  0.00    -0.491 OA
ENDBRANCH  70  77
BRANCH  72  78
ATOM     78  O   UNL     1       6.873   6.480  29.477  0.00  0.00    -0.491 OA
ATOM     79  C   UNL     1       8.018   7.107  28.936  0.00  0.00    +0.277 C 
ENDBRANCH  72  78
BRANCH  71  80
ATOM     80  O   UNL     1       8.136   3.885  30.485  0.00  0.00    -0.501 OA
ATOM     81  H   UNL     1       8.192   2.975  30.802  0.00  0.00    +0.292 HD
ENDBRANCH  71  80
ENDBRANCH  68  74
ENDBRANCH  66  69
ENDBRANCH  65  66
ENDBRANCH  64  65
ENDBRANCH  52  64
ENDBRANCH  51  54
ENDBRANCH   1  51
BRANCH   4  82
ATOM     82  C   UNL     1      10.277   0.545  25.071  0.00  0.00    +0.190 C 
BRANCH  82  83
ATOM     83  O   UNL     1       9.889  -0.078  26.292  0.00  0.00    -0.392 OA
ATOM     84  H   UNL     1       9.634   0.624  26.919  0.00  0.00    +0.210 HD
ENDBRANCH  82  83
ENDBRANCH   4  82
TORSDOF 30
ENDMDL
MODEL 5
REMARK VINA RESULT:      -4.1      2.547      6.216
REMARK  Name = 
REMARK  32 active torsions:
REMARK  status: ('A' for Active; 'I' for Inactive)
REMARK    1  A    between atoms: C_1  and  O_2
REMARK    2  A    between atoms: O_2  and  C_3
REMARK    3  A    between atoms: C_5  and  C_12
REMARK    4  A    between atoms: C_7  and  O_10
REMARK    5  A    between atoms: C_8  and  O_9
REMARK    6  A    between atoms: O_10  and  C_11
REMARK    7  A    between atoms: C_13  and  C_14
REMARK    8  A    between atoms: C_14  and  O_16
REMARK    9  A    between atoms: O_16  and  C_17
REMARK   10  A    between atoms: C_17  and  C_18
REMARK   11  A    between atoms: C_19  and  O_70
REMARK   12  A    between atoms: C_20  and  O_69
REMARK   13  A    between atoms: C_21  and  O_68
REMARK   14  A    between atoms: C_22  and  O_24
REMARK   15  A    between atoms: O_24  and  C_25
REMARK   16  A    between atoms: C_26  and  O_67
REMARK   17  A    between atoms: C_27  and  O_66
REMARK   18  A    between atoms: C_28  and  C_64
REMARK   19  A    between atoms: C_30  and  O_31
REMARK   20  A    between atoms: O_31  and  C_32
REMARK   21  A    between atoms: C_33  and  O_63
REMARK   22  A    between atoms: C_34  and  O_62
REMARK   23  A    between atoms: C_35  and  C_60
REMARK   24  A    between atoms: C_37  and  O_38
REMARK   25  A    between atoms: O_38  and  C_39
REMARK   26  A    between atoms: C_40  and  C_52
REMARK   27  A    between atoms: C_44  and  O_51
REMARK   28  A    between atoms: C_46  and  O_50
REMARK   29  A    between atoms: C_54  and  O_59
REMARK   30  A    between atoms: C_55  and  O_58
REMARK   31  A    between atoms: C_60  and  O_61
REMARK   32  A    between atoms: C_64  and  O_65
REMARK                            x       y       z     vdW  Elec       q    Type
REMARK                         _______ _______ _______ _____ _____    ______ ____
ROOT
ATOM      1  C   UNL     1       9.036   1.749  24.158  0.00  0.00    +0.208 C 
ATOM      2  C   UNL     1       7.516   1.897  24.603  0.00  0.00    +0.283 C 
ATOM      3  O   UNL     1       6.870   3.097  24.183  0.00  0.00    -0.341 OA
ATOM      4  C   UNL     1       7.599   4.321  24.287  0.00  0.00    +0.178 C 
ATOM      5  C   UNL     1       8.812   4.226  23.388  0.00  0.00    +0.177 C 
ATOM      6  C   UNL     1       9.724   3.087  23.816  0.00  0.00    +0.179 C 
ENDROOT
BRANCH   5   7
ATOM      7  O   UNL     1       9.574   5.438  23.399  0.00  0.00    -0.386 OA
ATOM      8  H   UNL     1      10.516   5.170  23.387  0.00  0.00    +0.210 HD
ENDBRANCH   5   7
BRANCH   6   9
ATOM      9  O   UNL     1      10.721   3.003  22.782  0.00  0.00    -0.386 OA
ATOM     10  H   UNL     1      11.591   3.026  23.235  0.00  0.00    +0.210 HD
ENDBRANCH   6   9
BRANCH   2  11
ATOM     11  O   UNL     1       7.422   1.709  26.037  0.00  0.00    -0.337 OA
BRANCH  11  12
ATOM     12  C   UNL     1       6.106   1.423  26.575  0.00  0.00    +0.221 C 
ATOM     13  C   UNL     1       6.217   0.726  27.979  0.00  0.00    +0.340 C 
ATOM     14  O   UNL     1       6.750  -0.604  27.845  0.00  0.00    -0.331 OA
ATOM     15  C   UNL     1       6.099  -1.511  26.955  0.00  0.00    +0.179 C 
ATOM     16  C   UNL     1       5.880  -0.890  25.566  0.00  0.00    +0.177 C 
ATOM     17  C   UNL     1       5.245   0.493  25.699  0.00  0.00    +0.180 C 
BRANCH  17  18
ATOM     18  O   UNL     1       4.947   1.027  24.404  0.00  0.00    -0.386 OA
ATOM     19  H   UNL     1       5.738   0.920  23.843  0.00  0.00    +0.210 HD
ENDBRANCH  17  18
BRANCH  16  20
ATOM     20  O   UNL     1       5.049  -1.721  24.738  0.00  0.00    -0.386 OA
ATOM     21  H   UNL     1       4.301  -2.018  25.296  0.00  0.00    +0.210 HD
ENDBRANCH  16  20
BRANCH  15  22
ATOM     22  C   UNL     1       4.831  -2.148  27.565  0.00  0.00    +0.190 C 
BRANCH  22  23
ATOM     23  O   UNL     1       4.870  -2.184  28.993  0.00  0.00    -0.392 OA
ATOM     24  H   UNL     1       4.577  -1.302  29.308  0.00  0.00    +0.210 HD
ENDBRANCH  22  23
ENDBRANCH  15  22
BRANCH  13  25
ATOM     25  O   UNL     1       4.898   0.767  28.545  0.00  0.00    -0.453 OA
BRANCH  25  26
ATOM     26  C   UNL     1       4.063   1.859  28.443  0.00  0.00    +0.214 A 
ATOM     27  C   UNL     1       4.619   3.245  28.480  0.00  0.00    +0.238 A 
ATOM     28  O   UNL     1       5.725   3.513  28.030  0.00  0.00    -0.283 OA
ATOM     29  C   UNL     1       3.729   4.281  29.030  0.00  0.00    +0.109 A 
ATOM     30  C   UNL     1       2.362   4.019  28.986  0.00  0.00    +0.147 A 
ATOM     31  C   UNL     1       1.444   4.962  29.454  0.00  0.00    +0.092 A 
ATOM     32  C   UNL     1       1.913   6.159  29.986  0.00  0.00    +0.124 A 
ATOM     33  C   UNL     1       3.277   6.431  30.051  0.00  0.00    +0.091 A 
ATOM     34  O   UNL     1       1.857   2.846  28.481  0.00  0.00    -0.451 OA
ATOM     35  C   UNL     1       4.187   5.489  29.571  0.00  0.00    +0.135 A 
ATOM     36  C   UNL     1       2.709   1.743  28.406  0.00  0.00    +0.181 A 
BRANCH  36  37
ATOM     37  C   UNL     1       1.958   0.455  28.198  0.00  0.00    +0.025 A 
ATOM     38  C   UNL     1       1.331  -0.222  29.258  0.00  0.00    +0.015 A 
ATOM     39  C   UNL     1       0.853  -1.530  29.132  0.00  0.00    +0.050 A 
ATOM     40  C   UNL     1       0.901  -2.148  27.901  0.00  0.00    +0.158 A 
ATOM     41  C   UNL     1       1.346  -1.445  26.792  0.00  0.00    +0.159 A 
ATOM     42  C   UNL     1       1.893  -0.163  26.926  0.00  0.00    +0.060 A 
BRANCH  41  43
ATOM     43  O   UNL     1       1.227  -2.056  25.573  0.00  0.00    -0.503 OA
ATOM     44  H   UNL     1       0.302  -1.931  25.290  0.00  0.00    +0.292 HD
ENDBRANCH  41  43
BRANCH  40  45
ATOM     45  O   UNL     1       0.486  -3.442  27.790  0.00  0.00    -0.503 OA
ATOM     46  H   UNL     1       0.688  -3.696  26.868  0.00  0.00    +0.292 HD
ENDBRANCH  40  45
ENDBRANCH  36  37
BRANCH  35  47
ATOM     47  O   UNL     1       5.522   5.744  29.676  0.00  0.00    -0.506 OA
ATOM     48  H   UNL     1       5.958   5.044  30.188  0.00  0.00    +0.292 HD
ENDBRANCH  35  47
BRANCH  32  49
ATOM     49  O   UNL     1       1.063   7.107  30.474  0.00  0.00    -0.507 OA
ATOM     50  H   UNL     1       0.196   6.703  30.643  0.00  0.00    +0.292 HD
ENDBRANCH  32  49
ENDBRANCH  25  26
ENDBRANCH  13  25
ENDBRANCH  11  12
ENDBRANCH   2  11
BRANCH   1  51
ATOM     51  O   UNL     1       9.276   0.741  23.131  0.00  0.00    -0.338 OA
BRANCH  51  54
ATOM     52  C   UNL     1       9.375  -2.757  24.341  0.00  0.00    +0.190 C 
ATOM     53  O   UNL     1       9.783  -1.417  23.958  0.00  0.00    -0.339 OA
ATOM     54  C   UNL     1       8.736  -0.583  23.427  0.00  0.00    +0.282 C 
ATOM     55  C   UNL     1       8.094  -1.267  22.203  0.00  0.00    +0.201 C 
ATOM     56  C   UNL     1       7.577  -2.649  22.592  0.00  0.00    +0.179 C 
ATOM     57  C   UNL     1       8.719  -3.496  23.163  0.00  0.00    +0.178 C 
BRANCH  55  58
ATOM     58  O   UNL     1       9.034  -1.398  21.121  0.00  0.00    -0.384 OA
ATOM     59  H   UNL     1       9.519  -0.551  21.057  0.00  0.00    +0.210 HD
ENDBRANCH  55  58
BRANCH  56  60
ATOM     60  O   UNL     1       6.996  -3.281  21.450  0.00  0.00    -0.386 OA
ATOM     61  H   UNL     1       7.742  -3.645  20.930  0.00  0.00    +0.210 HD
ENDBRANCH  56  60
BRANCH  57  62
ATOM     62  O   UNL     1       8.290  -4.800  23.553  0.00  0.00    -0.386 OA
ATOM     63  H   UNL     1       7.871  -4.753  24.430  0.00  0.00    +0.210 HD
ENDBRANCH  57  62
BRANCH  52  64
ATOM     64  C   UNL     1       8.497  -2.815  25.618  0.00  0.00    +0.266 C 
BRANCH  64  65
ATOM     65  O   UNL     1       9.077  -3.667  26.613  0.00  0.00    -0.459 OA
BRANCH  65  66
ATOM     66  C   UNL     1       8.802  -4.985  26.444  0.00  0.00    +0.332 C 
ATOM     67  O   UNL     1       9.495  -5.810  25.876  0.00  0.00    -0.246 OA
BRANCH  66  69
ATOM     68  C   UNL     1       6.517  -5.789  26.348  0.00  0.00    +0.015 C 
ATOM     69  C   UNL     1       7.503  -5.256  27.080  0.00  0.00    +0.092 C 
BRANCH  68  74
ATOM     70  C   UNL     1       3.684  -6.076  28.778  0.00  0.00    +0.166 A 
ATOM     71  C   UNL     1       2.614  -6.482  27.953  0.00  0.00    +0.201 A 
ATOM     72  C   UNL     1       2.807  -6.643  26.575  0.00  0.00    +0.166 A 
ATOM     73  C   UNL     1       4.091  -6.415  26.049  0.00  0.00    +0.057 A 
ATOM     74  C   UNL     1       5.164  -6.026  26.857  0.00  0.00    -0.018 A 
ATOM     75  C   UNL     1       4.940  -5.829  28.217  0.00  0.00    +0.057 A 
BRANCH  70  77
ATOM     76  C   UNL     1       2.811  -4.651  30.460  0.00  0.00    +0.277 C 
ATOM     77  O   UNL     1       3.422  -5.892  30.115  0.00  0.00    -0.491 OA
ENDBRANCH  70  77
BRANCH  72  78
ATOM     78  O   UNL     1       1.939  -7.023  25.590  0.00  0.00    -0.491 OA
ATOM     79  C   UNL     1       2.324  -7.903  24.554  0.00  0.00    +0.277 C 
ENDBRANCH  72  78
BRANCH  71  80
ATOM     80  O   UNL     1       1.427  -6.736  28.591  0.00  0.00    -0.501 OA
ATOM     81  H   UNL     1       0.889  -5.935  28.576  0.00  0.00    +0.292 HD
ENDBRANCH  71  80
ENDBRANCH  68  74
ENDBRANCH  66  69
ENDBRANCH  65  66
ENDBRANCH  64  65
ENDBRANCH  52  64
ENDBRANCH  51  54
ENDBRANCH   1  51
BRANCH   4  82
ATOM     82  C   UNL     1       7.959   4.772  25.718  0.00  0.00    +0.190 C 
BRANCH  82  83
ATOM     83  O   UNL     1       6.852   5.372  26.385  0.00  0.00    -0.392 OA
ATOM     84  H   UNL     1       6.936   6.339  26.297  0.00  0.00    +0.210 HD
ENDBRANCH  82  83
ENDBRANCH   4  82
TORSDOF 30
ENDMDL
MODEL 6
REMARK VINA RESULT:      -3.4      2.742      8.134
REMARK  Name = 
REMARK  32 active torsions:
REMARK  status: ('A' for Active; 'I' for Inactive)
REMARK    1  A    between atoms: C_1  and  O_2
REMARK    2  A    between atoms: O_2  and  C_3
REMARK    3  A    between atoms: C_5  and  C_12
REMARK    4  A    between atoms: C_7  and  O_10
REMARK    5  A    between atoms: C_8  and  O_9
REMARK    6  A    between atoms: O_10  and  C_11
REMARK    7  A    between atoms: C_13  and  C_14
REMARK    8  A    between atoms: C_14  and  O_16
REMARK    9  A    between atoms: O_16  and  C_17
REMARK   10  A    between atoms: C_17  and  C_18
REMARK   11  A    between atoms: C_19  and  O_70
REMARK   12  A    between atoms: C_20  and  O_69
REMARK   13  A    between atoms: C_21  and  O_68
REMARK   14  A    between atoms: C_22  and  O_24
REMARK   15  A    between atoms: O_24  and  C_25
REMARK   16  A    between atoms: C_26  and  O_67
REMARK   17  A    between atoms: C_27  and  O_66
REMARK   18  A    between atoms: C_28  and  C_64
REMARK   19  A    between atoms: C_30  and  O_31
REMARK   20  A    between atoms: O_31  and  C_32
REMARK   21  A    between atoms: C_33  and  O_63
REMARK   22  A    between atoms: C_34  and  O_62
REMARK   23  A    between atoms: C_35  and  C_60
REMARK   24  A    between atoms: C_37  and  O_38
REMARK   25  A    between atoms: O_38  and  C_39
REMARK   26  A    between atoms: C_40  and  C_52
REMARK   27  A    between atoms: C_44  and  O_51
REMARK   28  A    between atoms: C_46  and  O_50
REMARK   29  A    between atoms: C_54  and  O_59
REMARK   30  A    between atoms: C_55  and  O_58
REMARK   31  A    between atoms: C_60  and  O_61
REMARK   32  A    between atoms: C_64  and  O_65
REMARK                            x       y       z     vdW  Elec       q    Type
REMARK                         _______ _______ _______ _____ _____    ______ ____
ROOT
ATOM      1  C   UNL     1       5.253  -5.696  24.320  0.00  0.00    +0.208 C 
ATOM      2  C   UNL     1       4.401  -4.370  24.103  0.00  0.00    +0.283 C 
ATOM      3  O   UNL     1       4.198  -3.990  22.744  0.00  0.00    -0.341 OA
ATOM      4  C   UNL     1       5.307  -4.087  21.849  0.00  0.00    +0.178 C 
ATOM      5  C   UNL     1       5.718  -5.541  21.763  0.00  0.00    +0.177 C 
ATOM      6  C   UNL     1       6.150  -6.070  23.122  0.00  0.00    +0.179 C 
ENDROOT
BRANCH   5   7
ATOM      7  O   UNL     1       6.799  -5.730  20.844  0.00  0.00    -0.386 OA
ATOM      8  H   UNL     1       7.345  -6.458  21.209  0.00  0.00    +0.210 HD
ENDBRANCH   5   7
BRANCH   6   9
ATOM      9  O   UNL     1       6.334  -7.483  22.927  0.00  0.00    -0.386 OA
ATOM     10  H   UNL     1       7.251  -7.684  23.209  0.00  0.00    +0.210 HD
ENDBRANCH   6   9
BRANCH   2  11
ATOM     11  O   UNL     1       4.988  -3.298  24.881  0.00  0.00    -0.337 OA
BRANCH  11  12
ATOM     12  C   UNL     1       4.141  -2.154  25.162  0.00  0.00    +0.221 C 
ATOM     13  C   UNL     1       4.775  -1.254  26.285  0.00  0.00    +0.340 C 
ATOM     14  O   UNL     1       4.748  -1.931  27.554  0.00  0.00    -0.331 OA
ATOM     15  C   UNL     1       3.497  -2.420  28.038  0.00  0.00    +0.179 C 
ATOM     16  C   UNL     1       2.763  -3.259  26.979  0.00  0.00    +0.177 C 
ATOM     17  C   UNL     1       2.723  -2.513  25.647  0.00  0.00    +0.180 C 
BRANCH  17  18
ATOM     18  O   UNL     1       1.951  -3.248  24.691  0.00  0.00    -0.386 OA
ATOM     19  H   UNL     1       2.508  -3.970  24.344  0.00  0.00    +0.210 HD
ENDBRANCH  17  18
BRANCH  16  20
ATOM     20  O   UNL     1       1.423  -3.579  27.391  0.00  0.00    -0.386 OA
ATOM     21  H   UNL     1       0.866  -2.806  27.161  0.00  0.00    +0.210 HD
ENDBRANCH  16  20
BRANCH  15  22
ATOM     22  C   UNL     1       2.626  -1.317  28.679  0.00  0.00    +0.190 C 
BRANCH  22  23
ATOM     23  O   UNL     1       2.324  -1.586  30.049  0.00  0.00    -0.392 OA
ATOM     24  H   UNL     1       2.963  -2.264  30.354  0.00  0.00    +0.210 HD
ENDBRANCH  22  23
ENDBRANCH  15  22
BRANCH  13  25
ATOM     25  O   UNL     1       4.034  -0.025  26.268  0.00  0.00    -0.453 OA
BRANCH  25  26
ATOM     26  C   UNL     1       4.501   1.149  26.818  0.00  0.00    +0.214 A 
ATOM     27  C   UNL     1       4.207   1.489  28.244  0.00  0.00    +0.238 A 
ATOM     28  O   UNL     1       4.101   0.629  29.107  0.00  0.00    -0.283 OA
ATOM     29  C   UNL     1       4.119   2.925  28.558  0.00  0.00    +0.109 A 
ATOM     30  C   UNL     1       4.784   3.795  27.698  0.00  0.00    +0.147 A 
ATOM     31  C   UNL     1       4.782   5.170  27.942  0.00  0.00    +0.092 A 
ATOM     32  C   UNL     1       4.089   5.664  29.043  0.00  0.00    +0.124 A 
ATOM     33  C   UNL     1       3.407   4.809  29.904  0.00  0.00    +0.091 A 
ATOM     34  O   UNL     1       5.470   3.353  26.594  0.00  0.00    -0.451 OA
ATOM     35  C   UNL     1       3.423   3.436  29.660  0.00  0.00    +0.135 A 
ATOM     36  C   UNL     1       5.152   2.092  26.086  0.00  0.00    +0.181 A 
BRANCH  36  37
ATOM     37  C   UNL     1       5.687   1.886  24.694  0.00  0.00    +0.025 A 
ATOM     38  C   UNL     1       6.345   0.703  24.317  0.00  0.00    +0.015 A 
ATOM     39  C   UNL     1       7.063   0.595  23.121  0.00  0.00    +0.050 A 
ATOM     40  C   UNL     1       7.046   1.645  22.228  0.00  0.00    +0.158 A 
ATOM     41  C   UNL     1       6.258   2.758  22.486  0.00  0.00    +0.159 A 
ATOM     42  C   UNL     1       5.597   2.901  23.712  0.00  0.00    +0.060 A 
BRANCH  41  43
ATOM     43  O   UNL     1       6.159   3.698  21.497  0.00  0.00    -0.503 OA
ATOM     44  H   UNL     1       7.066   3.869  21.185  0.00  0.00    +0.292 HD
ENDBRANCH  41  43
BRANCH  40  45
ATOM     45  O   UNL     1       7.789   1.562  21.089  0.00  0.00    -0.503 OA
ATOM     46  H   UNL     1       7.750   2.456  20.693  0.00  0.00    +0.292 HD
ENDBRANCH  40  45
ENDBRANCH  36  37
BRANCH  35  47
ATOM     47  O   UNL     1       2.719   2.608  30.485  0.00  0.00    -0.506 OA
ATOM     48  H   UNL     1       1.914   2.297  30.039  0.00  0.00    +0.292 HD
ENDBRANCH  35  47
BRANCH  32  49
ATOM     49  O   UNL     1       4.038   6.998  29.318  0.00  0.00    -0.507 OA
ATOM     50  H   UNL     1       3.113   7.294  29.301  0.00  0.00    +0.292 HD
ENDBRANCH  32  49
ENDBRANCH  25  26
ENDBRANCH  13  25
ENDBRANCH  11  12
ENDBRANCH   2  11
BRANCH   1  51
ATOM     51  O   UNL     1       4.488  -6.842  24.800  0.00  0.00    -0.338 OA
BRANCH  51  54
ATOM     52  C   UNL     1       4.194  -7.492  28.433  0.00  0.00    +0.190 C 
ATOM     53  O   UNL     1       4.621  -7.569  27.047  0.00  0.00    -0.339 OA
ATOM     54  C   UNL     1       3.927  -6.693  26.139  0.00  0.00    +0.282 C 
ATOM     55  C   UNL     1       2.412  -6.972  26.200  0.00  0.00    +0.201 C 
ATOM     56  C   UNL     1       1.911  -6.817  27.634  0.00  0.00    +0.179 C 
ATOM     57  C   UNL     1       2.684  -7.756  28.564  0.00  0.00    +0.178 C 
BRANCH  55  58
ATOM     58  O   UNL     1       2.102  -8.297  25.730  0.00  0.00    -0.384 OA
ATOM     59  H   UNL     1       1.130  -8.346  25.626  0.00  0.00    +0.210 HD
ENDBRANCH  55  58
BRANCH  56  60
ATOM     60  O   UNL     1       0.510  -7.090  27.683  0.00  0.00    -0.386 OA
ATOM     61  H   UNL     1       0.262  -7.411  26.790  0.00  0.00    +0.210 HD
ENDBRANCH  56  60
BRANCH  57  62
ATOM     62  O   UNL     1       2.263  -7.646  29.924  0.00  0.00    -0.386 OA
ATOM     63  H   UNL     1       2.490  -6.763  30.262  0.00  0.00    +0.210 HD
ENDBRANCH  57  62
BRANCH  52  64
ATOM     64  C   UNL     1       4.615  -6.187  29.158  0.00  0.00    +0.266 C 
BRANCH  64  65
ATOM     65  O   UNL     1       5.190  -5.244  28.245  0.00  0.00    -0.459 OA
BRANCH  65  66
ATOM     66  C   UNL     1       6.525  -5.394  28.060  0.00  0.00    +0.332 C 
ATOM     67  O   UNL     1       7.193  -6.381  28.313  0.00  0.00    -0.246 OA
BRANCH  66  69
ATOM     68  C   UNL     1       7.855  -4.193  26.426  0.00  0.00    +0.015 C 
ATOM     69  C   UNL     1       7.041  -4.140  27.488  0.00  0.00    +0.092 C 
BRANCH  68  74
ATOM     70  C   UNL     1       9.814  -2.113  24.009  0.00  0.00    +0.166 A 
ATOM     71  C   UNL     1       9.769  -0.833  24.600  0.00  0.00    +0.201 A 
ATOM     72  C   UNL     1       9.068  -0.633  25.797  0.00  0.00    +0.166 A 
ATOM     73  C   UNL     1       8.440  -1.739  26.396  0.00  0.00    +0.057 A 
ATOM     74  C   UNL     1       8.488  -3.015  25.828  0.00  0.00    -0.018 A 
ATOM     75  C   UNL     1       9.152  -3.184  24.615  0.00  0.00    +0.057 A 
BRANCH  70  77
ATOM     76  C   UNL     1       9.929  -1.505  21.719  0.00  0.00    +0.277 C 
ATOM     77  O   UNL     1      10.480  -2.237  22.812  0.00  0.00    -0.491 OA
ENDBRANCH  70  77
BRANCH  72  78
ATOM     78  O   UNL     1       8.887   0.494  26.548  0.00  0.00    -0.491 OA
ATOM     79  C   UNL     1       8.026   0.515  27.667  0.00  0.00    +0.277 C 
ENDBRANCH  72  78
BRANCH  71  80
ATOM     80  O   UNL     1      10.473   0.151  23.956  0.00  0.00    -0.501 OA
ATOM     81  H   UNL     1      10.560  -0.087  23.026  0.00  0.00    +0.292 HD
ENDBRANCH  71  80
ENDBRANCH  68  74
ENDBRANCH  66  69
ENDBRANCH  65  66
ENDBRANCH  64  65
ENDBRANCH  52  64
ENDBRANCH  51  54
ENDBRANCH   1  51
BRANCH   4  82
ATOM     82  C   UNL     1       6.499  -3.154  22.147  0.00  0.00    +0.190 C 
BRANCH  82  83
ATOM     83  O   UNL     1       6.075  -1.840  22.500  0.00  0.00    -0.392 OA
ATOM     84  H   UNL     1       5.959  -1.331  21.677  0.00  0.00    +0.210 HD
ENDBRANCH  82  83
ENDBRANCH   4  82
TORSDOF 30
ENDMDL
MODEL 7
REMARK VINA RESULT:      -3.4      1.645      2.588
REMARK  Name = 
REMARK  32 active torsions:
REMARK  status: ('A' for Active; 'I' for Inactive)
REMARK    1  A    between atoms: C_1  and  O_2
REMARK    2  A    between atoms: O_2  and  C_3
REMARK    3  A    between atoms: C_5  and  C_12
REMARK    4  A    between atoms: C_7  and  O_10
REMARK    5  A    between atoms: C_8  and  O_9
REMARK    6  A    between atoms: O_10  and  C_11
REMARK    7  A    between atoms: C_13  and  C_14
REMARK    8  A    between atoms: C_14  and  O_16
REMARK    9  A    between atoms: O_16  and  C_17
REMARK   10  A    between atoms: C_17  and  C_18
REMARK   11  A    between atoms: C_19  and  O_70
REMARK   12  A    between atoms: C_20  and  O_69
REMARK   13  A    between atoms: C_21  and  O_68
REMARK   14  A    between atoms: C_22  and  O_24
REMARK   15  A    between atoms: O_24  and  C_25
REMARK   16  A    between atoms: C_26  and  O_67
REMARK   17  A    between atoms: C_27  and  O_66
REMARK   18  A    between atoms: C_28  and  C_64
REMARK   19  A    between atoms: C_30  and  O_31
REMARK   20  A    between atoms: O_31  and  C_32
REMARK   21  A    between atoms: C_33  and  O_63
REMARK   22  A    between atoms: C_34  and  O_62
REMARK   23  A    between atoms: C_35  and  C_60
REMARK   24  A    between atoms: C_37  and  O_38
REMARK   25  A    between atoms: O_38  and  C_39
REMARK   26  A    between atoms: C_40  and  C_52
REMARK   27  A    between atoms: C_44  and  O_51
REMARK   28  A    between atoms: C_46  and  O_50
REMARK   29  A    between atoms: C_54  and  O_59
REMARK   30  A    between atoms: C_55  and  O_58
REMARK   31  A    between atoms: C_60  and  O_61
REMARK   32  A    between atoms: C_64  and  O_65
REMARK                            x       y       z     vdW  Elec       q    Type
REMARK                         _______ _______ _______ _____ _____    ______ ____
ROOT
ATOM      1  C   UNL     1       5.117  -0.490  25.379  0.00  0.00    +0.208 C 
ATOM      2  C   UNL     1       4.366   0.513  26.358  0.00  0.00    +0.283 C 
ATOM      3  O   UNL     1       3.615  -0.100  27.403  0.00  0.00    -0.341 OA
ATOM      4  C   UNL     1       2.828  -1.248  27.078  0.00  0.00    +0.178 C 
ATOM      5  C   UNL     1       3.763  -2.342  26.609  0.00  0.00    +0.177 C 
ATOM      6  C   UNL     1       4.527  -1.916  25.365  0.00  0.00    +0.179 C 
ENDROOT
BRANCH   5   7
ATOM      7  O   UNL     1       3.052  -3.548  26.306  0.00  0.00    -0.386 OA
ATOM      8  H   UNL     1       3.050  -4.079  27.130  0.00  0.00    +0.210 HD
ENDBRANCH   5   7
BRANCH   6   9
ATOM      9  O   UNL     1       5.489  -2.962  25.146  0.00  0.00    -0.386 OA
ATOM     10  H   UNL     1       6.367  -2.578  25.358  0.00  0.00    +0.210 HD
ENDBRANCH   6   9
BRANCH   2  11
ATOM     11  O   UNL     1       3.555   1.422  25.574  0.00  0.00    -0.337 OA
BRANCH  11  12
ATOM     12  C   UNL     1       4.074   2.764  25.383  0.00  0.00    +0.221 C 
ATOM     13  C   UNL     1       3.193   3.816  26.151  0.00  0.00    +0.340 C 
ATOM     14  O   UNL     1       1.897   3.936  25.538  0.00  0.00    -0.331 OA
ATOM     15  C   UNL     1       1.828   4.240  24.145  0.00  0.00    +0.179 C 
ATOM     16  C   UNL     1       2.718   3.302  23.312  0.00  0.00    +0.177 C 
ATOM     17  C   UNL     1       4.120   3.228  23.915  0.00  0.00    +0.180 C 
BRANCH  17  18
ATOM     18  O   UNL     1       4.976   2.439  23.083  0.00  0.00    -0.386 OA
ATOM     19  H   UNL     1       4.879   1.504  23.349  0.00  0.00    +0.210 HD
ENDBRANCH  17  18
BRANCH  16  20
ATOM     20  O   UNL     1       2.808   3.733  21.943  0.00  0.00    -0.386 OA
ATOM     21  H   UNL     1       3.315   4.571  21.944  0.00  0.00    +0.210 HD
ENDBRANCH  16  20
BRANCH  15  22
ATOM     22  C   UNL     1       2.041   5.739  23.844  0.00  0.00    +0.190 C 
BRANCH  22  23
ATOM     23  O   UNL     1       1.439   6.140  22.611  0.00  0.00    -0.392 OA
ATOM     24  H   UNL     1       0.942   6.966  22.793  0.00  0.00    +0.210 HD
ENDBRANCH  22  23
ENDBRANCH  15  22
BRANCH  13  25
ATOM     25  O   UNL     1       3.949   5.036  26.151  0.00  0.00    -0.453 OA
BRANCH  25  26
ATOM     26  C   UNL     1       5.319   5.079  26.010  0.00  0.00    +0.214 A 
ATOM     27  C   UNL     1       5.952   6.007  25.024  0.00  0.00    +0.238 A 
ATOM     28  O   UNL     1       5.463   7.094  24.750  0.00  0.00    -0.283 OA
ATOM     29  C   UNL     1       7.233   5.561  24.451  0.00  0.00    +0.109 A 
ATOM     30  C   UNL     1       7.966   4.643  25.198  0.00  0.00    +0.147 A 
ATOM     31  C   UNL     1       9.209   4.194  24.746  0.00  0.00    +0.092 A 
ATOM     32  C   UNL     1       9.698   4.659  23.529  0.00  0.00    +0.124 A 
ATOM     33  C   UNL     1       8.971   5.566  22.764  0.00  0.00    +0.091 A 
ATOM     34  O   UNL     1       7.517   4.149  26.397  0.00  0.00    -0.451 OA
ATOM     35  C   UNL     1       7.736   6.019  23.227  0.00  0.00    +0.135 A 
ATOM     36  C   UNL     1       6.150   4.227  26.669  0.00  0.00    +0.181 A 
BRANCH  36  37
ATOM     37  C   UNL     1       5.743   3.338  27.813  0.00  0.00    +0.025 A 
ATOM     38  C   UNL     1       6.581   2.319  28.298  0.00  0.00    +0.015 A 
ATOM     39  C   UNL     1       6.126   1.331  29.178  0.00  0.00    +0.050 A 
ATOM     40  C   UNL     1       4.841   1.410  29.671  0.00  0.00    +0.158 A 
ATOM     41  C   UNL     1       4.046   2.502  29.356  0.00  0.00    +0.159 A 
ATOM     42  C   UNL     1       4.470   3.453  28.421  0.00  0.00    +0.060 A 
BRANCH  41  43
ATOM     43  O   UNL     1       2.841   2.605  29.996  0.00  0.00    -0.503 OA
ATOM     44  H   UNL     1       2.373   3.357  29.588  0.00  0.00    +0.292 HD
ENDBRANCH  41  43
BRANCH  40  45
ATOM     45  O   UNL     1       4.380   0.419  30.485  0.00  0.00    -0.503 OA
ATOM     46  H   UNL     1       5.050  -0.291  30.429  0.00  0.00    +0.292 HD
ENDBRANCH  40  45
ENDBRANCH  36  37
BRANCH  35  47
ATOM     47  O   UNL     1       7.010   6.876  22.452  0.00  0.00    -0.506 OA
ATOM     48  H   UNL     1       6.399   6.378  21.885  0.00  0.00    +0.292 HD
ENDBRANCH  35  47
BRANCH  32  49
ATOM     49  O   UNL     1      10.896   4.240  23.031  0.00  0.00    -0.507 OA
ATOM     50  H   UNL     1      11.574   4.313  23.724  0.00  0.00    +0.292 HD
ENDBRANCH  32  49
ENDBRANCH  25  26
ENDBRANCH  13  25
ENDBRANCH  11  12
ENDBRANCH   2  11
BRANCH   1  51
ATOM     51  O   UNL     1       6.570  -0.509  25.520  0.00  0.00    -0.338 OA
BRANCH  51  54
ATOM     52  C   UNL     1       8.816  -2.310  23.192  0.00  0.00    +0.190 C 
ATOM     53  O   UNL     1       8.064  -1.945  24.379  0.00  0.00    -0.339 OA
ATOM     54  C   UNL     1       7.306  -0.725  24.278  0.00  0.00    +0.282 C 
ATOM     55  C   UNL     1       8.245   0.444  23.915  0.00  0.00    +0.201 C 
ATOM     56  C   UNL     1       8.991   0.129  22.621  0.00  0.00    +0.179 C 
ATOM     57  C   UNL     1       9.771  -1.180  22.770  0.00  0.00    +0.178 C 
BRANCH  55  58
ATOM     58  O   UNL     1       9.198   0.698  24.964  0.00  0.00    -0.384 OA
ATOM     59  H   UNL     1       8.688   0.856  25.784  0.00  0.00    +0.210 HD
ENDBRANCH  55  58
BRANCH  56  60
ATOM     60  O   UNL     1       9.867   1.211  22.300  0.00  0.00    -0.386 OA
ATOM     61  H   UNL     1       9.738   1.394  21.347  0.00  0.00    +0.210 HD
ENDBRANCH  56  60
BRANCH  57  62
ATOM     62  O   UNL     1      10.483  -1.530  21.583  0.00  0.00    -0.386 OA
ATOM     63  H   UNL     1      11.312  -1.978  21.824  0.00  0.00    +0.210 HD
ENDBRANCH  57  62
BRANCH  52  64
ATOM     64  C   UNL     1       7.940  -2.794  22.007  0.00  0.00    +0.266 C 
BRANCH  64  65
ATOM     65  O   UNL     1       7.407  -4.102  22.251  0.00  0.00    -0.459 OA
BRANCH  65  66
ATOM     66  C   UNL     1       6.122  -4.262  21.850  0.00  0.00    +0.332 C 
ATOM     67  O   UNL     1       5.654  -3.975  20.762  0.00  0.00    -0.246 OA
BRANCH  66  69
ATOM     68  C   UNL     1       4.495  -5.834  22.721  0.00  0.00    +0.015 C 
ATOM     69  C   UNL     1       5.373  -4.855  22.970  0.00  0.00    +0.092 C 
BRANCH  68  74
ATOM     70  C   UNL     1       3.351  -7.009  26.086  0.00  0.00    +0.166 A 
ATOM     71  C   UNL     1       2.103  -7.601  25.795  0.00  0.00    +0.201 A 
ATOM     72  C   UNL     1       1.610  -7.598  24.484  0.00  0.00    +0.166 A 
ATOM     73  C   UNL     1       2.397  -7.016  23.475  0.00  0.00    +0.057 A 
ATOM     74  C   UNL     1       3.641  -6.440  23.747  0.00  0.00    -0.018 A 
ATOM     75  C   UNL     1       4.094  -6.414  25.063  0.00  0.00    +0.057 A 
BRANCH  70  77
ATOM     76  C   UNL     1       5.162  -6.843  27.608  0.00  0.00    +0.277 C 
ATOM     77  O   UNL     1       3.761  -7.004  27.398  0.00  0.00    -0.491 OA
ENDBRANCH  70  77
BRANCH  72  78
ATOM     78  O   UNL     1       0.450  -8.101  23.966  0.00  0.00    -0.491 OA
ATOM     79  C   UNL     1       0.443  -8.953  22.839  0.00  0.00    +0.277 C 
ENDBRANCH  72  78
BRANCH  71  80
ATOM     80  O   UNL     1       1.458  -8.191  26.851  0.00  0.00    -0.501 OA
ATOM     81  H   UNL     1       2.061  -8.815  27.274  0.00  0.00    +0.292 HD
ENDBRANCH  71  80
ENDBRANCH  68  74
ENDBRANCH  66  69
ENDBRANCH  65  66
ENDBRANCH  64  65
ENDBRANCH  52  64
ENDBRANCH  51  54
ENDBRANCH   1  51
BRANCH   4  82
ATOM     82  C   UNL     1       1.661  -1.009  26.098  0.00  0.00    +0.190 C 
BRANCH  82  83
ATOM     83  O   UNL     1       0.523  -1.806  26.415  0.00  0.00    -0.392 OA
ATOM     84  H   UNL     1       0.509  -1.938  27.381  0.00  0.00    +0.210 HD
ENDBRANCH  82  83
ENDBRANCH   4  82
TORSDOF 30
ENDMDL
MODEL 8
REMARK VINA RESULT:      -3.3      2.533     10.614
REMARK  Name = 
REMARK  32 active torsions:
REMARK  status: ('A' for Active; 'I' for Inactive)
REMARK    1  A    between atoms: C_1  and  O_2
REMARK    2  A    between atoms: O_2  and  C_3
REMARK    3  A    between atoms: C_5  and  C_12
REMARK    4  A    between atoms: C_7  and  O_10
REMARK    5  A    between atoms: C_8  and  O_9
REMARK    6  A    between atoms: O_10  and  C_11
REMARK    7  A    between atoms: C_13  and  C_14
REMARK    8  A    between atoms: C_14  and  O_16
REMARK    9  A    between atoms: O_16  and  C_17
REMARK   10  A    between atoms: C_17  and  C_18
REMARK   11  A    between atoms: C_19  and  O_70
REMARK   12  A    between atoms: C_20  and  O_69
REMARK   13  A    between atoms: C_21  and  O_68
REMARK   14  A    between atoms: C_22  and  O_24
REMARK   15  A    between atoms: O_24  and  C_25
REMARK   16  A    between atoms: C_26  and  O_67
REMARK   17  A    between atoms: C_27  and  O_66
REMARK   18  A    between atoms: C_28  and  C_64
REMARK   19  A    between atoms: C_30  and  O_31
REMARK   20  A    between atoms: O_31  and  C_32
REMARK   21  A    between atoms: C_33  and  O_63
REMARK   22  A    between atoms: C_34  and  O_62
REMARK   23  A    between atoms: C_35  and  C_60
REMARK   24  A    between atoms: C_37  and  O_38
REMARK   25  A    between atoms: O_38  and  C_39
REMARK   26  A    between atoms: C_40  and  C_52
REMARK   27  A    between atoms: C_44  and  O_51
REMARK   28  A    between atoms: C_46  and  O_50
REMARK   29  A    between atoms: C_54  and  O_59
REMARK   30  A    between atoms: C_55  and  O_58
REMARK   31  A    between atoms: C_60  and  O_61
REMARK   32  A    between atoms: C_64  and  O_65
REMARK                            x       y       z     vdW  Elec       q    Type
REMARK                         _______ _______ _______ _____ _____    ______ ____
ROOT
ATOM      1  C   UNL     1       5.377  -0.297  27.936  0.00  0.00    +0.208 C 
ATOM      2  C   UNL     1       6.912  -0.657  27.724  0.00  0.00    +0.283 C 
ATOM      3  O   UNL     1       7.839   0.339  28.148  0.00  0.00    -0.341 OA
ATOM      4  C   UNL     1       7.544   1.702  27.841  0.00  0.00    +0.178 C 
ATOM      5  C   UNL     1       6.258   2.077  28.545  0.00  0.00    +0.177 C 
ATOM      6  C   UNL     1       5.099   1.216  28.065  0.00  0.00    +0.179 C 
ENDROOT
BRANCH   5   7
ATOM      7  O   UNL     1       5.916   3.450  28.323  0.00  0.00    -0.386 OA
ATOM      8  H   UNL     1       5.569   3.502  27.408  0.00  0.00    +0.210 HD
ENDBRANCH   5   7
BRANCH   6   9
ATOM      9  O   UNL     1       4.004   1.553  28.934  0.00  0.00    -0.386 OA
ATOM     10  H   UNL     1       4.374   2.140  29.628  0.00  0.00    +0.210 HD
ENDBRANCH   6   9
BRANCH   2  11
ATOM     11  O   UNL     1       7.122  -1.034  26.341  0.00  0.00    -0.337 OA
BRANCH  11  12
ATOM     12  C   UNL     1       5.954  -1.460  25.593  0.00  0.00    +0.221 C 
ATOM     13  C   UNL     1       6.145  -2.923  25.048  0.00  0.00    +0.340 C 
ATOM     14  O   UNL     1       7.151  -2.955  24.022  0.00  0.00    -0.331 OA
ATOM     15  C   UNL     1       7.007  -2.085  22.899  0.00  0.00    +0.179 C 
ATOM     16  C   UNL     1       6.744  -0.633  23.332  0.00  0.00    +0.177 C 
ATOM     17  C   UNL     1       5.624  -0.584  24.369  0.00  0.00    +0.180 C 
BRANCH  17  18
ATOM     18  O   UNL     1       5.310   0.774  24.695  0.00  0.00    -0.386 OA
ATOM     19  H   UNL     1       5.828   1.354  24.105  0.00  0.00    +0.210 HD
ENDBRANCH  17  18
BRANCH  16  20
ATOM     20  O   UNL     1       6.399   0.200  22.213  0.00  0.00    -0.386 OA
ATOM     21  H   UNL     1       5.429   0.130  22.097  0.00  0.00    +0.210 HD
ENDBRANCH  16  20
BRANCH  15  22
ATOM     22  C   UNL     1       6.007  -2.617  21.849  0.00  0.00    +0.190 C 
BRANCH  22  23
ATOM     23  O   UNL     1       6.174  -4.013  21.594  0.00  0.00    -0.392 OA
ATOM     24  H   UNL     1       7.139  -4.183  21.559  0.00  0.00    +0.210 HD
ENDBRANCH  22  23
ENDBRANCH  15  22
BRANCH  13  25
ATOM     25  O   UNL     1       4.848  -3.348  24.603  0.00  0.00    -0.453 OA
BRANCH  25  26
ATOM     26  C   UNL     1       4.511  -4.669  24.400  0.00  0.00    +0.214 A 
ATOM     27  C   UNL     1       3.266  -5.029  23.657  0.00  0.00    +0.238 A 
ATOM     28  O   UNL     1       2.829  -4.336  22.749  0.00  0.00    -0.283 OA
ATOM     29  C   UNL     1       2.634  -6.303  24.039  0.00  0.00    +0.109 A 
ATOM     30  C   UNL     1       3.457  -7.255  24.635  0.00  0.00    +0.147 A 
ATOM     31  C   UNL     1       2.948  -8.504  24.997  0.00  0.00    +0.092 A 
ATOM     32  C   UNL     1       1.601  -8.779  24.775  0.00  0.00    +0.124 A 
ATOM     33  C   UNL     1       0.763  -7.833  24.193  0.00  0.00    +0.091 A 
ATOM     34  O   UNL     1       4.787  -7.021  24.885  0.00  0.00    -0.451 OA
ATOM     35  C   UNL     1       1.281  -6.592  23.824  0.00  0.00    +0.135 A 
ATOM     36  C   UNL     1       5.221  -5.696  24.939  0.00  0.00    +0.181 A 
BRANCH  36  37
ATOM     37  C   UNL     1       6.579  -5.566  25.575  0.00  0.00    +0.025 A 
ATOM     38  C   UNL     1       6.737  -5.249  26.936  0.00  0.00    +0.015 A 
ATOM     39  C   UNL     1       7.971  -4.879  27.479  0.00  0.00    +0.050 A 
ATOM     40  C   UNL     1       9.097  -4.923  26.685  0.00  0.00    +0.158 A 
ATOM     41  C   UNL     1       9.008  -5.405  25.387  0.00  0.00    +0.159 A 
ATOM     42  C   UNL     1       7.765  -5.707  24.817  0.00  0.00    +0.060 A 
BRANCH  41  43
ATOM     43  O   UNL     1      10.179  -5.571  24.699  0.00  0.00    -0.503 OA
ATOM     44  H   UNL     1      10.267  -4.798  24.111  0.00  0.00    +0.292 HD
ENDBRANCH  41  43
BRANCH  40  45
ATOM     45  O   UNL     1      10.290  -4.510  27.198  0.00  0.00    -0.503 OA
ATOM     46  H   UNL     1      10.406  -3.596  26.872  0.00  0.00    +0.292 HD
ENDBRANCH  40  45
ENDBRANCH  36  37
BRANCH  35  47
ATOM     47  O   UNL     1       0.444  -5.656  23.292  0.00  0.00    -0.506 OA
ATOM     48  H   UNL     1       0.427  -4.864  23.854  0.00  0.00    +0.292 HD
ENDBRANCH  35  47
BRANCH  32  49
ATOM     49  O   UNL     1       1.048  -9.975  25.126  0.00  0.00    -0.507 OA
ATOM     50  H   UNL     1       0.865  -9.975  26.080  0.00  0.00    +0.292 HD
ENDBRANCH  32  49
ENDBRANCH  25  26
ENDBRANCH  13  25
ENDBRANCH  11  12
ENDBRANCH   2  11
BRANCH   1  51
ATOM     51  O   UNL     1       4.710  -1.059  28.986  0.00  0.00    -0.338 OA
BRANCH  51  54
ATOM     52  C   UNL     1       1.335  -2.565  29.217  0.00  0.00    +0.190 C 
ATOM     53  O   UNL     1       2.549  -1.841  29.549  0.00  0.00    -0.339 OA
ATOM     54  C   UNL     1       3.574  -1.861  28.538  0.00  0.00    +0.282 C 
ATOM     55  C   UNL     1       3.951  -3.319  28.207  0.00  0.00    +0.201 C 
ATOM     56  C   UNL     1       2.709  -4.091  27.770  0.00  0.00    +0.179 C 
ATOM     57  C   UNL     1       1.642  -4.032  28.868  0.00  0.00    +0.178 C 
BRANCH  55  58
ATOM     58  O   UNL     1       4.548  -3.978  29.338  0.00  0.00    -0.384 OA
ATOM     59  H   UNL     1       5.105  -4.703  28.989  0.00  0.00    +0.210 HD
ENDBRANCH  55  58
BRANCH  56  60
ATOM     60  O   UNL     1       3.065  -5.443  27.478  0.00  0.00    -0.386 OA
ATOM     61  H   UNL     1       2.854  -5.961  28.282  0.00  0.00    +0.210 HD
ENDBRANCH  56  60
BRANCH  57  62
ATOM     62  O   UNL     1       0.451  -4.732  28.510  0.00  0.00    -0.386 OA
ATOM     63  H   UNL     1       0.087  -4.352  27.692  0.00  0.00    +0.210 HD
ENDBRANCH  57  62
BRANCH  52  64
ATOM     64  C   UNL     1       0.465  -1.885  28.129  0.00  0.00    +0.266 C 
BRANCH  64  65
ATOM     65  O   UNL     1       0.588  -0.459  28.177  0.00  0.00    -0.459 OA
BRANCH  65  66
ATOM     66  C   UNL     1       0.737   0.127  26.963  0.00  0.00    +0.332 C 
ATOM     67  O   UNL     1       0.444  -0.349  25.880  0.00  0.00    -0.246 OA
BRANCH  66  69
ATOM     68  C   UNL     1       1.798   2.141  26.128  0.00  0.00    +0.015 C 
ATOM     69  C   UNL     1       1.319   1.462  27.177  0.00  0.00    +0.092 C 
BRANCH  68  74
ATOM     70  C   UNL     1       4.403   4.791  25.680  0.00  0.00    +0.166 A 
ATOM     71  C   UNL     1       3.864   5.875  26.405  0.00  0.00    +0.201 A 
ATOM     72  C   UNL     1       2.618   5.753  27.034  0.00  0.00    +0.166 A 
ATOM     73  C   UNL     1       1.940   4.525  26.941  0.00  0.00    +0.057 A 
ATOM     74  C   UNL     1       2.469   3.439  26.238  0.00  0.00    -0.018 A 
ATOM     75  C   UNL     1       3.688   3.594  25.583  0.00  0.00    +0.057 A 
BRANCH  70  77
ATOM     76  C   UNL     1       5.590   4.864  23.628  0.00  0.00    +0.277 C 
ATOM     77  O   UNL     1       5.609   4.986  25.048  0.00  0.00    -0.491 OA
ENDBRANCH  70  77
BRANCH  72  78
ATOM     78  O   UNL     1       1.904   6.647  27.781  0.00  0.00    -0.491 OA
ATOM     79  C   UNL     1       2.068   6.749  29.181  0.00  0.00    +0.277 C 
ENDBRANCH  72  78
BRANCH  71  80
ATOM     80  O   UNL     1       4.647   6.998  26.477  0.00  0.00    -0.501 OA
ATOM     81  H   UNL     1       4.693   7.400  25.601  0.00  0.00    +0.292 HD
ENDBRANCH  71  80
ENDBRANCH  68  74
ENDBRANCH  66  69
ENDBRANCH  65  66
ENDBRANCH  64  65
ENDBRANCH  52  64
ENDBRANCH  51  54
ENDBRANCH   1  51
BRANCH   4  82
ATOM     82  C   UNL     1       7.524   2.066  26.342  0.00  0.00    +0.190 C 
BRANCH  82  83
ATOM     83  O   UNL     1       7.929   3.413  26.112  0.00  0.00    -0.392 OA
ATOM     84  H   UNL     1       8.865   3.404  25.842  0.00  0.00    +0.210 HD
ENDBRANCH  82  83
ENDBRANCH   4  82
TORSDOF 30
ENDMDL
MODEL 9
REMARK VINA RESULT:      -3.2      2.227      4.761
REMARK  Name = 
REMARK  32 active torsions:
REMARK  status: ('A' for Active; 'I' for Inactive)
REMARK    1  A    between atoms: C_1  and  O_2
REMARK    2  A    between atoms: O_2  and  C_3
REMARK    3  A    between atoms: C_5  and  C_12
REMARK    4  A    between atoms: C_7  and  O_10
REMARK    5  A    between atoms: C_8  and  O_9
REMARK    6  A    between atoms: O_10  and  C_11
REMARK    7  A    between atoms: C_13  and  C_14
REMARK    8  A    between atoms: C_14  and  O_16
REMARK    9  A    between atoms: O_16  and  C_17
REMARK   10  A    between atoms: C_17  and  C_18
REMARK   11  A    between atoms: C_19  and  O_70
REMARK   12  A    between atoms: C_20  and  O_69
REMARK   13  A    between atoms: C_21  and  O_68
REMARK   14  A    between atoms: C_22  and  O_24
REMARK   15  A    between atoms: O_24  and  C_25
REMARK   16  A    between atoms: C_26  and  O_67
REMARK   17  A    between atoms: C_27  and  O_66
REMARK   18  A    between atoms: C_28  and  C_64
REMARK   19  A    between atoms: C_30  and  O_31
REMARK   20  A    between atoms: O_31  and  C_32
REMARK   21  A    between atoms: C_33  and  O_63
REMARK   22  A    between atoms: C_34  and  O_62
REMARK   23  A    between atoms: C_35  and  C_60
REMARK   24  A    between atoms: C_37  and  O_38
REMARK   25  A    between atoms: O_38  and  C_39
REMARK   26  A    between atoms: C_40  and  C_52
REMARK   27  A    between atoms: C_44  and  O_51
REMARK   28  A    between atoms: C_46  and  O_50
REMARK   29  A    between atoms: C_54  and  O_59
REMARK   30  A    between atoms: C_55  and  O_58
REMARK   31  A    between atoms: C_60  and  O_61
REMARK   32  A    between atoms: C_64  and  O_65
REMARK                            x       y       z     vdW  Elec       q    Type
REMARK                         _______ _______ _______ _____ _____    ______ ____
ROOT
ATOM      1  C   UNL     1       7.357   1.366  24.713  0.00  0.00    +0.208 C 
ATOM      2  C   UNL     1       6.352   0.798  23.619  0.00  0.00    +0.283 C 
ATOM      3  O   UNL     1       6.847  -0.288  22.839  0.00  0.00    -0.341 OA
ATOM      4  C   UNL     1       8.193  -0.214  22.367  0.00  0.00    +0.178 C 
ATOM      5  C   UNL     1       9.113  -0.179  23.569  0.00  0.00    +0.177 C 
ATOM      6  C   UNL     1       8.840   1.042  24.433  0.00  0.00    +0.179 C 
ENDROOT
BRANCH   5   7
ATOM      7  O   UNL     1      10.490  -0.152  23.179  0.00  0.00    -0.386 OA
ATOM      8  H   UNL     1      10.921   0.527  23.739  0.00  0.00    +0.210 HD
ENDBRANCH   5   7
BRANCH   6   9
ATOM      9  O   UNL     1       9.645   0.850  25.610  0.00  0.00    -0.386 OA
ATOM     10  H   UNL     1       9.256   0.086  26.088  0.00  0.00    +0.210 HD
ENDBRANCH   6   9
BRANCH   2  11
ATOM     11  O   UNL     1       5.889   1.890  22.788  0.00  0.00    -0.337 OA
BRANCH  11  12
ATOM     12  C   UNL     1       5.569   3.135  23.462  0.00  0.00    +0.221 C 
ATOM     13  C   UNL     1       4.526   2.893  24.613  0.00  0.00    +0.340 C 
ATOM     14  O   UNL     1       3.242   2.541  24.069  0.00  0.00    -0.331 OA
ATOM     15  C   UNL     1       2.644   3.417  23.112  0.00  0.00    +0.179 C 
ATOM     16  C   UNL     1       3.618   3.771  21.976  0.00  0.00    +0.177 C 
ATOM     17  C   UNL     1       4.962   4.218  22.550  0.00  0.00    +0.180 C 
BRANCH  17  18
ATOM     18  O   UNL     1       5.832   4.645  21.497  0.00  0.00    -0.386 OA
ATOM     19  H   UNL     1       6.527   3.969  21.386  0.00  0.00    +0.210 HD
ENDBRANCH  17  18
BRANCH  16  20
ATOM     20  O   UNL     1       3.090   4.805  21.129  0.00  0.00    -0.386 OA
ATOM     21  H   UNL     1       2.117   4.790  21.237  0.00  0.00    +0.210 HD
ENDBRANCH  16  20
BRANCH  15  22
ATOM     22  C   UNL     1       1.964   4.642  23.761  0.00  0.00    +0.190 C 
BRANCH  22  23
ATOM     23  O   UNL     1       2.867   5.732  23.951  0.00  0.00    -0.392 OA
ATOM     24  H   UNL     1       3.586   5.624  23.293  0.00  0.00    +0.210 HD
ENDBRANCH  22  23
ENDBRANCH  15  22
BRANCH  13  25
ATOM     25  O   UNL     1       4.514   4.098  25.393  0.00  0.00    -0.453 OA
BRANCH  25  26
ATOM     26  C   UNL     1       5.650   4.815  25.698  0.00  0.00    +0.214 A 
ATOM     27  C   UNL     1       6.127   5.904  24.792  0.00  0.00    +0.238 A 
ATOM     28  O   UNL     1       5.353   6.593  24.143  0.00  0.00    -0.283 OA
ATOM     29  C   UNL     1       7.581   6.140  24.780  0.00  0.00    +0.109 A 
ATOM     30  C   UNL     1       8.290   5.734  25.908  0.00  0.00    +0.147 A 
ATOM     31  C   UNL     1       9.667   5.952  25.995  0.00  0.00    +0.092 A 
ATOM     32  C   UNL     1      10.326   6.561  24.931  0.00  0.00    +0.124 A 
ATOM     33  C   UNL     1       9.635   6.960  23.792  0.00  0.00    +0.091 A 
ATOM     34  O   UNL     1       7.682   5.119  26.974  0.00  0.00    -0.451 OA
ATOM     35  C   UNL     1       8.258   6.749  23.717  0.00  0.00    +0.135 A 
ATOM     36  C   UNL     1       6.442   4.513  26.762  0.00  0.00    +0.181 A 
BRANCH  36  37
ATOM     37  C   UNL     1       6.067   3.574  27.878  0.00  0.00    +0.025 A 
ATOM     38  C   UNL     1       7.036   2.890  28.631  0.00  0.00    +0.015 A 
ATOM     39  C   UNL     1       6.708   1.836  29.490  0.00  0.00    +0.050 A 
ATOM     40  C   UNL     1       5.382   1.517  29.689  0.00  0.00    +0.158 A 
ATOM     41  C   UNL     1       4.391   2.289  29.101  0.00  0.00    +0.159 A 
ATOM     42  C   UNL     1       4.714   3.297  28.185  0.00  0.00    +0.060 A 
BRANCH  41  43
ATOM     43  O   UNL     1       3.096   2.023  29.456  0.00  0.00    -0.503 OA
ATOM     44  H   UNL     1       3.111   1.179  29.944  0.00  0.00    +0.292 HD
ENDBRANCH  41  43
BRANCH  40  45
ATOM     45  O   UNL     1       5.065   0.455  30.482  0.00  0.00    -0.503 OA
ATOM     46  H   UNL     1       4.408  -0.058  29.971  0.00  0.00    +0.292 HD
ENDBRANCH  40  45
ENDBRANCH  36  37
BRANCH  35  47
ATOM     47  O   UNL     1       7.594   7.105  22.580  0.00  0.00    -0.506 OA
ATOM     48  H   UNL     1       7.429   8.062  22.574  0.00  0.00    +0.292 HD
ENDBRANCH  35  47
BRANCH  32  49
ATOM     49  O   UNL     1      11.672   6.781  24.956  0.00  0.00    -0.507 OA
ATOM     50  H   UNL     1      11.948   6.977  25.866  0.00  0.00    +0.292 HD
ENDBRANCH  32  49
ENDBRANCH  25  26
ENDBRANCH  13  25
ENDBRANCH  11  12
ENDBRANCH   2  11
BRANCH   1  51
ATOM     51  O   UNL     1       6.991   1.066  26.094  0.00  0.00    -0.338 OA
BRANCH  51  54
ATOM     52  C   UNL     1       4.573  -1.313  27.579  0.00  0.00    +0.190 C 
ATOM     53  O   UNL     1       5.331  -0.104  27.307  0.00  0.00    -0.339 OA
ATOM     54  C   UNL     1       6.346  -0.229  26.293  0.00  0.00    +0.282 C 
ATOM     55  C   UNL     1       7.333  -1.349  26.678  0.00  0.00    +0.201 C 
ATOM     56  C   UNL     1       6.578  -2.659  26.889  0.00  0.00    +0.179 C 
ATOM     57  C   UNL     1       5.502  -2.476  27.965  0.00  0.00    +0.178 C 
BRANCH  55  58
ATOM     58  O   UNL     1       8.060  -1.021  27.876  0.00  0.00    -0.384 OA
ATOM     59  H   UNL     1       7.425  -1.065  28.620  0.00  0.00    +0.210 HD
ENDBRANCH  55  58
BRANCH  56  60
ATOM     60  O   UNL     1       7.498  -3.687  27.258  0.00  0.00    -0.386 OA
ATOM     61  H   UNL     1       8.202  -3.682  26.577  0.00  0.00    +0.210 HD
ENDBRANCH  56  60
BRANCH  57  62
ATOM     62  O   UNL     1       4.756  -3.670  28.198  0.00  0.00    -0.386 OA
ATOM     63  H   UNL     1       5.312  -4.311  28.673  0.00  0.00    +0.210 HD
ENDBRANCH  57  62
BRANCH  52  64
ATOM     64  C   UNL     1       3.587  -1.713  26.451  0.00  0.00    +0.266 C 
BRANCH  64  65
ATOM     65  O   UNL     1       2.431  -2.377  26.978  0.00  0.00    -0.459 OA
BRANCH  65  66
ATOM     66  C   UNL     1       1.965  -3.383  26.198  0.00  0.00    +0.332 C 
ATOM     67  O   UNL     1       0.798  -3.673  25.997  0.00  0.00    -0.246 OA
BRANCH  66  69
ATOM     68  C   UNL     1       3.808  -3.491  24.626  0.00  0.00    +0.015 C 
ATOM     69  C   UNL     1       3.127  -4.076  25.618  0.00  0.00    +0.092 C 
BRANCH  68  74
ATOM     70  C   UNL     1       7.154  -5.074  24.074  0.00  0.00    +0.166 A 
ATOM     71  C   UNL     1       7.152  -5.318  22.684  0.00  0.00    +0.201 A 
ATOM     72  C   UNL     1       6.032  -4.985  21.912  0.00  0.00    +0.166 A 
ATOM     73  C   UNL     1       4.933  -4.384  22.552  0.00  0.00    +0.057 A 
ATOM     74  C   UNL     1       4.928  -4.124  23.925  0.00  0.00    -0.018 A 
ATOM     75  C   UNL     1       6.033  -4.503  24.683  0.00  0.00    +0.057 A 
BRANCH  70  77
ATOM     76  C   UNL     1       9.221  -4.439  25.050  0.00  0.00    +0.277 C 
ATOM     77  O   UNL     1       8.265  -5.464  24.785  0.00  0.00    -0.491 OA
ENDBRANCH  70  77
BRANCH  72  78
ATOM     78  O   UNL     1       5.798  -5.121  20.572  0.00  0.00    -0.491 OA
ATOM     79  C   UNL     1       6.095  -6.316  19.880  0.00  0.00    +0.277 C 
ENDBRANCH  72  78
BRANCH  71  80
ATOM     80  O   UNL     1       8.304  -5.848  22.166  0.00  0.00    -0.501 OA
ATOM     81  H   UNL     1       8.144  -6.770  21.931  0.00  0.00    +0.292 HD
ENDBRANCH  71  80
ENDBRANCH  68  74
ENDBRANCH  66  69
ENDBRANCH  65  66
ENDBRANCH  64  65
ENDBRANCH  52  64
ENDBRANCH  51  54
ENDBRANCH   1  51
BRANCH   4  82
ATOM     82  C   UNL     1       8.494   0.915  21.361  0.00  0.00    +0.190 C 
BRANCH  82  83
ATOM     83  O   UNL     1       9.507   1.799  21.835  0.00  0.00    -0.392 OA
ATOM     84  H   UNL     1       9.346   2.677  21.444  0.00  0.00    +0.210 HD
ENDBRANCH  82  83
ENDBRANCH   4  82
TORSDOF 30
ENDMDL
