MODEL 1
REMARK VINA RESULT:      -6.9      0.000      0.000
REMARK  Name = 
REMARK  13 active torsions:
REMARK  status: ('A' for Active; 'I' for Inactive)
REMARK    1  A    between atoms: C_1  and  O_2
REMARK    2  A    between atoms: O_2  and  C_3
REMARK    3  A    between atoms: C_4  and  O_36
REMARK    4  A    between atoms: C_6  and  C_9
REMARK    5  A    between atoms: C_10  and  O_23
REMARK    6  A    between atoms: C_14  and  O_22
REMARK    7  A    between atoms: C_16  and  O_20
REMARK    8  A    between atoms: O_20  and  C_21
REMARK    9  A    between atoms: O_23  and  C_24
REMARK   10  A    between atoms: C_26  and  O_35
REMARK   11  A    between atoms: C_28  and  O_34
REMARK   12  A    between atoms: C_29  and  C_32
REMARK   13  A    between atoms: C_32  and  O_33
REMARK                            x       y       z     vdW  Elec       q    Type
REMARK                         _______ _______ _______ _____ _____    ______ ____
ROOT
ATOM      1  C   UNL     1       7.155  -3.824  25.685  0.00  0.00    +0.181 A 
ATOM      2  O   UNL     1       7.855  -2.670  26.010  0.00  0.00    -0.451 OA
ATOM      3  C   UNL     1       8.533  -2.001  25.027  0.00  0.00    +0.147 A 
ATOM      4  C   UNL     1       8.621  -2.470  23.726  0.00  0.00    +0.109 A 
ATOM      5  C   UNL     1       9.317  -1.734  22.765  0.00  0.00    +0.135 A 
ATOM      6  C   UNL     1       9.913  -0.522  23.099  0.00  0.00    +0.092 A 
ATOM      7  C   UNL     1       9.826  -0.044  24.409  0.00  0.00    +0.127 A 
ATOM      8  C   UNL     1       7.941  -3.720  23.391  0.00  0.00    +0.238 A 
ATOM      9  O   UNL     1       8.013  -4.164  22.247  0.00  0.00    -0.283 OA
ATOM     10  C   UNL     1       9.143  -0.794  25.373  0.00  0.00    +0.092 A 
ATOM     11  C   UNL     1       7.125  -4.387  24.449  0.00  0.00    +0.214 A 
ENDROOT
BRANCH   1  15
ATOM     12  C   UNL     1       5.318  -5.270  29.280  0.00  0.00    +0.161 A 
ATOM     13  C   UNL     1       4.843  -4.105  28.679  0.00  0.00    +0.050 A 
ATOM     14  C   UNL     1       5.411  -3.651  27.477  0.00  0.00    +0.015 A 
ATOM     15  C   UNL     1       6.457  -4.357  26.871  0.00  0.00    +0.025 A 
ATOM     16  C   UNL     1       6.874  -5.574  27.430  0.00  0.00    +0.060 A 
ATOM     17  C   UNL     1       6.313  -6.004  28.628  0.00  0.00    +0.159 A 
BRANCH  12  19
ATOM     18  C   UNL     1       3.714  -6.547  30.485  0.00  0.00    +0.277 C 
ATOM     19  O   UNL     1       4.913  -5.781  30.485  0.00  0.00    -0.491 OA
ENDBRANCH  12  19
BRANCH  17  20
ATOM     20  O   UNL     1       6.795  -7.161  29.179  0.00  0.00    -0.503 OA
ATOM     21  H   UNL     1       7.764  -7.037  29.224  0.00  0.00    +0.292 HD
ENDBRANCH  17  20
ENDBRANCH   1  15
BRANCH   5  22
ATOM     22  O   UNL     1       9.442  -2.138  21.459  0.00  0.00    -0.506 OA
ATOM     23  H   UNL     1      10.387  -2.341  21.291  0.00  0.00    +0.292 HD
ENDBRANCH   5  22
BRANCH   7  24
ATOM     24  O   UNL     1      10.357   1.133  24.864  0.00  0.00    -0.495 OA
ATOM     25  C   UNL     1      10.589   2.149  23.893  0.00  0.00    +0.277 C 
ENDBRANCH   7  24
BRANCH  11  26
ATOM     26  O   UNL     1       6.473  -5.507  23.988  0.00  0.00    -0.453 OA
BRANCH  26  27
ATOM     27  C   UNL     1       5.068  -5.632  24.076  0.00  0.00    +0.340 C 
ATOM     28  O   UNL     1       4.692  -6.954  24.470  0.00  0.00    -0.331 OA
ATOM     29  C   UNL     1       3.448  -7.263  23.802  0.00  0.00    +0.179 C 
ATOM     30  C   UNL     1       3.032  -6.020  22.990  0.00  0.00    +0.180 C 
ATOM     31  C   UNL     1       4.381  -5.367  22.727  0.00  0.00    +0.214 C 
BRANCH  30  32
ATOM     32  O   UNL     1       2.143  -5.187  23.751  0.00  0.00    -0.386 OA
ATOM     33  H   UNL     1       1.944  -5.594  24.611  0.00  0.00    +0.210 HD
ENDBRANCH  30  32
BRANCH  31  34
ATOM     34  O   UNL     1       5.023  -6.010  21.624  0.00  0.00    -0.383 OA
ATOM     35  H   UNL     1       5.803  -6.482  21.978  0.00  0.00    +0.210 HD
ENDBRANCH  31  34
BRANCH  29  36
ATOM     36  C   UNL     1       2.441  -7.716  24.858  0.00  0.00    +0.190 C 
BRANCH  36  37
ATOM     37  O   UNL     1       2.639  -9.069  25.238  0.00  0.00    -0.392 OA
ATOM     38  H   UNL     1       3.600  -9.163  25.390  0.00  0.00    +0.210 HD
ENDBRANCH  36  37
ENDBRANCH  29  36
ENDBRANCH  26  27
ENDBRANCH  11  26
TORSDOF 11
ENDMDL
MODEL 2
REMARK VINA RESULT:      -6.9      1.829      2.911
REMARK  Name = 
REMARK  13 active torsions:
REMARK  status: ('A' for Active; 'I' for Inactive)
REMARK    1  A    between atoms: C_1  and  O_2
REMARK    2  A    between atoms: O_2  and  C_3
REMARK    3  A    between atoms: C_4  and  O_36
REMARK    4  A    between atoms: C_6  and  C_9
REMARK    5  A    between atoms: C_10  and  O_23
REMARK    6  A    between atoms: C_14  and  O_22
REMARK    7  A    between atoms: C_16  and  O_20
REMARK    8  A    between atoms: O_20  and  C_21
REMARK    9  A    between atoms: O_23  and  C_24
REMARK   10  A    between atoms: C_26  and  O_35
REMARK   11  A    between atoms: C_28  and  O_34
REMARK   12  A    between atoms: C_29  and  C_32
REMARK   13  A    between atoms: C_32  and  O_33
REMARK                            x       y       z     vdW  Elec       q    Type
REMARK                         _______ _______ _______ _____ _____    ______ ____
ROOT
ATOM      1  C   UNL     1       7.724  -1.901  24.977  0.00  0.00    +0.181 A 
ATOM      2  O   UNL     1       7.661  -0.612  25.491  0.00  0.00    -0.451 OA
ATOM      3  C   UNL     1       8.145   0.428  24.746  0.00  0.00    +0.147 A 
ATOM      4  C   UNL     1       8.773   0.246  23.524  0.00  0.00    +0.109 A 
ATOM      5  C   UNL     1       9.233   1.351  22.804  0.00  0.00    +0.135 A 
ATOM      6  C   UNL     1       9.053   2.639  23.297  0.00  0.00    +0.092 A 
ATOM      7  C   UNL     1       8.419   2.829  24.527  0.00  0.00    +0.127 A 
ATOM      8  C   UNL     1       8.902  -1.115  23.006  0.00  0.00    +0.238 A 
ATOM      9  O   UNL     1       9.466  -1.306  21.931  0.00  0.00    -0.283 OA
ATOM     10  C   UNL     1       7.976   1.717  25.254  0.00  0.00    +0.092 A 
ATOM     11  C   UNL     1       8.284  -2.230  23.784  0.00  0.00    +0.214 A 
ENDROOT
BRANCH   1  15
ATOM     12  C   UNL     1       6.075  -4.585  27.887  0.00  0.00    +0.161 A 
ATOM     13  C   UNL     1       5.352  -3.459  27.494  0.00  0.00    +0.050 A 
ATOM     14  C   UNL     1       5.867  -2.601  26.508  0.00  0.00    +0.015 A 
ATOM     15  C   UNL     1       7.107  -2.861  25.913  0.00  0.00    +0.025 A 
ATOM     16  C   UNL     1       7.791  -4.039  26.245  0.00  0.00    +0.060 A 
ATOM     17  C   UNL     1       7.277  -4.873  27.233  0.00  0.00    +0.159 A 
BRANCH  12  19
ATOM     18  C   UNL     1       4.727  -6.418  28.578  0.00  0.00    +0.277 C 
ATOM     19  O   UNL     1       5.732  -5.458  28.885  0.00  0.00    -0.491 OA
ENDBRANCH  12  19
BRANCH  17  20
ATOM     20  O   UNL     1       8.007  -5.977  27.581  0.00  0.00    -0.503 OA
ATOM     21  H   UNL     1       8.070  -6.509  26.762  0.00  0.00    +0.292 HD
ENDBRANCH  17  20
ENDBRANCH   1  15
BRANCH   5  22
ATOM     22  O   UNL     1       9.862   1.242  21.589  0.00  0.00    -0.506 OA
ATOM     23  H   UNL     1      10.414   2.042  21.458  0.00  0.00    +0.292 HD
ENDBRANCH   5  22
BRANCH   7  24
ATOM     24  O   UNL     1       8.171   4.039  25.118  0.00  0.00    -0.495 OA
ATOM     25  C   UNL     1       9.064   5.102  24.798  0.00  0.00    +0.277 C 
ENDBRANCH   7  24
BRANCH  11  26
ATOM     26  O   UNL     1       8.404  -3.446  23.154  0.00  0.00    -0.453 OA
BRANCH  26  27
ATOM     27  C   UNL     1       7.300  -4.063  22.521  0.00  0.00    +0.340 C 
ATOM     28  O   UNL     1       6.216  -4.240  23.435  0.00  0.00    -0.331 OA
ATOM     29  C   UNL     1       5.543  -5.467  23.070  0.00  0.00    +0.179 C 
ATOM     30  C   UNL     1       6.252  -6.035  21.824  0.00  0.00    +0.180 C 
ATOM     31  C   UNL     1       7.652  -5.459  21.984  0.00  0.00    +0.214 C 
BRANCH  30  32
ATOM     32  O   UNL     1       5.599  -5.597  20.622  0.00  0.00    -0.386 OA
ATOM     33  H   UNL     1       6.157  -5.774  19.845  0.00  0.00    +0.210 HD
ENDBRANCH  30  32
BRANCH  31  34
ATOM     34  O   UNL     1       8.399  -6.254  22.908  0.00  0.00    -0.383 OA
ATOM     35  H   UNL     1       8.206  -5.915  23.804  0.00  0.00    +0.210 HD
ENDBRANCH  31  34
BRANCH  29  36
ATOM     36  C   UNL     1       4.058  -5.161  22.890  0.00  0.00    +0.190 C 
BRANCH  36  37
ATOM     37  O   UNL     1       3.325  -6.303  22.475  0.00  0.00    -0.392 OA
ATOM     38  H   UNL     1       3.249  -6.229  21.503  0.00  0.00    +0.210 HD
ENDBRANCH  36  37
ENDBRANCH  29  36
ENDBRANCH  26  27
ENDBRANCH  11  26
TORSDOF 11
ENDMDL
MODEL 3
REMARK VINA RESULT:      -6.7      3.176      7.517
REMARK  Name = 
REMARK  13 active torsions:
REMARK  status: ('A' for Active; 'I' for Inactive)
REMARK    1  A    between atoms: C_1  and  O_2
REMARK    2  A    between atoms: O_2  and  C_3
REMARK    3  A    between atoms: C_4  and  O_36
REMARK    4  A    between atoms: C_6  and  C_9
REMARK    5  A    between atoms: C_10  and  O_23
REMARK    6  A    between atoms: C_14  and  O_22
REMARK    7  A    between atoms: C_16  and  O_20
REMARK    8  A    between atoms: O_20  and  C_21
REMARK    9  A    between atoms: O_23  and  C_24
REMARK   10  A    between atoms: C_26  and  O_35
REMARK   11  A    between atoms: C_28  and  O_34
REMARK   12  A    between atoms: C_29  and  C_32
REMARK   13  A    between atoms: C_32  and  O_33
REMARK                            x       y       z     vdW  Elec       q    Type
REMARK                         _______ _______ _______ _____ _____    ______ ____
ROOT
ATOM      1  C   UNL     1       6.519  -1.501  24.964  0.00  0.00    +0.181 A 
ATOM      2  O   UNL     1       5.333  -2.223  24.956  0.00  0.00    -0.451 OA
ATOM      3  C   UNL     1       5.210  -3.297  24.118  0.00  0.00    +0.147 A 
ATOM      4  C   UNL     1       6.193  -3.654  23.209  0.00  0.00    +0.109 A 
ATOM      5  C   UNL     1       6.014  -4.771  22.390  0.00  0.00    +0.135 A 
ATOM      6  C   UNL     1       4.859  -5.539  22.487  0.00  0.00    +0.092 A 
ATOM      7  C   UNL     1       3.865  -5.185  23.403  0.00  0.00    +0.127 A 
ATOM      8  C   UNL     1       7.419  -2.858  23.164  0.00  0.00    +0.238 A 
ATOM      9  O   UNL     1       8.302  -3.146  22.359  0.00  0.00    -0.283 OA
ATOM     10  C   UNL     1       4.042  -4.055  24.209  0.00  0.00    +0.092 A 
ATOM     11  C   UNL     1       7.580  -1.750  24.152  0.00  0.00    +0.214 A 
ENDROOT
BRANCH   1  15
ATOM     12  C   UNL     1       6.552   1.750  27.760  0.00  0.00    +0.161 A 
ATOM     13  C   UNL     1       5.618   1.736  26.724  0.00  0.00    +0.050 A 
ATOM     14  C   UNL     1       5.572   0.651  25.832  0.00  0.00    +0.015 A 
ATOM     15  C   UNL     1       6.462  -0.422  25.969  0.00  0.00    +0.025 A 
ATOM     16  C   UNL     1       7.340  -0.446  27.061  0.00  0.00    +0.060 A 
ATOM     17  C   UNL     1       7.384   0.640  27.928  0.00  0.00    +0.159 A 
BRANCH  12  19
ATOM     18  C   UNL     1       6.855   4.083  28.103  0.00  0.00    +0.277 C 
ATOM     19  O   UNL     1       6.758   2.773  28.648  0.00  0.00    -0.491 OA
ENDBRANCH  12  19
BRANCH  17  20
ATOM     20  O   UNL     1       8.304   0.612  28.942  0.00  0.00    -0.503 OA
ATOM     21  H   UNL     1       7.975   1.254  29.601  0.00  0.00    +0.292 HD
ENDBRANCH  17  20
ENDBRANCH   1  15
BRANCH   5  22
ATOM     22  O   UNL     1       6.947  -5.180  21.470  0.00  0.00    -0.506 OA
ATOM     23  H   UNL     1       7.476  -5.902  21.871  0.00  0.00    +0.292 HD
ENDBRANCH   5  22
BRANCH   7  24
ATOM     24  O   UNL     1       2.691  -5.860  23.605  0.00  0.00    -0.495 OA
ATOM     25  C   UNL     1       2.790  -7.153  24.193  0.00  0.00    +0.277 C 
ENDBRANCH   7  24
BRANCH  11  26
ATOM     26  O   UNL     1       8.804  -1.131  24.060  0.00  0.00    -0.453 OA
BRANCH  26  27
ATOM     27  C   UNL     1       8.939   0.163  23.509  0.00  0.00    +0.340 C 
ATOM     28  O   UNL     1       7.718   0.595  22.902  0.00  0.00    -0.331 OA
ATOM     29  C   UNL     1       8.070   1.407  21.760  0.00  0.00    +0.179 C 
ATOM     30  C   UNL     1       9.609   1.501  21.710  0.00  0.00    +0.180 C 
ATOM     31  C   UNL     1      10.013   0.212  22.411  0.00  0.00    +0.214 C 
BRANCH  30  32
ATOM     32  O   UNL     1      10.070   2.679  22.391  0.00  0.00    -0.386 OA
ATOM     33  H   UNL     1      10.856   3.044  21.949  0.00  0.00    +0.210 HD
ENDBRANCH  30  32
BRANCH  31  34
ATOM     34  O   UNL     1       9.940  -0.881  21.492  0.00  0.00    -0.383 OA
ATOM     35  H   UNL     1      10.833  -1.273  21.438  0.00  0.00    +0.210 HD
ENDBRANCH  31  34
BRANCH  29  36
ATOM     36  C   UNL     1       7.341   2.743  21.882  0.00  0.00    +0.190 C 
BRANCH  36  37
ATOM     37  O   UNL     1       7.284   3.199  23.225  0.00  0.00    -0.392 OA
ATOM     38  H   UNL     1       6.461   2.825  23.596  0.00  0.00    +0.210 HD
ENDBRANCH  36  37
ENDBRANCH  29  36
ENDBRANCH  26  27
ENDBRANCH  11  26
TORSDOF 11
ENDMDL
MODEL 4
REMARK VINA RESULT:      -6.7      4.206      7.746
REMARK  Name = 
REMARK  13 active torsions:
REMARK  status: ('A' for Active; 'I' for Inactive)
REMARK    1  A    between atoms: C_1  and  O_2
REMARK    2  A    between atoms: O_2  and  C_3
REMARK    3  A    between atoms: C_4  and  O_36
REMARK    4  A    between atoms: C_6  and  C_9
REMARK    5  A    between atoms: C_10  and  O_23
REMARK    6  A    between atoms: C_14  and  O_22
REMARK    7  A    between atoms: C_16  and  O_20
REMARK    8  A    between atoms: O_20  and  C_21
REMARK    9  A    between atoms: O_23  and  C_24
REMARK   10  A    between atoms: C_26  and  O_35
REMARK   11  A    between atoms: C_28  and  O_34
REMARK   12  A    between atoms: C_29  and  C_32
REMARK   13  A    between atoms: C_32  and  O_33
REMARK                            x       y       z     vdW  Elec       q    Type
REMARK                         _______ _______ _______ _____ _____    ______ ____
ROOT
ATOM      1  C   UNL     1       8.529   1.641  24.000  0.00  0.00    +0.181 A 
ATOM      2  O   UNL     1       9.805   1.993  23.579  0.00  0.00    -0.451 OA
ATOM      3  C   UNL     1      10.197   3.302  23.654  0.00  0.00    +0.147 A 
ATOM      4  C   UNL     1       9.344   4.316  24.060  0.00  0.00    +0.109 A 
ATOM      5  C   UNL     1       9.807   5.632  24.129  0.00  0.00    +0.135 A 
ATOM      6  C   UNL     1      11.127   5.933  23.807  0.00  0.00    +0.092 A 
ATOM      7  C   UNL     1      11.991   4.914  23.399  0.00  0.00    +0.127 A 
ATOM      8  C   UNL     1       7.977   3.963  24.441  0.00  0.00    +0.238 A 
ATOM      9  O   UNL     1       7.197   4.845  24.793  0.00  0.00    -0.283 OA
ATOM     10  C   UNL     1      11.517   3.600  23.315  0.00  0.00    +0.092 A 
ATOM     11  C   UNL     1       7.594   2.520  24.448  0.00  0.00    +0.214 A 
ENDROOT
BRANCH   1  15
ATOM     12  C   UNL     1       8.040  -2.579  23.415  0.00  0.00    +0.161 A 
ATOM     13  C   UNL     1       9.153  -2.098  24.105  0.00  0.00    +0.050 A 
ATOM     14  C   UNL     1       9.296  -0.721  24.339  0.00  0.00    +0.015 A 
ATOM     15  C   UNL     1       8.329   0.184  23.883  0.00  0.00    +0.025 A 
ATOM     16  C   UNL     1       7.169  -0.308  23.268  0.00  0.00    +0.060 A 
ATOM     17  C   UNL     1       7.048  -1.673  23.029  0.00  0.00    +0.159 A 
BRANCH  12  19
ATOM     18  C   UNL     1       8.065  -4.873  24.038  0.00  0.00    +0.277 C 
ATOM     19  O   UNL     1       7.814  -3.880  23.051  0.00  0.00    -0.491 OA
ENDBRANCH  12  19
BRANCH  17  20
ATOM     20  O   UNL     1       5.934  -2.108  22.364  0.00  0.00    -0.503 OA
ATOM     21  H   UNL     1       5.425  -1.297  22.161  0.00  0.00    +0.292 HD
ENDBRANCH  17  20
ENDBRANCH   1  15
BRANCH   5  22
ATOM     22  O   UNL     1       9.018   6.683  24.522  0.00  0.00    -0.506 OA
ATOM     23  H   UNL     1       8.206   6.679  23.971  0.00  0.00    +0.292 HD
ENDBRANCH   5  22
BRANCH   7  24
ATOM     24  O   UNL     1      13.310   5.073  23.067  0.00  0.00    -0.495 OA
ATOM     25  C   UNL     1      13.586   5.807  21.877  0.00  0.00    +0.277 C 
ENDBRANCH   7  24
BRANCH  11  26
ATOM     26  O   UNL     1       6.313   2.313  24.901  0.00  0.00    -0.453 OA
BRANCH  26  27
ATOM     27  C   UNL     1       6.030   2.173  26.278  0.00  0.00    +0.340 C 
ATOM     28  O   UNL     1       7.138   1.599  26.976  0.00  0.00    -0.331 OA
ATOM     29  C   UNL     1       6.598   0.778  28.037  0.00  0.00    +0.179 C 
ATOM     30  C   UNL     1       5.062   0.909  27.993  0.00  0.00    +0.180 C 
ATOM     31  C   UNL     1       4.830   1.246  26.527  0.00  0.00    +0.214 C 
BRANCH  30  32
ATOM     32  O   UNL     1       4.613   1.942  28.885  0.00  0.00    -0.386 OA
ATOM     33  H   UNL     1       3.642   1.951  28.937  0.00  0.00    +0.210 HD
ENDBRANCH  30  32
BRANCH  31  34
ATOM     34  O   UNL     1       4.860   0.051  25.745  0.00  0.00    -0.383 OA
ATOM     35  H   UNL     1       4.704  -0.698  26.354  0.00  0.00    +0.210 HD
ENDBRANCH  31  34
BRANCH  29  36
ATOM     36  C   UNL     1       7.250   1.206  29.350  0.00  0.00    +0.190 C 
BRANCH  36  37
ATOM     37  O   UNL     1       7.679   2.559  29.316  0.00  0.00    -0.392 OA
ATOM     38  H   UNL     1       6.869   3.095  29.430  0.00  0.00    +0.210 HD
ENDBRANCH  36  37
ENDBRANCH  29  36
ENDBRANCH  26  27
ENDBRANCH  11  26
TORSDOF 11
ENDMDL
MODEL 5
REMARK VINA RESULT:      -6.6      3.618      6.859
REMARK  Name = 
REMARK  13 active torsions:
REMARK  status: ('A' for Active; 'I' for Inactive)
REMARK    1  A    between atoms: C_1  and  O_2
REMARK    2  A    between atoms: O_2  and  C_3
REMARK    3  A    between atoms: C_4  and  O_36
REMARK    4  A    between atoms: C_6  and  C_9
REMARK    5  A    between atoms: C_10  and  O_23
REMARK    6  A    between atoms: C_14  and  O_22
REMARK    7  A    between atoms: C_16  and  O_20
REMARK    8  A    between atoms: O_20  and  C_21
REMARK    9  A    between atoms: O_23  and  C_24
REMARK   10  A    between atoms: C_26  and  O_35
REMARK   11  A    between atoms: C_28  and  O_34
REMARK   12  A    between atoms: C_29  and  C_32
REMARK   13  A    between atoms: C_32  and  O_33
REMARK                            x       y       z     vdW  Elec       q    Type
REMARK                         _______ _______ _______ _____ _____    ______ ____
ROOT
ATOM      1  C   UNL     1       8.656   1.246  23.723  0.00  0.00    +0.181 A 
ATOM      2  O   UNL     1       9.899   1.825  23.505  0.00  0.00    -0.451 OA
ATOM      3  C   UNL     1      10.022   3.186  23.567  0.00  0.00    +0.147 A 
ATOM      4  C   UNL     1       8.937   4.027  23.760  0.00  0.00    +0.109 A 
ATOM      5  C   UNL     1       9.130   5.410  23.828  0.00  0.00    +0.135 A 
ATOM      6  C   UNL     1      10.407   5.950  23.717  0.00  0.00    +0.092 A 
ATOM      7  C   UNL     1      11.503   5.107  23.524  0.00  0.00    +0.127 A 
ATOM      8  C   UNL     1       7.614   3.428  23.925  0.00  0.00    +0.238 A 
ATOM      9  O   UNL     1       6.634   4.153  24.086  0.00  0.00    -0.283 OA
ATOM     10  C   UNL     1      11.303   3.724  23.439  0.00  0.00    +0.092 A 
ATOM     11  C   UNL     1       7.510   1.939  23.953  0.00  0.00    +0.214 A 
ENDROOT
BRANCH   1  15
ATOM     12  C   UNL     1       8.680  -3.040  23.592  0.00  0.00    +0.161 A 
ATOM     13  C   UNL     1       8.660  -2.310  22.403  0.00  0.00    +0.050 A 
ATOM     14  C   UNL     1       8.699  -0.906  22.439  0.00  0.00    +0.015 A 
ATOM     15  C   UNL     1       8.753  -0.225  23.662  0.00  0.00    +0.025 A 
ATOM     16  C   UNL     1       8.861  -0.962  24.850  0.00  0.00    +0.060 A 
ATOM     17  C   UNL     1       8.808  -2.351  24.801  0.00  0.00    +0.159 A 
BRANCH  12  19
ATOM     18  C   UNL     1       7.361  -4.986  23.236  0.00  0.00    +0.277 C 
ATOM     19  O   UNL     1       8.569  -4.401  23.706  0.00  0.00    -0.491 OA
ENDBRANCH  12  19
BRANCH  17  20
ATOM     20  O   UNL     1       8.845  -3.033  25.987  0.00  0.00    -0.503 OA
ATOM     21  H   UNL     1       9.012  -3.965  25.739  0.00  0.00    +0.292 HD
ENDBRANCH  17  20
ENDBRANCH   1  15
BRANCH   5  22
ATOM     22  O   UNL     1       8.102   6.299  24.018  0.00  0.00    -0.506 OA
ATOM     23  H   UNL     1       7.363   5.824  24.455  0.00  0.00    +0.292 HD
ENDBRANCH   5  22
BRANCH   7  24
ATOM     24  O   UNL     1      12.808   5.508  23.411  0.00  0.00    -0.495 OA
ATOM     25  C   UNL     1      13.333   5.611  22.091  0.00  0.00    +0.277 C 
ENDBRANCH   7  24
BRANCH  11  26
ATOM     26  O   UNL     1       6.229   1.502  24.193  0.00  0.00    -0.453 OA
BRANCH  26  27
ATOM     27  C   UNL     1       5.874   0.893  25.419  0.00  0.00    +0.340 C 
ATOM     28  O   UNL     1       5.393  -0.437  25.213  0.00  0.00    -0.331 OA
ATOM     29  C   UNL     1       4.372  -0.682  26.207  0.00  0.00    +0.179 C 
ATOM     30  C   UNL     1       4.271   0.576  27.093  0.00  0.00    +0.180 C 
ATOM     31  C   UNL     1       4.751   1.658  26.136  0.00  0.00    +0.214 C 
BRANCH  30  32
ATOM     32  O   UNL     1       5.101   0.448  28.258  0.00  0.00    -0.386 OA
ATOM     33  H   UNL     1       4.851   1.104  28.931  0.00  0.00    +0.210 HD
ENDBRANCH  30  32
BRANCH  31  34
ATOM     34  O   UNL     1       3.683   2.048  25.271  0.00  0.00    -0.383 OA
ATOM     35  H   UNL     1       3.023   1.326  25.282  0.00  0.00    +0.210 HD
ENDBRANCH  31  34
BRANCH  29  36
ATOM     36  C   UNL     1       4.725  -1.970  26.946  0.00  0.00    +0.190 C 
BRANCH  36  37
ATOM     37  O   UNL     1       6.128  -2.151  27.063  0.00  0.00    -0.392 OA
ATOM     38  H   UNL     1       6.504  -1.252  27.145  0.00  0.00    +0.210 HD
ENDBRANCH  36  37
ENDBRANCH  29  36
ENDBRANCH  26  27
ENDBRANCH  11  26
TORSDOF 11
ENDMDL
MODEL 6
REMARK VINA RESULT:      -6.5      2.615      7.613
REMARK  Name = 
REMARK  13 active torsions:
REMARK  status: ('A' for Active; 'I' for Inactive)
REMARK    1  A    between atoms: C_1  and  O_2
REMARK    2  A    between atoms: O_2  and  C_3
REMARK    3  A    between atoms: C_4  and  O_36
REMARK    4  A    between atoms: C_6  and  C_9
REMARK    5  A    between atoms: C_10  and  O_23
REMARK    6  A    between atoms: C_14  and  O_22
REMARK    7  A    between atoms: C_16  and  O_20
REMARK    8  A    between atoms: O_20  and  C_21
REMARK    9  A    between atoms: O_23  and  C_24
REMARK   10  A    between atoms: C_26  and  O_35
REMARK   11  A    between atoms: C_28  and  O_34
REMARK   12  A    between atoms: C_29  and  C_32
REMARK   13  A    between atoms: C_32  and  O_33
REMARK                            x       y       z     vdW  Elec       q    Type
REMARK                         _______ _______ _______ _____ _____    ______ ____
ROOT
ATOM      1  C   UNL     1       5.958  -1.784  24.866  0.00  0.00    +0.181 A 
ATOM      2  O   UNL     1       5.373  -2.884  25.480  0.00  0.00    -0.451 OA
ATOM      3  C   UNL     1       5.185  -4.031  24.757  0.00  0.00    +0.147 A 
ATOM      4  C   UNL     1       5.481  -4.121  23.407  0.00  0.00    +0.109 A 
ATOM      5  C   UNL     1       5.280  -5.325  22.727  0.00  0.00    +0.135 A 
ATOM      6  C   UNL     1       4.796  -6.443  23.400  0.00  0.00    +0.092 A 
ATOM      7  C   UNL     1       4.497  -6.357  24.762  0.00  0.00    +0.127 A 
ATOM      8  C   UNL     1       6.036  -2.946  22.737  0.00  0.00    +0.238 A 
ATOM      9  O   UNL     1       6.297  -2.997  21.537  0.00  0.00    -0.283 OA
ATOM     10  C   UNL     1       4.684  -5.144  25.434  0.00  0.00    +0.092 A 
ATOM     11  C   UNL     1       6.327  -1.734  23.559  0.00  0.00    +0.214 A 
ENDROOT
BRANCH   1  15
ATOM     12  C   UNL     1       6.599   1.531  27.509  0.00  0.00    +0.161 A 
ATOM     13  C   UNL     1       5.532   1.556  26.611  0.00  0.00    +0.050 A 
ATOM     14  C   UNL     1       5.290   0.454  25.775  0.00  0.00    +0.015 A 
ATOM     15  C   UNL     1       6.114  -0.677  25.829  0.00  0.00    +0.025 A 
ATOM     16  C   UNL     1       7.131  -0.736  26.792  0.00  0.00    +0.060 A 
ATOM     17  C   UNL     1       7.369   0.368  27.604  0.00  0.00    +0.159 A 
BRANCH  12  19
ATOM     18  C   UNL     1       6.889   3.874  27.790  0.00  0.00    +0.277 C 
ATOM     19  O   UNL     1       6.995   2.560  28.323  0.00  0.00    -0.491 OA
ENDBRANCH  12  19
BRANCH  17  20
ATOM     20  O   UNL     1       8.415   0.300  28.484  0.00  0.00    -0.503 OA
ATOM     21  H   UNL     1       8.660  -0.647  28.516  0.00  0.00    +0.292 HD
ENDBRANCH  17  20
ENDBRANCH   1  15
BRANCH   5  22
ATOM     22  O   UNL     1       5.552  -5.485  21.392  0.00  0.00    -0.506 OA
ATOM     23  H   UNL     1       5.153  -4.732  20.906  0.00  0.00    +0.292 HD
ENDBRANCH   5  22
BRANCH   7  24
ATOM     24  O   UNL     1       4.028  -7.381  25.540  0.00  0.00    -0.495 OA
ATOM     25  C   UNL     1       2.727  -7.874  25.233  0.00  0.00    +0.277 C 
ENDBRANCH   7  24
BRANCH  11  26
ATOM     26  O   UNL     1       6.919  -0.730  22.832  0.00  0.00    -0.453 OA
BRANCH  26  27
ATOM     27  C   UNL     1       8.152  -0.160  23.226  0.00  0.00    +0.340 C 
ATOM     28  O   UNL     1       8.385   1.079  22.553  0.00  0.00    -0.331 OA
ATOM     29  C   UNL     1       9.809   1.186  22.332  0.00  0.00    +0.179 C 
ATOM     30  C   UNL     1      10.474  -0.057  22.956  0.00  0.00    +0.180 C 
ATOM     31  C   UNL     1       9.341  -1.072  22.885  0.00  0.00    +0.214 C 
BRANCH  30  32
ATOM     32  O   UNL     1      10.902   0.213  24.300  0.00  0.00    -0.386 OA
ATOM     33  H   UNL     1      10.546   1.064  24.608  0.00  0.00    +0.210 HD
ENDBRANCH  30  32
BRANCH  31  34
ATOM     34  O   UNL     1       9.273  -1.631  21.571  0.00  0.00    -0.383 OA
ATOM     35  H   UNL     1       8.443  -1.313  21.164  0.00  0.00    +0.210 HD
ENDBRANCH  31  34
BRANCH  29  36
ATOM     36  C   UNL     1      10.280   2.526  22.894  0.00  0.00    +0.190 C 
BRANCH  36  37
ATOM     37  O   UNL     1       9.638   2.845  24.119  0.00  0.00    -0.392 OA
ATOM     38  H   UNL     1      10.359   3.009  24.760  0.00  0.00    +0.210 HD
ENDBRANCH  36  37
ENDBRANCH  29  36
ENDBRANCH  26  27
ENDBRANCH  11  26
TORSDOF 11
ENDMDL
MODEL 7
REMARK VINA RESULT:      -6.4      2.225      2.923
REMARK  Name = 
REMARK  13 active torsions:
REMARK  status: ('A' for Active; 'I' for Inactive)
REMARK    1  A    between atoms: C_1  and  O_2
REMARK    2  A    between atoms: O_2  and  C_3
REMARK    3  A    between atoms: C_4  and  O_36
REMARK    4  A    between atoms: C_6  and  C_9
REMARK    5  A    between atoms: C_10  and  O_23
REMARK    6  A    between atoms: C_14  and  O_22
REMARK    7  A    between atoms: C_16  and  O_20
REMARK    8  A    between atoms: O_20  and  C_21
REMARK    9  A    between atoms: O_23  and  C_24
REMARK   10  A    between atoms: C_26  and  O_35
REMARK   11  A    between atoms: C_28  and  O_34
REMARK   12  A    between atoms: C_29  and  C_32
REMARK   13  A    between atoms: C_32  and  O_33
REMARK                            x       y       z     vdW  Elec       q    Type
REMARK                         _______ _______ _______ _____ _____    ______ ____
ROOT
ATOM      1  C   UNL     1       6.775  -1.738  25.446  0.00  0.00    +0.181 A 
ATOM      2  O   UNL     1       7.164  -0.419  25.251  0.00  0.00    -0.451 OA
ATOM      3  C   UNL     1       8.162  -0.141  24.358  0.00  0.00    +0.147 A 
ATOM      4  C   UNL     1       8.864  -1.131  23.689  0.00  0.00    +0.109 A 
ATOM      5  C   UNL     1       9.864  -0.783  22.777  0.00  0.00    +0.135 A 
ATOM      6  C   UNL     1      10.151   0.554  22.523  0.00  0.00    +0.092 A 
ATOM      7  C   UNL     1       9.445   1.556  23.192  0.00  0.00    +0.127 A 
ATOM      8  C   UNL     1       8.506  -2.526  23.938  0.00  0.00    +0.238 A 
ATOM      9  O   UNL     1       9.122  -3.424  23.367  0.00  0.00    -0.283 OA
ATOM     10  C   UNL     1       8.456   1.202  24.118  0.00  0.00    +0.092 A 
ATOM     11  C   UNL     1       7.351  -2.810  24.841  0.00  0.00    +0.214 A 
ENDROOT
BRANCH   1  15
ATOM     12  C   UNL     1       3.394  -2.092  28.060  0.00  0.00    +0.161 A 
ATOM     13  C   UNL     1       4.493  -2.935  28.229  0.00  0.00    +0.050 A 
ATOM     14  C   UNL     1       5.622  -2.793  27.405  0.00  0.00    +0.015 A 
ATOM     15  C   UNL     1       5.658  -1.812  26.407  0.00  0.00    +0.025 A 
ATOM     16  C   UNL     1       4.590  -0.910  26.297  0.00  0.00    +0.060 A 
ATOM     17  C   UNL     1       3.472  -1.070  27.109  0.00  0.00    +0.159 A 
BRANCH  12  19
ATOM     18  C   UNL     1       2.281  -2.376  30.141  0.00  0.00    +0.277 C 
ATOM     19  O   UNL     1       2.206  -2.169  28.736  0.00  0.00    -0.491 OA
ENDBRANCH  12  19
BRANCH  17  20
ATOM     20  O   UNL     1       2.421  -0.214  26.925  0.00  0.00    -0.503 OA
ATOM     21  H   UNL     1       1.767  -0.723  26.405  0.00  0.00    +0.292 HD
ENDBRANCH  17  20
ENDBRANCH   1  15
BRANCH   5  22
ATOM     22  O   UNL     1      10.597  -1.711  22.081  0.00  0.00    -0.506 OA
ATOM     23  H   UNL     1      10.478  -2.583  22.514  0.00  0.00    +0.292 HD
ENDBRANCH   5  22
BRANCH   7  24
ATOM     24  O   UNL     1       9.621   2.904  23.026  0.00  0.00    -0.495 OA
ATOM     25  C   UNL     1       9.077   3.750  24.034  0.00  0.00    +0.277 C 
ENDBRANCH   7  24
BRANCH  11  26
ATOM     26  O   UNL     1       7.065  -4.151  24.930  0.00  0.00    -0.453 OA
BRANCH  26  27
ATOM     27  C   UNL     1       5.847  -4.681  24.446  0.00  0.00    +0.340 C 
ATOM     28  O   UNL     1       5.553  -5.939  25.057  0.00  0.00    -0.331 OA
ATOM     29  C   UNL     1       4.879  -6.750  24.068  0.00  0.00    +0.179 C 
ATOM     30  C   UNL     1       4.721  -5.896  22.793  0.00  0.00    +0.180 C 
ATOM     31  C   UNL     1       5.890  -4.931  22.931  0.00  0.00    +0.214 C 
BRANCH  30  32
ATOM     32  O   UNL     1       3.446  -5.234  22.776  0.00  0.00    -0.386 OA
ATOM     33  H   UNL     1       3.320  -4.713  23.588  0.00  0.00    +0.210 HD
ENDBRANCH  30  32
BRANCH  31  34
ATOM     34  O   UNL     1       7.094  -5.563  22.491  0.00  0.00    -0.383 OA
ATOM     35  H   UNL     1       6.864  -6.479  22.238  0.00  0.00    +0.210 HD
ENDBRANCH  31  34
BRANCH  29  36
ATOM     36  C   UNL     1       3.572  -7.256  24.676  0.00  0.00    +0.190 C 
BRANCH  36  37
ATOM     37  O   UNL     1       2.838  -8.062  23.768  0.00  0.00    -0.392 OA
ATOM     38  H   UNL     1       1.956  -8.181  24.174  0.00  0.00    +0.210 HD
ENDBRANCH  36  37
ENDBRANCH  29  36
ENDBRANCH  26  27
ENDBRANCH  11  26
TORSDOF 11
ENDMDL
MODEL 8
REMARK VINA RESULT:      -6.4      2.928      8.457
REMARK  Name = 
REMARK  13 active torsions:
REMARK  status: ('A' for Active; 'I' for Inactive)
REMARK    1  A    between atoms: C_1  and  O_2
REMARK    2  A    between atoms: O_2  and  C_3
REMARK    3  A    between atoms: C_4  and  O_36
REMARK    4  A    between atoms: C_6  and  C_9
REMARK    5  A    between atoms: C_10  and  O_23
REMARK    6  A    between atoms: C_14  and  O_22
REMARK    7  A    between atoms: C_16  and  O_20
REMARK    8  A    between atoms: O_20  and  C_21
REMARK    9  A    between atoms: O_23  and  C_24
REMARK   10  A    between atoms: C_26  and  O_35
REMARK   11  A    between atoms: C_28  and  O_34
REMARK   12  A    between atoms: C_29  and  C_32
REMARK   13  A    between atoms: C_32  and  O_33
REMARK                            x       y       z     vdW  Elec       q    Type
REMARK                         _______ _______ _______ _____ _____    ______ ____
ROOT
ATOM      1  C   UNL     1       8.198  -1.417  24.589  0.00  0.00    +0.181 A 
ATOM      2  O   UNL     1       8.153  -2.426  23.635  0.00  0.00    -0.451 OA
ATOM      3  C   UNL     1       7.378  -3.530  23.866  0.00  0.00    +0.147 A 
ATOM      4  C   UNL     1       6.691  -3.726  25.053  0.00  0.00    +0.109 A 
ATOM      5  C   UNL     1       5.904  -4.868  25.222  0.00  0.00    +0.135 A 
ATOM      6  C   UNL     1       5.792  -5.806  24.201  0.00  0.00    +0.092 A 
ATOM      7  C   UNL     1       6.481  -5.611  23.002  0.00  0.00    +0.127 A 
ATOM      8  C   UNL     1       6.786  -2.700  26.089  0.00  0.00    +0.238 A 
ATOM      9  O   UNL     1       6.195  -2.856  27.156  0.00  0.00    -0.283 OA
ATOM     10  C   UNL     1       7.283  -4.475  22.843  0.00  0.00    +0.092 A 
ATOM     11  C   UNL     1       7.556  -1.457  25.785  0.00  0.00    +0.214 A 
ENDROOT
BRANCH   1  15
ATOM     12  C   UNL     1      10.500   1.985  23.358  0.00  0.00    +0.161 A 
ATOM     13  C   UNL     1      10.906   1.235  24.462  0.00  0.00    +0.050 A 
ATOM     14  C   UNL     1      10.182   0.093  24.842  0.00  0.00    +0.015 A 
ATOM     15  C   UNL     1       9.047  -0.303  24.124  0.00  0.00    +0.025 A 
ATOM     16  C   UNL     1       8.692   0.400  22.964  0.00  0.00    +0.060 A 
ATOM     17  C   UNL     1       9.409   1.537  22.607  0.00  0.00    +0.159 A 
BRANCH  12  19
ATOM     18  C   UNL     1      10.757   4.327  23.673  0.00  0.00    +0.277 C 
ATOM     19  O   UNL     1      11.063   3.156  22.925  0.00  0.00    -0.491 OA
ENDBRANCH  12  19
BRANCH  17  20
ATOM     20  O   UNL     1       8.990   2.237  21.508  0.00  0.00    -0.503 OA
ATOM     21  H   UNL     1       9.693   2.108  20.841  0.00  0.00    +0.292 HD
ENDBRANCH  17  20
ENDBRANCH   1  15
BRANCH   5  22
ATOM     22  O   UNL     1       5.197  -5.126  26.370  0.00  0.00    -0.506 OA
ATOM     23  H   UNL     1       4.676  -4.325  26.595  0.00  0.00    +0.292 HD
ENDBRANCH   5  22
BRANCH   7  24
ATOM     24  O   UNL     1       6.448  -6.448  21.918  0.00  0.00    -0.495 OA
ATOM     25  C   UNL     1       6.156  -5.852  20.658  0.00  0.00    +0.277 C 
ENDBRANCH   7  24
BRANCH  11  26
ATOM     26  O   UNL     1       7.503  -0.538  26.806  0.00  0.00    -0.453 OA
BRANCH  26  27
ATOM     27  C   UNL     1       6.924   0.738  26.622  0.00  0.00    +0.340 C 
ATOM     28  O   UNL     1       7.231   1.606  27.716  0.00  0.00    -0.331 OA
ATOM     29  C   UNL     1       6.090   2.472  27.911  0.00  0.00    +0.179 C 
ATOM     30  C   UNL     1       5.049   2.123  26.828  0.00  0.00    +0.180 C 
ATOM     31  C   UNL     1       5.391   0.668  26.538  0.00  0.00    +0.214 C 
BRANCH  30  32
ATOM     32  O   UNL     1       5.200   2.975  25.681  0.00  0.00    -0.386 OA
ATOM     33  H   UNL     1       5.548   3.844  25.944  0.00  0.00    +0.210 HD
ENDBRANCH  30  32
BRANCH  31  34
ATOM     34  O   UNL     1       4.803  -0.175  27.532  0.00  0.00    -0.383 OA
ATOM     35  H   UNL     1       5.455  -0.267  28.255  0.00  0.00    +0.210 HD
ENDBRANCH  31  34
BRANCH  29  36
ATOM     36  C   UNL     1       6.580   3.918  27.898  0.00  0.00    +0.190 C 
BRANCH  36  37
ATOM     37  O   UNL     1       7.597   4.128  26.931  0.00  0.00    -0.392 OA
ATOM     38  H   UNL     1       7.603   5.091  26.759  0.00  0.00    +0.210 HD
ENDBRANCH  36  37
ENDBRANCH  29  36
ENDBRANCH  26  27
ENDBRANCH  11  26
TORSDOF 11
ENDMDL
MODEL 9
REMARK VINA RESULT:      -6.4      3.231      8.170
REMARK  Name = 
REMARK  13 active torsions:
REMARK  status: ('A' for Active; 'I' for Inactive)
REMARK    1  A    between atoms: C_1  and  O_2
REMARK    2  A    between atoms: O_2  and  C_3
REMARK    3  A    between atoms: C_4  and  O_36
REMARK    4  A    between atoms: C_6  and  C_9
REMARK    5  A    between atoms: C_10  and  O_23
REMARK    6  A    between atoms: C_14  and  O_22
REMARK    7  A    between atoms: C_16  and  O_20
REMARK    8  A    between atoms: O_20  and  C_21
REMARK    9  A    between atoms: O_23  and  C_24
REMARK   10  A    between atoms: C_26  and  O_35
REMARK   11  A    between atoms: C_28  and  O_34
REMARK   12  A    between atoms: C_29  and  C_32
REMARK   13  A    between atoms: C_32  and  O_33
REMARK                            x       y       z     vdW  Elec       q    Type
REMARK                         _______ _______ _______ _____ _____    ______ ____
ROOT
ATOM      1  C   UNL     1       6.816  -0.758  25.525  0.00  0.00    +0.181 A 
ATOM      2  O   UNL     1       6.590  -1.747  26.473  0.00  0.00    -0.451 OA
ATOM      3  C   UNL     1       7.026  -3.020  26.227  0.00  0.00    +0.147 A 
ATOM      4  C   UNL     1       7.619  -3.391  25.031  0.00  0.00    +0.109 A 
ATOM      5  C   UNL     1       8.056  -4.705  24.846  0.00  0.00    +0.135 A 
ATOM      6  C   UNL     1       7.914  -5.645  25.862  0.00  0.00    +0.092 A 
ATOM      7  C   UNL     1       7.319  -5.276  27.070  0.00  0.00    +0.127 A 
ATOM      8  C   UNL     1       7.801  -2.370  24.001  0.00  0.00    +0.238 A 
ATOM      9  O   UNL     1       8.313  -2.675  22.926  0.00  0.00    -0.283 OA
ATOM     10  C   UNL     1       6.867  -3.963  27.244  0.00  0.00    +0.092 A 
ATOM     11  C   UNL     1       7.410  -0.965  24.320  0.00  0.00    +0.214 A 
ENDROOT
BRANCH   1  15
ATOM     12  C   UNL     1       5.522   3.142  26.751  0.00  0.00    +0.161 A 
ATOM     13  C   UNL     1       4.747   2.403  25.856  0.00  0.00    +0.050 A 
ATOM     14  C   UNL     1       5.143   1.107  25.486  0.00  0.00    +0.015 A 
ATOM     15  C   UNL     1       6.315   0.544  26.005  0.00  0.00    +0.025 A 
ATOM     16  C   UNL     1       7.044   1.253  26.970  0.00  0.00    +0.060 A 
ATOM     17  C   UNL     1       6.649   2.540  27.317  0.00  0.00    +0.159 A 
BRANCH  12  19
ATOM     18  C   UNL     1       4.227   5.119  26.493  0.00  0.00    +0.277 C 
ATOM     19  O   UNL     1       5.297   4.437  27.135  0.00  0.00    -0.491 OA
ENDBRANCH  12  19
BRANCH  17  20
ATOM     20  O   UNL     1       7.426   3.228  28.210  0.00  0.00    -0.503 OA
ATOM     21  H   UNL     1       7.412   4.155  27.898  0.00  0.00    +0.292 HD
ENDBRANCH  17  20
ENDBRANCH   1  15
BRANCH   5  22
ATOM     22  O   UNL     1       8.651  -5.139  23.688  0.00  0.00    -0.506 OA
ATOM     23  H   UNL     1       9.605  -4.914  23.731  0.00  0.00    +0.292 HD
ENDBRANCH   5  22
BRANCH   7  24
ATOM     24  O   UNL     1       7.131  -6.098  28.149  0.00  0.00    -0.495 OA
ATOM     25  C   UNL     1       5.879  -5.995  28.821  0.00  0.00    +0.277 C 
ENDBRANCH   7  24
BRANCH  11  26
ATOM     26  O   UNL     1       7.704  -0.088  23.303  0.00  0.00    -0.453 OA
BRANCH  26  27
ATOM     27  C   UNL     1       8.632   0.964  23.479  0.00  0.00    +0.340 C 
ATOM     28  O   UNL     1       7.974   2.233  23.495  0.00  0.00    -0.331 OA
ATOM     29  C   UNL     1       8.871   3.189  22.885  0.00  0.00    +0.179 C 
ATOM     30  C   UNL     1      10.171   2.443  22.521  0.00  0.00    +0.180 C 
ATOM     31  C   UNL     1       9.662   1.020  22.341  0.00  0.00    +0.214 C 
BRANCH  30  32
ATOM     32  O   UNL     1      11.140   2.563  23.575  0.00  0.00    -0.386 OA
ATOM     33  H   UNL     1      10.702   2.744  24.424  0.00  0.00    +0.210 HD
ENDBRANCH  30  32
BRANCH  31  34
ATOM     34  O   UNL     1       9.084   0.874  21.041  0.00  0.00    -0.383 OA
ATOM     35  H   UNL     1       9.769   1.125  20.391  0.00  0.00    +0.210 HD
ENDBRANCH  31  34
BRANCH  29  36
ATOM     36  C   UNL     1       9.043   4.363  23.846  0.00  0.00    +0.190 C 
BRANCH  36  37
ATOM     37  O   UNL     1      10.056   5.259  23.417  0.00  0.00    -0.392 OA
ATOM     38  H   UNL     1      10.903   4.831  23.651  0.00  0.00    +0.210 HD
ENDBRANCH  36  37
ENDBRANCH  29  36
ENDBRANCH  26  27
ENDBRANCH  11  26
TORSDOF 11
ENDMDL
