MODEL 1
REMARK VINA RESULT:      -7.1      0.000      0.000
REMARK  Name = 
REMARK  18 active torsions:
REMARK  status: ('A' for Active; 'I' for Inactive)
REMARK    1  A    between atoms: C_3  and  O_38
REMARK    2  A    between atoms: C_4  and  O_37
REMARK    3  A    between atoms: C_6  and  C_7
REMARK    4  A    between atoms: C_8  and  O_36
REMARK    5  A    between atoms: C_12  and  O_35
REMARK    6  A    between atoms: C_14  and  O_18
REMARK    7  A    between atoms: O_18  and  C_19
REMARK    8  A    between atoms: C_21  and  O_34
REMARK    9  A    between atoms: C_23  and  O_33
REMARK   10  A    between atoms: C_25  and  O_32
REMARK   11  A    between atoms: C_27  and  C_30
REMARK   12  A    between atoms: C_30  and  O_31
REMARK   13  A    between atoms: O_38  and  C_39
REMARK   14  A    between atoms: C_41  and  O_54
REMARK   15  A    between atoms: C_43  and  O_53
REMARK   16  A    between atoms: C_45  and  O_52
REMARK   17  A    between atoms: C_47  and  C_50
REMARK   18  A    between atoms: C_50  and  O_51
REMARK                            x       y       z     vdW  Elec       q    Type
REMARK                         _______ _______ _______ _____ _____    ______ ____
ROOT
ATOM      1  C   UNL     1       7.628  -1.378  24.652  0.00  0.00    +0.181 A 
ATOM      2  O   UNL     1       6.658  -2.212  24.064  0.00  0.00    -0.451 OA
ATOM      3  C   UNL     1       6.441  -3.472  24.572  0.00  0.00    +0.147 A 
ATOM      4  C   UNL     1       7.251  -3.996  25.569  0.00  0.00    +0.109 A 
ATOM      5  C   UNL     1       7.074  -5.310  25.989  0.00  0.00    +0.135 A 
ATOM      6  C   UNL     1       6.065  -6.091  25.444  0.00  0.00    +0.092 A 
ATOM      7  C   UNL     1       5.132  -5.537  24.558  0.00  0.00    +0.131 A 
ATOM      8  C   UNL     1       8.259  -3.142  26.196  0.00  0.00    +0.238 A 
ATOM      9  O   UNL     1       8.951  -3.588  27.115  0.00  0.00    -0.283 OA
ATOM     10  C   UNL     1       5.364  -4.237  24.069  0.00  0.00    +0.093 A 
ATOM     11  C   UNL     1       8.370  -1.747  25.721  0.00  0.00    +0.208 A 
ENDROOT
BRANCH   1  13
ATOM     12  C   UNL     1       6.746   0.322  23.070  0.00  0.00    +0.015 A 
ATOM     13  C   UNL     1       7.736  -0.040  23.986  0.00  0.00    +0.025 A 
ATOM     14  C   UNL     1       8.805   0.856  24.158  0.00  0.00    +0.060 A 
ATOM     15  C   UNL     1       8.827   2.091  23.513  0.00  0.00    +0.159 A 
ATOM     16  C   UNL     1       7.806   2.477  22.637  0.00  0.00    +0.165 A 
ATOM     17  C   UNL     1       6.807   1.536  22.378  0.00  0.00    +0.050 A 
BRANCH  15  18
ATOM     18  O   UNL     1       9.880   2.933  23.771  0.00  0.00    -0.503 OA
ATOM     19  H   UNL     1      10.307   3.110  22.913  0.00  0.00    +0.292 HD
ENDBRANCH  15  18
BRANCH  16  20
ATOM     20  O   UNL     1       7.831   3.755  22.102  0.00  0.00    -0.457 OA
BRANCH  20  21
ATOM     21  C   UNL     1       6.924   4.672  22.767  0.00  0.00    +0.339 C 
ATOM     22  O   UNL     1       7.292   6.030  22.540  0.00  0.00    -0.331 OA
ATOM     23  C   UNL     1       7.770   6.830  23.621  0.00  0.00    +0.179 C 
ATOM     24  C   UNL     1       6.990   6.585  24.921  0.00  0.00    +0.177 C 
ATOM     25  C   UNL     1       7.105   5.116  25.333  0.00  0.00    +0.180 C 
ATOM     26  C   UNL     1       6.565   4.222  24.211  0.00  0.00    +0.214 C 
BRANCH  26  27
ATOM     27  O   UNL     1       5.118   4.245  24.338  0.00  0.00    -0.383 OA
ATOM     28  H   UNL     1       4.821   5.073  23.894  0.00  0.00    +0.210 HD
ENDBRANCH  26  27
BRANCH  25  29
ATOM     29  O   UNL     1       8.443   4.815  25.714  0.00  0.00    -0.386 OA
ATOM     30  H   UNL     1       8.715   3.980  25.294  0.00  0.00    +0.210 HD
ENDBRANCH  25  29
BRANCH  24  31
ATOM     31  O   UNL     1       5.601   6.903  24.702  0.00  0.00    -0.386 OA
ATOM     32  H   UNL     1       5.283   6.325  23.984  0.00  0.00    +0.210 HD
ENDBRANCH  24  31
BRANCH  23  33
ATOM     33  C   UNL     1       9.301   6.749  23.752  0.00  0.00    +0.190 C 
BRANCH  33  34
ATOM     34  O   UNL     1       9.835   5.685  22.969  0.00  0.00    -0.392 OA
ATOM     35  H   UNL     1      10.696   5.979  22.621  0.00  0.00    +0.210 HD
ENDBRANCH  33  34
ENDBRANCH  23  33
ENDBRANCH  20  21
ENDBRANCH  16  20
ENDBRANCH   1  13
BRANCH  11  36
ATOM     36  O   UNL     1       9.223  -0.925  26.430  0.00  0.00    -0.501 OA
ATOM     37  H   UNL     1       9.529  -1.399  27.223  0.00  0.00    +0.292 HD
ENDBRANCH  11  36
BRANCH   5  38
ATOM     38  O   UNL     1       7.828  -5.898  26.969  0.00  0.00    -0.506 OA
ATOM     39  H   UNL     1       7.991  -5.228  27.671  0.00  0.00    +0.292 HD
ENDBRANCH   5  38
BRANCH   7  40
ATOM     40  O   UNL     1       3.973  -6.200  24.177  0.00  0.00    -0.461 OA
BRANCH  40  41
ATOM     41  C   UNL     1       3.530  -7.199  25.136  0.00  0.00    +0.339 C 
ATOM     42  O   UNL     1       3.076  -8.395  24.496  0.00  0.00    -0.331 OA
ATOM     43  C   UNL     1       1.667  -8.647  24.398  0.00  0.00    +0.179 C 
ATOM     44  C   UNL     1       0.924  -8.359  25.707  0.00  0.00    +0.177 C 
ATOM     45  C   UNL     1       1.147  -6.913  26.152  0.00  0.00    +0.180 C 
ATOM     46  C   UNL     1       2.647  -6.622  26.277  0.00  0.00    +0.214 C 
BRANCH  46  47
ATOM     47  O   UNL     1       3.079  -7.224  27.527  0.00  0.00    -0.383 OA
ATOM     48  H   UNL     1       2.259  -7.491  28.000  0.00  0.00    +0.210 HD
ENDBRANCH  46  47
BRANCH  45  49
ATOM     49  O   UNL     1       0.450  -6.018  25.290  0.00  0.00    -0.386 OA
ATOM     50  H   UNL     1       0.810  -5.119  25.387  0.00  0.00    +0.210 HD
ENDBRANCH  45  49
BRANCH  44  51
ATOM     51  O   UNL     1       1.428  -9.252  26.718  0.00  0.00    -0.386 OA
ATOM     52  H   UNL     1       1.734 -10.060  26.268  0.00  0.00    +0.210 HD
ENDBRANCH  44  51
BRANCH  43  53
ATOM     53  C   UNL     1       1.064  -7.959  23.166  0.00  0.00    +0.190 C 
BRANCH  53  54
ATOM     54  O   UNL     1       2.090  -7.683  22.212  0.00  0.00    -0.392 OA
ATOM     55  H   UNL     1       1.773  -6.930  21.677  0.00  0.00    +0.210 HD
ENDBRANCH  53  54
ENDBRANCH  43  53
ENDBRANCH  40  41
ENDBRANCH   7  40
TORSDOF 18
ENDMDL
MODEL 2
REMARK VINA RESULT:      -7.0      1.831      2.175
REMARK  Name = 
REMARK  18 active torsions:
REMARK  status: ('A' for Active; 'I' for Inactive)
REMARK    1  A    between atoms: C_3  and  O_38
REMARK    2  A    between atoms: C_4  and  O_37
REMARK    3  A    between atoms: C_6  and  C_7
REMARK    4  A    between atoms: C_8  and  O_36
REMARK    5  A    between atoms: C_12  and  O_35
REMARK    6  A    between atoms: C_14  and  O_18
REMARK    7  A    between atoms: O_18  and  C_19
REMARK    8  A    between atoms: C_21  and  O_34
REMARK    9  A    between atoms: C_23  and  O_33
REMARK   10  A    between atoms: C_25  and  O_32
REMARK   11  A    between atoms: C_27  and  C_30
REMARK   12  A    between atoms: C_30  and  O_31
REMARK   13  A    between atoms: O_38  and  C_39
REMARK   14  A    between atoms: C_41  and  O_54
REMARK   15  A    between atoms: C_43  and  O_53
REMARK   16  A    between atoms: C_45  and  O_52
REMARK   17  A    between atoms: C_47  and  C_50
REMARK   18  A    between atoms: C_50  and  O_51
REMARK                            x       y       z     vdW  Elec       q    Type
REMARK                         _______ _______ _______ _____ _____    ______ ____
ROOT
ATOM      1  C   UNL     1       8.008  -0.835  23.425  0.00  0.00    +0.181 A 
ATOM      2  O   UNL     1       6.790  -1.421  23.034  0.00  0.00    -0.451 OA
ATOM      3  C   UNL     1       6.642  -2.788  23.083  0.00  0.00    +0.147 A 
ATOM      4  C   UNL     1       7.712  -3.619  23.383  0.00  0.00    +0.109 A 
ATOM      5  C   UNL     1       7.558  -4.999  23.323  0.00  0.00    +0.135 A 
ATOM      6  C   UNL     1       6.328  -5.555  23.003  0.00  0.00    +0.092 A 
ATOM      7  C   UNL     1       5.194  -4.745  22.859  0.00  0.00    +0.131 A 
ATOM      8  C   UNL     1       8.984  -3.027  23.798  0.00  0.00    +0.238 A 
ATOM      9  O   UNL     1       9.925  -3.761  24.110  0.00  0.00    -0.283 OA
ATOM     10  C   UNL     1       5.368  -3.348  22.833  0.00  0.00    +0.093 A 
ATOM     11  C   UNL     1       9.065  -1.553  23.869  0.00  0.00    +0.208 A 
ENDROOT
BRANCH   1  13
ATOM     12  C   UNL     1       8.011   1.229  22.041  0.00  0.00    +0.015 A 
ATOM     13  C   UNL     1       8.005   0.659  23.318  0.00  0.00    +0.025 A 
ATOM     14  C   UNL     1       8.070   1.541  24.410  0.00  0.00    +0.060 A 
ATOM     15  C   UNL     1       8.049   2.923  24.230  0.00  0.00    +0.159 A 
ATOM     16  C   UNL     1       7.999   3.493  22.952  0.00  0.00    +0.165 A 
ATOM     17  C   UNL     1       8.054   2.615  21.867  0.00  0.00    +0.050 A 
BRANCH  15  18
ATOM     18  O   UNL     1       8.065   3.718  25.348  0.00  0.00    -0.503 OA
ATOM     19  H   UNL     1       7.908   4.629  25.040  0.00  0.00    +0.292 HD
ENDBRANCH  15  18
BRANCH  16  20
ATOM     20  O   UNL     1       7.879   4.868  22.838  0.00  0.00    -0.457 OA
BRANCH  20  21
ATOM     21  C   UNL     1       6.524   5.304  22.556  0.00  0.00    +0.339 C 
ATOM     22  O   UNL     1       6.333   6.674  22.899  0.00  0.00    -0.331 OA
ATOM     23  C   UNL     1       5.469   7.025  23.980  0.00  0.00    +0.179 C 
ATOM     24  C   UNL     1       4.193   6.170  24.013  0.00  0.00    +0.177 C 
ATOM     25  C   UNL     1       4.556   4.691  24.158  0.00  0.00    +0.180 C 
ATOM     26  C   UNL     1       5.455   4.263  22.992  0.00  0.00    +0.214 C 
BRANCH  26  27
ATOM     27  O   UNL     1       4.569   4.035  21.863  0.00  0.00    -0.383 OA
ATOM     28  H   UNL     1       3.861   4.716  21.933  0.00  0.00    +0.210 HD
ENDBRANCH  26  27
BRANCH  25  29
ATOM     29  O   UNL     1       5.124   4.448  25.441  0.00  0.00    -0.386 OA
ATOM     30  H   UNL     1       5.229   3.488  25.567  0.00  0.00    +0.210 HD
ENDBRANCH  25  29
BRANCH  24  31
ATOM     31  O   UNL     1       3.472   6.356  22.778  0.00  0.00    -0.386 OA
ATOM     32  H   UNL     1       3.306   5.471  22.405  0.00  0.00    +0.210 HD
ENDBRANCH  24  31
BRANCH  23  33
ATOM     33  C   UNL     1       6.233   7.108  25.312  0.00  0.00    +0.190 C 
BRANCH  33  34
ATOM     34  O   UNL     1       7.516   6.494  25.216  0.00  0.00    -0.392 OA
ATOM     35  H   UNL     1       7.749   6.159  26.101  0.00  0.00    +0.210 HD
ENDBRANCH  33  34
ENDBRANCH  23  33
ENDBRANCH  20  21
ENDBRANCH  16  20
ENDBRANCH   1  13
BRANCH  11  36
ATOM     36  O   UNL     1      10.225  -1.030  24.405  0.00  0.00    -0.501 OA
ATOM     37  H   UNL     1      10.945  -1.672  24.282  0.00  0.00    +0.292 HD
ENDBRANCH  11  36
BRANCH   5  38
ATOM     38  O   UNL     1       8.563  -5.885  23.607  0.00  0.00    -0.506 OA
ATOM     39  H   UNL     1       9.010  -5.583  24.431  0.00  0.00    +0.292 HD
ENDBRANCH   5  38
BRANCH   7  40
ATOM     40  O   UNL     1       3.907  -5.262  22.781  0.00  0.00    -0.461 OA
BRANCH  40  41
ATOM     41  C   UNL     1       3.673  -6.384  23.676  0.00  0.00    +0.339 C 
ATOM     42  O   UNL     1       2.514  -7.134  23.307  0.00  0.00    -0.331 OA
ATOM     43  C   UNL     1       1.306  -6.976  24.063  0.00  0.00    +0.179 C 
ATOM     44  C   UNL     1       1.551  -6.976  25.575  0.00  0.00    +0.177 C 
ATOM     45  C   UNL     1       2.537  -5.874  25.965  0.00  0.00    +0.180 C 
ATOM     46  C   UNL     1       3.844  -6.029  25.179  0.00  0.00    +0.214 C 
BRANCH  46  47
ATOM     47  O   UNL     1       4.579  -7.109  25.815  0.00  0.00    -0.383 OA
ATOM     48  H   UNL     1       4.677  -7.813  25.135  0.00  0.00    +0.210 HD
ENDBRANCH  46  47
BRANCH  45  49
ATOM     49  O   UNL     1       1.926  -4.595  25.832  0.00  0.00    -0.386 OA
ATOM     50  H   UNL     1       0.975  -4.700  25.652  0.00  0.00    +0.210 HD
ENDBRANCH  45  49
BRANCH  44  51
ATOM     51  O   UNL     1       2.098  -8.256  25.945  0.00  0.00    -0.386 OA
ATOM     52  H   UNL     1       2.991  -8.315  25.557  0.00  0.00    +0.210 HD
ENDBRANCH  44  51
BRANCH  43  53
ATOM     53  C   UNL     1       0.486  -5.782  23.557  0.00  0.00    +0.190 C 
BRANCH  53  54
ATOM     54  O   UNL     1       0.844  -5.483  22.207  0.00  0.00    -0.392 OA
ATOM     55  H   UNL     1       0.884  -4.509  22.143  0.00  0.00    +0.210 HD
ENDBRANCH  53  54
ENDBRANCH  43  53
ENDBRANCH  40  41
ENDBRANCH   7  40
TORSDOF 18
ENDMDL
MODEL 3
REMARK VINA RESULT:      -7.0      1.541      2.216
REMARK  Name = 
REMARK  18 active torsions:
REMARK  status: ('A' for Active; 'I' for Inactive)
REMARK    1  A    between atoms: C_3  and  O_38
REMARK    2  A    between atoms: C_4  and  O_37
REMARK    3  A    between atoms: C_6  and  C_7
REMARK    4  A    between atoms: C_8  and  O_36
REMARK    5  A    between atoms: C_12  and  O_35
REMARK    6  A    between atoms: C_14  and  O_18
REMARK    7  A    between atoms: O_18  and  C_19
REMARK    8  A    between atoms: C_21  and  O_34
REMARK    9  A    between atoms: C_23  and  O_33
REMARK   10  A    between atoms: C_25  and  O_32
REMARK   11  A    between atoms: C_27  and  C_30
REMARK   12  A    between atoms: C_30  and  O_31
REMARK   13  A    between atoms: O_38  and  C_39
REMARK   14  A    between atoms: C_41  and  O_54
REMARK   15  A    between atoms: C_43  and  O_53
REMARK   16  A    between atoms: C_45  and  O_52
REMARK   17  A    between atoms: C_47  and  C_50
REMARK   18  A    between atoms: C_50  and  O_51
REMARK                            x       y       z     vdW  Elec       q    Type
REMARK                         _______ _______ _______ _____ _____    ______ ____
ROOT
ATOM      1  C   UNL     1       6.843  -0.960  23.867  0.00  0.00    +0.181 A 
ATOM      2  O   UNL     1       5.772  -1.807  23.524  0.00  0.00    -0.451 OA
ATOM      3  C   UNL     1       5.974  -3.166  23.450  0.00  0.00    +0.147 A 
ATOM      4  C   UNL     1       7.242  -3.715  23.575  0.00  0.00    +0.109 A 
ATOM      5  C   UNL     1       7.429  -5.081  23.392  0.00  0.00    +0.135 A 
ATOM      6  C   UNL     1       6.349  -5.907  23.123  0.00  0.00    +0.092 A 
ATOM      7  C   UNL     1       5.040  -5.407  23.156  0.00  0.00    +0.131 A 
ATOM      8  C   UNL     1       8.364  -2.850  23.937  0.00  0.00    +0.238 A 
ATOM      9  O   UNL     1       9.486  -3.339  24.094  0.00  0.00    -0.283 OA
ATOM     10  C   UNL     1       4.860  -4.014  23.254  0.00  0.00    +0.093 A 
ATOM     11  C   UNL     1       8.086  -1.414  24.148  0.00  0.00    +0.208 A 
ENDROOT
BRANCH   1  13
ATOM     12  C   UNL     1       5.956   1.001  25.109  0.00  0.00    +0.015 A 
ATOM     13  C   UNL     1       6.458   0.488  23.910  0.00  0.00    +0.025 A 
ATOM     14  C   UNL     1       6.492   1.359  22.808  0.00  0.00    +0.060 A 
ATOM     15  C   UNL     1       6.130   2.699  22.930  0.00  0.00    +0.159 A 
ATOM     16  C   UNL     1       5.681   3.227  24.146  0.00  0.00    +0.165 A 
ATOM     17  C   UNL     1       5.535   2.331  25.208  0.00  0.00    +0.050 A 
BRANCH  15  18
ATOM     18  O   UNL     1       6.238   3.499  21.821  0.00  0.00    -0.503 OA
ATOM     19  H   UNL     1       5.348   3.858  21.653  0.00  0.00    +0.292 HD
ENDBRANCH  15  18
BRANCH  16  20
ATOM     20  O   UNL     1       5.430   4.587  24.234  0.00  0.00    -0.457 OA
BRANCH  20  21
ATOM     21  C   UNL     1       6.529   5.336  24.812  0.00  0.00    +0.339 C 
ATOM     22  O   UNL     1       6.610   6.651  24.268  0.00  0.00    -0.331 OA
ATOM     23  C   UNL     1       7.719   7.016  23.447  0.00  0.00    +0.179 C 
ATOM     24  C   UNL     1       9.049   6.457  23.975  0.00  0.00    +0.177 C 
ATOM     25  C   UNL     1       8.988   4.929  24.035  0.00  0.00    +0.180 C 
ATOM     26  C   UNL     1       7.830   4.494  24.940  0.00  0.00    +0.214 C 
BRANCH  26  27
ATOM     27  O   UNL     1       8.312   4.625  26.304  0.00  0.00    -0.383 OA
ATOM     28  H   UNL     1       7.516   4.804  26.856  0.00  0.00    +0.210 HD
ENDBRANCH  26  27
BRANCH  25  29
ATOM     29  O   UNL     1       8.925   4.388  22.720  0.00  0.00    -0.386 OA
ATOM     30  H   UNL     1       9.523   3.621  22.661  0.00  0.00    +0.210 HD
ENDBRANCH  25  29
BRANCH  24  31
ATOM     31  O   UNL     1       9.279   6.969  25.303  0.00  0.00    -0.386 OA
ATOM     32  H   UNL     1      10.185   7.331  25.319  0.00  0.00    +0.210 HD
ENDBRANCH  24  31
BRANCH  23  33
ATOM     33  C   UNL     1       7.439   6.741  21.960  0.00  0.00    +0.190 C 
BRANCH  33  34
ATOM     34  O   UNL     1       6.078   6.378  21.745  0.00  0.00    -0.392 OA
ATOM     35  H   UNL     1       5.636   6.365  22.614  0.00  0.00    +0.210 HD
ENDBRANCH  33  34
ENDBRANCH  23  33
ENDBRANCH  20  21
ENDBRANCH  16  20
ENDBRANCH   1  13
BRANCH  11  36
ATOM     36  O   UNL     1       9.130  -0.653  24.633  0.00  0.00    -0.501 OA
ATOM     37  H   UNL     1       8.772   0.027  25.229  0.00  0.00    +0.292 HD
ENDBRANCH  11  36
BRANCH   5  38
ATOM     38  O   UNL     1       8.647  -5.698  23.501  0.00  0.00    -0.506 OA
ATOM     39  H   UNL     1       9.309  -5.019  23.765  0.00  0.00    +0.292 HD
ENDBRANCH   5  38
BRANCH   7  40
ATOM     40  O   UNL     1       3.921  -6.229  23.136  0.00  0.00    -0.461 OA
BRANCH  40  41
ATOM     41  C   UNL     1       3.667  -6.900  24.400  0.00  0.00    +0.339 C 
ATOM     42  O   UNL     1       3.124  -8.210  24.215  0.00  0.00    -0.331 OA
ATOM     43  C   UNL     1       1.724  -8.427  24.437  0.00  0.00    +0.179 C 
ATOM     44  C   UNL     1       1.218  -7.755  25.717  0.00  0.00    +0.177 C 
ATOM     45  C   UNL     1       1.496  -6.251  25.687  0.00  0.00    +0.180 C 
ATOM     46  C   UNL     1       2.990  -5.992  25.464  0.00  0.00    +0.214 C 
BRANCH  46  47
ATOM     47  O   UNL     1       3.643  -6.232  26.740  0.00  0.00    -0.383 OA
ATOM     48  H   UNL     1       3.829  -5.346  27.125  0.00  0.00    +0.210 HD
ENDBRANCH  46  47
BRANCH  45  49
ATOM     49  O   UNL     1       0.646  -5.611  24.741  0.00  0.00    -0.386 OA
ATOM     50  H   UNL     1      -0.025  -5.080  25.205  0.00  0.00    +0.210 HD
ENDBRANCH  45  49
BRANCH  44  51
ATOM     51  O   UNL     1       1.904  -8.343  26.838  0.00  0.00    -0.386 OA
ATOM     52  H   UNL     1       1.226  -8.722  27.429  0.00  0.00    +0.210 HD
ENDBRANCH  44  51
BRANCH  43  53
ATOM     53  C   UNL     1       0.905  -8.094  23.183  0.00  0.00    +0.190 C 
BRANCH  53  54
ATOM     54  O   UNL     1       1.597  -8.541  22.017  0.00  0.00    -0.392 OA
ATOM     55  H   UNL     1       1.448  -9.504  21.961  0.00  0.00    +0.210 HD
ENDBRANCH  53  54
ENDBRANCH  43  53
ENDBRANCH  40  41
ENDBRANCH   7  40
TORSDOF 18
ENDMDL
MODEL 4
REMARK VINA RESULT:      -7.0      2.184      3.457
REMARK  Name = 
REMARK  18 active torsions:
REMARK  status: ('A' for Active; 'I' for Inactive)
REMARK    1  A    between atoms: C_3  and  O_38
REMARK    2  A    between atoms: C_4  and  O_37
REMARK    3  A    between atoms: C_6  and  C_7
REMARK    4  A    between atoms: C_8  and  O_36
REMARK    5  A    between atoms: C_12  and  O_35
REMARK    6  A    between atoms: C_14  and  O_18
REMARK    7  A    between atoms: O_18  and  C_19
REMARK    8  A    between atoms: C_21  and  O_34
REMARK    9  A    between atoms: C_23  and  O_33
REMARK   10  A    between atoms: C_25  and  O_32
REMARK   11  A    between atoms: C_27  and  C_30
REMARK   12  A    between atoms: C_30  and  O_31
REMARK   13  A    between atoms: O_38  and  C_39
REMARK   14  A    between atoms: C_41  and  O_54
REMARK   15  A    between atoms: C_43  and  O_53
REMARK   16  A    between atoms: C_45  and  O_52
REMARK   17  A    between atoms: C_47  and  C_50
REMARK   18  A    between atoms: C_50  and  O_51
REMARK                            x       y       z     vdW  Elec       q    Type
REMARK                         _______ _______ _______ _____ _____    ______ ____
ROOT
ATOM      1  C   UNL     1       7.019  -1.912  23.321  0.00  0.00    +0.181 A 
ATOM      2  O   UNL     1       5.818  -2.164  24.011  0.00  0.00    -0.451 OA
ATOM      3  C   UNL     1       5.200  -3.386  23.883  0.00  0.00    +0.147 A 
ATOM      4  C   UNL     1       5.662  -4.337  22.984  0.00  0.00    +0.109 A 
ATOM      5  C   UNL     1       4.956  -5.522  22.802  0.00  0.00    +0.135 A 
ATOM      6  C   UNL     1       3.813  -5.778  23.544  0.00  0.00    +0.092 A 
ATOM      7  C   UNL     1       3.419  -4.912  24.573  0.00  0.00    +0.131 A 
ATOM      8  C   UNL     1       6.912  -4.095  22.264  0.00  0.00    +0.238 A 
ATOM      9  O   UNL     1       7.351  -4.956  21.498  0.00  0.00    -0.283 OA
ATOM     10  C   UNL     1       4.081  -3.676  24.697  0.00  0.00    +0.093 A 
ATOM     11  C   UNL     1       7.625  -2.828  22.532  0.00  0.00    +0.208 A 
ENDROOT
BRANCH   1  13
ATOM     12  C   UNL     1       7.577  -0.063  24.884  0.00  0.00    +0.015 A 
ATOM     13  C   UNL     1       7.565  -0.539  23.570  0.00  0.00    +0.025 A 
ATOM     14  C   UNL     1       8.002   0.343  22.568  0.00  0.00    +0.060 A 
ATOM     15  C   UNL     1       8.510   1.603  22.881  0.00  0.00    +0.159 A 
ATOM     16  C   UNL     1       8.574   2.058  24.203  0.00  0.00    +0.165 A 
ATOM     17  C   UNL     1       8.030   1.226  25.184  0.00  0.00    +0.050 A 
BRANCH  15  18
ATOM     18  O   UNL     1       8.964   2.388  21.851  0.00  0.00    -0.503 OA
ATOM     19  H   UNL     1       8.937   3.307  22.173  0.00  0.00    +0.292 HD
ENDBRANCH  15  18
BRANCH  16  20
ATOM     20  O   UNL     1       9.180   3.276  24.463  0.00  0.00    -0.457 OA
BRANCH  20  21
ATOM     21  C   UNL     1       8.272   4.261  25.019  0.00  0.00    +0.339 C 
ATOM     22  O   UNL     1       7.055   4.328  24.279  0.00  0.00    -0.331 OA
ATOM     23  C   UNL     1       6.742   5.498  23.525  0.00  0.00    +0.179 C 
ATOM     24  C   UNL     1       7.114   6.791  24.266  0.00  0.00    +0.177 C 
ATOM     25  C   UNL     1       8.614   6.810  24.567  0.00  0.00    +0.180 C 
ATOM     26  C   UNL     1       8.987   5.585  25.411  0.00  0.00    +0.214 C 
BRANCH  26  27
ATOM     27  O   UNL     1       8.609   5.906  26.777  0.00  0.00    -0.383 OA
ATOM     28  H   UNL     1       7.629   6.006  26.770  0.00  0.00    +0.210 HD
ENDBRANCH  26  27
BRANCH  25  29
ATOM     29  O   UNL     1       9.357   6.922  23.358  0.00  0.00    -0.386 OA
ATOM     30  H   UNL     1      10.258   6.583  23.504  0.00  0.00    +0.210 HD
ENDBRANCH  25  29
BRANCH  24  31
ATOM     31  O   UNL     1       6.386   6.845  25.509  0.00  0.00    -0.386 OA
ATOM     32  H   UNL     1       5.722   6.130  25.486  0.00  0.00    +0.210 HD
ENDBRANCH  24  31
BRANCH  23  33
ATOM     33  C   UNL     1       7.265   5.399  22.082  0.00  0.00    +0.190 C 
BRANCH  33  34
ATOM     34  O   UNL     1       7.096   6.629  21.381  0.00  0.00    -0.392 OA
ATOM     35  H   UNL     1       6.189   6.942  21.551  0.00  0.00    +0.210 HD
ENDBRANCH  33  34
ENDBRANCH  23  33
ENDBRANCH  20  21
ENDBRANCH  16  20
ENDBRANCH   1  13
BRANCH  11  36
ATOM     36  O   UNL     1       8.872  -2.695  21.954  0.00  0.00    -0.501 OA
ATOM     37  H   UNL     1       9.393  -2.060  22.475  0.00  0.00    +0.292 HD
ENDBRANCH  11  36
BRANCH   5  38
ATOM     38  O   UNL     1       5.347  -6.509  21.938  0.00  0.00    -0.506 OA
ATOM     39  H   UNL     1       4.545  -6.842  21.474  0.00  0.00    +0.292 HD
ENDBRANCH   5  38
BRANCH   7  40
ATOM     40  O   UNL     1       2.434  -5.242  25.496  0.00  0.00    -0.461 OA
BRANCH  40  41
ATOM     41  C   UNL     1       2.827  -6.295  26.418  0.00  0.00    +0.339 C 
ATOM     42  O   UNL     1       1.746  -6.704  27.259  0.00  0.00    -0.331 OA
ATOM     43  C   UNL     1       1.713  -6.264  28.623  0.00  0.00    +0.179 C 
ATOM     44  C   UNL     1       3.076  -6.381  29.315  0.00  0.00    +0.177 C 
ATOM     45  C   UNL     1       4.140  -5.589  28.555  0.00  0.00    +0.180 C 
ATOM     46  C   UNL     1       4.204  -6.050  27.094  0.00  0.00    +0.214 C 
BRANCH  46  47
ATOM     47  O   UNL     1       4.935  -7.306  27.093  0.00  0.00    -0.383 OA
ATOM     48  H   UNL     1       5.389  -7.361  27.964  0.00  0.00    +0.210 HD
ENDBRANCH  46  47
BRANCH  45  49
ATOM     49  O   UNL     1       3.922  -4.190  28.714  0.00  0.00    -0.386 OA
ATOM     50  H   UNL     1       2.967  -4.008  28.763  0.00  0.00    +0.210 HD
ENDBRANCH  45  49
BRANCH  44  51
ATOM     51  O   UNL     1       3.449  -7.772  29.344  0.00  0.00    -0.386 OA
ATOM     52  H   UNL     1       3.920  -7.930  30.184  0.00  0.00    +0.210 HD
ENDBRANCH  44  51
BRANCH  43  53
ATOM     53  C   UNL     1       1.062  -4.880  28.745  0.00  0.00    +0.190 C 
BRANCH  53  54
ATOM     54  O   UNL     1       1.233  -4.377  30.071  0.00  0.00    -0.392 OA
ATOM     55  H   UNL     1       1.536  -5.129  30.614  0.00  0.00    +0.210 HD
ENDBRANCH  53  54
ENDBRANCH  43  53
ENDBRANCH  40  41
ENDBRANCH   7  40
TORSDOF 18
ENDMDL
MODEL 5
REMARK VINA RESULT:      -6.9      1.888      2.790
REMARK  Name = 
REMARK  18 active torsions:
REMARK  status: ('A' for Active; 'I' for Inactive)
REMARK    1  A    between atoms: C_3  and  O_38
REMARK    2  A    between atoms: C_4  and  O_37
REMARK    3  A    between atoms: C_6  and  C_7
REMARK    4  A    between atoms: C_8  and  O_36
REMARK    5  A    between atoms: C_12  and  O_35
REMARK    6  A    between atoms: C_14  and  O_18
REMARK    7  A    between atoms: O_18  and  C_19
REMARK    8  A    between atoms: C_21  and  O_34
REMARK    9  A    between atoms: C_23  and  O_33
REMARK   10  A    between atoms: C_25  and  O_32
REMARK   11  A    between atoms: C_27  and  C_30
REMARK   12  A    between atoms: C_30  and  O_31
REMARK   13  A    between atoms: O_38  and  C_39
REMARK   14  A    between atoms: C_41  and  O_54
REMARK   15  A    between atoms: C_43  and  O_53
REMARK   16  A    between atoms: C_45  and  O_52
REMARK   17  A    between atoms: C_47  and  C_50
REMARK   18  A    between atoms: C_50  and  O_51
REMARK                            x       y       z     vdW  Elec       q    Type
REMARK                         _______ _______ _______ _____ _____    ______ ____
ROOT
ATOM      1  C   UNL     1       8.338  -1.253  24.368  0.00  0.00    +0.181 A 
ATOM      2  O   UNL     1       7.267  -1.569  25.225  0.00  0.00    -0.451 OA
ATOM      3  C   UNL     1       7.241  -2.787  25.864  0.00  0.00    +0.147 A 
ATOM      4  C   UNL     1       8.178  -3.770  25.582  0.00  0.00    +0.109 A 
ATOM      5  C   UNL     1       8.064  -5.027  26.167  0.00  0.00    +0.135 A 
ATOM      6  C   UNL     1       7.040  -5.294  27.063  0.00  0.00    +0.092 A 
ATOM      7  C   UNL     1       6.181  -4.274  27.491  0.00  0.00    +0.131 A 
ATOM      8  C   UNL     1       9.301  -3.457  24.699  0.00  0.00    +0.238 A 
ATOM      9  O   UNL     1      10.162  -4.312  24.480  0.00  0.00    -0.283 OA
ATOM     10  C   UNL     1       6.242  -3.029  26.835  0.00  0.00    +0.093 A 
ATOM     11  C   UNL     1       9.375  -2.091  24.139  0.00  0.00    +0.208 A 
ENDROOT
BRANCH   1  13
ATOM     12  C   UNL     1       7.136   0.361  22.910  0.00  0.00    +0.015 A 
ATOM     13  C   UNL     1       8.220   0.109  23.756  0.00  0.00    +0.025 A 
ATOM     14  C   UNL     1       9.162   1.141  23.909  0.00  0.00    +0.060 A 
ATOM     15  C   UNL     1       8.975   2.389  23.317  0.00  0.00    +0.159 A 
ATOM     16  C   UNL     1       7.860   2.657  22.514  0.00  0.00    +0.165 A 
ATOM     17  C   UNL     1       6.988   1.594  22.269  0.00  0.00    +0.050 A 
BRANCH  15  18
ATOM     18  O   UNL     1       9.914   3.361  23.554  0.00  0.00    -0.503 OA
ATOM     19  H   UNL     1       9.732   3.706  24.447  0.00  0.00    +0.292 HD
ENDBRANCH  15  18
BRANCH  16  20
ATOM     20  O   UNL     1       7.675   3.944  22.035  0.00  0.00    -0.457 OA
BRANCH  20  21
ATOM     21  C   UNL     1       6.713   4.710  22.804  0.00  0.00    +0.339 C 
ATOM     22  O   UNL     1       6.914   6.112  22.648  0.00  0.00    -0.331 OA
ATOM     23  C   UNL     1       7.363   6.896  23.754  0.00  0.00    +0.179 C 
ATOM     24  C   UNL     1       6.692   6.486  25.074  0.00  0.00    +0.177 C 
ATOM     25  C   UNL     1       6.993   5.018  25.381  0.00  0.00    +0.180 C 
ATOM     26  C   UNL     1       6.491   4.136  24.232  0.00  0.00    +0.214 C 
BRANCH  26  27
ATOM     27  O   UNL     1       5.060   3.986  24.434  0.00  0.00    -0.383 OA
ATOM     28  H   UNL     1       4.930   3.915  25.408  0.00  0.00    +0.210 HD
ENDBRANCH  26  27
BRANCH  25  29
ATOM     29  O   UNL     1       8.377   4.850  25.672  0.00  0.00    -0.386 OA
ATOM     30  H   UNL     1       8.470   4.288  26.463  0.00  0.00    +0.210 HD
ENDBRANCH  25  29
BRANCH  24  31
ATOM     31  O   UNL     1       5.267   6.656  24.947  0.00  0.00    -0.386 OA
ATOM     32  H   UNL     1       4.850   5.826  25.248  0.00  0.00    +0.210 HD
ENDBRANCH  24  31
BRANCH  23  33
ATOM     33  C   UNL     1       8.898   6.983  23.801  0.00  0.00    +0.190 C 
BRANCH  33  34
ATOM     34  O   UNL     1       9.499   6.090  22.867  0.00  0.00    -0.392 OA
ATOM     35  H   UNL     1       8.819   5.449  22.592  0.00  0.00    +0.210 HD
ENDBRANCH  33  34
ENDBRANCH  23  33
ENDBRANCH  20  21
ENDBRANCH  16  20
ENDBRANCH   1  13
BRANCH  11  36
ATOM     36  O   UNL     1      10.520  -1.781  23.433  0.00  0.00    -0.501 OA
ATOM     37  H   UNL     1      11.064  -1.176  23.966  0.00  0.00    +0.292 HD
ENDBRANCH  11  36
BRANCH   5  38
ATOM     38  O   UNL     1       8.949  -6.048  25.942  0.00  0.00    -0.506 OA
ATOM     39  H   UNL     1       8.877  -6.683  26.691  0.00  0.00    +0.292 HD
ENDBRANCH   5  38
BRANCH   7  40
ATOM     40  O   UNL     1       5.304  -4.428  28.557  0.00  0.00    -0.461 OA
BRANCH  40  41
ATOM     41  C   UNL     1       3.903  -4.340  28.179  0.00  0.00    +0.339 C 
ATOM     42  O   UNL     1       3.032  -4.696  29.255  0.00  0.00    -0.331 OA
ATOM     43  C   UNL     1       2.396  -5.982  29.247  0.00  0.00    +0.179 C 
ATOM     44  C   UNL     1       1.818  -6.346  27.876  0.00  0.00    +0.177 C 
ATOM     45  C   UNL     1       2.907  -6.316  26.802  0.00  0.00    +0.180 C 
ATOM     46  C   UNL     1       3.595  -4.946  26.782  0.00  0.00    +0.214 C 
BRANCH  46  47
ATOM     47  O   UNL     1       2.689  -4.044  26.091  0.00  0.00    -0.383 OA
ATOM     48  H   UNL     1       2.140  -4.605  25.500  0.00  0.00    +0.210 HD
ENDBRANCH  46  47
BRANCH  45  49
ATOM     49  O   UNL     1       3.799  -7.413  26.974  0.00  0.00    -0.386 OA
ATOM     50  H   UNL     1       3.518  -8.158  26.415  0.00  0.00    +0.210 HD
ENDBRANCH  45  49
BRANCH  44  51
ATOM     51  O   UNL     1       0.798  -5.385  27.545  0.00  0.00    -0.386 OA
ATOM     52  H   UNL     1       0.475  -5.002  28.382  0.00  0.00    +0.210 HD
ENDBRANCH  44  51
BRANCH  43  53
ATOM     53  C   UNL     1       3.307  -7.057  29.853  0.00  0.00    +0.190 C 
BRANCH  53  54
ATOM     54  O   UNL     1       2.751  -8.352  29.623  0.00  0.00    -0.392 OA
ATOM     55  H   UNL     1       2.663  -8.446  28.655  0.00  0.00    +0.210 HD
ENDBRANCH  53  54
ENDBRANCH  43  53
ENDBRANCH  40  41
ENDBRANCH   7  40
TORSDOF 18
ENDMDL
MODEL 6
REMARK VINA RESULT:      -6.9      1.741     11.102
REMARK  Name = 
REMARK  18 active torsions:
REMARK  status: ('A' for Active; 'I' for Inactive)
REMARK    1  A    between atoms: C_3  and  O_38
REMARK    2  A    between atoms: C_4  and  O_37
REMARK    3  A    between atoms: C_6  and  C_7
REMARK    4  A    between atoms: C_8  and  O_36
REMARK    5  A    between atoms: C_12  and  O_35
REMARK    6  A    between atoms: C_14  and  O_18
REMARK    7  A    between atoms: O_18  and  C_19
REMARK    8  A    between atoms: C_21  and  O_34
REMARK    9  A    between atoms: C_23  and  O_33
REMARK   10  A    between atoms: C_25  and  O_32
REMARK   11  A    between atoms: C_27  and  C_30
REMARK   12  A    between atoms: C_30  and  O_31
REMARK   13  A    between atoms: O_38  and  C_39
REMARK   14  A    between atoms: C_41  and  O_54
REMARK   15  A    between atoms: C_43  and  O_53
REMARK   16  A    between atoms: C_45  and  O_52
REMARK   17  A    between atoms: C_47  and  C_50
REMARK   18  A    between atoms: C_50  and  O_51
REMARK                            x       y       z     vdW  Elec       q    Type
REMARK                         _______ _______ _______ _____ _____    ______ ____
ROOT
ATOM      1  C   UNL     1       7.867  -2.182  23.418  0.00  0.00    +0.181 A 
ATOM      2  O   UNL     1       7.058  -1.069  23.124  0.00  0.00    -0.451 OA
ATOM      3  C   UNL     1       7.619   0.186  23.061  0.00  0.00    +0.147 A 
ATOM      4  C   UNL     1       8.944   0.401  23.414  0.00  0.00    +0.109 A 
ATOM      5  C   UNL     1       9.454   1.695  23.441  0.00  0.00    +0.135 A 
ATOM      6  C   UNL     1       8.658   2.771  23.079  0.00  0.00    +0.092 A 
ATOM      7  C   UNL     1       7.372   2.567  22.563  0.00  0.00    +0.131 A 
ATOM      8  C   UNL     1       9.801  -0.745  23.716  0.00  0.00    +0.238 A 
ATOM      9  O   UNL     1      10.991  -0.563  23.986  0.00  0.00    -0.283 OA
ATOM     10  C   UNL     1       6.827   1.269  22.617  0.00  0.00    +0.093 A 
ATOM     11  C   UNL     1       9.199  -2.093  23.636  0.00  0.00    +0.208 A 
ENDROOT
BRANCH   1  13
ATOM     12  C   UNL     1       6.877  -4.079  24.681  0.00  0.00    +0.015 A 
ATOM     13  C   UNL     1       7.106  -3.473  23.443  0.00  0.00    +0.025 A 
ATOM     14  C   UNL     1       6.665  -4.165  22.303  0.00  0.00    +0.060 A 
ATOM     15  C   UNL     1       5.949  -5.357  22.408  0.00  0.00    +0.159 A 
ATOM     16  C   UNL     1       5.671  -5.935  23.652  0.00  0.00    +0.165 A 
ATOM     17  C   UNL     1       6.213  -5.306  24.775  0.00  0.00    +0.050 A 
BRANCH  15  18
ATOM     18  O   UNL     1       5.509  -5.947  21.250  0.00  0.00    -0.503 OA
ATOM     19  H   UNL     1       6.188  -5.768  20.575  0.00  0.00    +0.292 HD
ENDBRANCH  15  18
BRANCH  16  20
ATOM     20  O   UNL     1       4.871  -7.065  23.700  0.00  0.00    -0.457 OA
BRANCH  20  21
ATOM     21  C   UNL     1       3.776  -6.952  24.645  0.00  0.00    +0.339 C 
ATOM     22  O   UNL     1       2.968  -8.126  24.653  0.00  0.00    -0.331 OA
ATOM     23  C   UNL     1       1.626  -8.072  24.169  0.00  0.00    +0.179 C 
ATOM     24  C   UNL     1       0.899  -6.789  24.598  0.00  0.00    +0.177 C 
ATOM     25  C   UNL     1       1.643  -5.562  24.068  0.00  0.00    +0.180 C 
ATOM     26  C   UNL     1       3.082  -5.561  24.597  0.00  0.00    +0.214 C 
BRANCH  26  27
ATOM     27  O   UNL     1       3.012  -5.052  25.956  0.00  0.00    -0.383 OA
ATOM     28  H   UNL     1       3.504  -5.699  26.512  0.00  0.00    +0.210 HD
ENDBRANCH  26  27
BRANCH  25  29
ATOM     29  O   UNL     1       1.553  -5.508  22.648  0.00  0.00    -0.386 OA
ATOM     30  H   UNL     1       2.445  -5.387  22.276  0.00  0.00    +0.210 HD
ENDBRANCH  25  29
BRANCH  24  31
ATOM     31  O   UNL     1       0.864  -6.729  26.038  0.00  0.00    -0.386 OA
ATOM     32  H   UNL     1       0.889  -5.786  26.288  0.00  0.00    +0.210 HD
ENDBRANCH  24  31
BRANCH  23  33
ATOM     33  C   UNL     1       1.552  -8.393  22.666  0.00  0.00    +0.190 C 
BRANCH  33  34
ATOM     34  O   UNL     1       0.444  -9.238  22.368  0.00  0.00    -0.392 OA
ATOM     35  H   UNL     1       0.113  -9.597  23.211  0.00  0.00    +0.210 HD
ENDBRANCH  33  34
ENDBRANCH  23  33
ENDBRANCH  20  21
ENDBRANCH  16  20
ENDBRANCH   1  13
BRANCH  11  36
ATOM     36  O   UNL     1      10.065  -3.159  23.780  0.00  0.00    -0.501 OA
ATOM     37  H   UNL     1      10.974  -2.846  23.637  0.00  0.00    +0.292 HD
ENDBRANCH  11  36
BRANCH   5  38
ATOM     38  O   UNL     1      10.749   1.990  23.775  0.00  0.00    -0.506 OA
ATOM     39  H   UNL     1      10.784   2.933  24.055  0.00  0.00    +0.292 HD
ENDBRANCH   5  38
BRANCH   7  40
ATOM     40  O   UNL     1       6.633   3.580  21.964  0.00  0.00    -0.461 OA
BRANCH  40  41
ATOM     41  C   UNL     1       5.636   4.172  22.841  0.00  0.00    +0.339 C 
ATOM     42  O   UNL     1       5.194   5.447  22.369  0.00  0.00    -0.331 OA
ATOM     43  C   UNL     1       5.678   6.637  23.007  0.00  0.00    +0.179 C 
ATOM     44  C   UNL     1       5.662   6.536  24.535  0.00  0.00    +0.177 C 
ATOM     45  C   UNL     1       6.489   5.340  25.009  0.00  0.00    +0.180 C 
ATOM     46  C   UNL     1       5.983   4.051  24.351  0.00  0.00    +0.214 C 
BRANCH  46  47
ATOM     47  O   UNL     1       4.772   3.677  25.061  0.00  0.00    -0.383 OA
ATOM     48  H   UNL     1       4.187   4.467  25.044  0.00  0.00    +0.210 HD
ENDBRANCH  46  47
BRANCH  45  49
ATOM     49  O   UNL     1       7.877   5.589  24.809  0.00  0.00    -0.386 OA
ATOM     50  H   UNL     1       7.995   6.391  24.271  0.00  0.00    +0.210 HD
ENDBRANCH  45  49
BRANCH  44  51
ATOM     51  O   UNL     1       4.297   6.371  24.964  0.00  0.00    -0.386 OA
ATOM     52  H   UNL     1       4.178   6.906  25.771  0.00  0.00    +0.210 HD
ENDBRANCH  44  51
BRANCH  43  53
ATOM     53  C   UNL     1       7.025   7.075  22.417  0.00  0.00    +0.190 C 
BRANCH  53  54
ATOM     54  O   UNL     1       7.327   6.292  21.261  0.00  0.00    -0.392 OA
ATOM     55  H   UNL     1       8.250   5.990  21.367  0.00  0.00    +0.210 HD
ENDBRANCH  53  54
ENDBRANCH  43  53
ENDBRANCH  40  41
ENDBRANCH   7  40
TORSDOF 18
ENDMDL
MODEL 7
REMARK VINA RESULT:      -6.9      1.825      2.943
REMARK  Name = 
REMARK  18 active torsions:
REMARK  status: ('A' for Active; 'I' for Inactive)
REMARK    1  A    between atoms: C_3  and  O_38
REMARK    2  A    between atoms: C_4  and  O_37
REMARK    3  A    between atoms: C_6  and  C_7
REMARK    4  A    between atoms: C_8  and  O_36
REMARK    5  A    between atoms: C_12  and  O_35
REMARK    6  A    between atoms: C_14  and  O_18
REMARK    7  A    between atoms: O_18  and  C_19
REMARK    8  A    between atoms: C_21  and  O_34
REMARK    9  A    between atoms: C_23  and  O_33
REMARK   10  A    between atoms: C_25  and  O_32
REMARK   11  A    between atoms: C_27  and  C_30
REMARK   12  A    between atoms: C_30  and  O_31
REMARK   13  A    between atoms: O_38  and  C_39
REMARK   14  A    between atoms: C_41  and  O_54
REMARK   15  A    between atoms: C_43  and  O_53
REMARK   16  A    between atoms: C_45  and  O_52
REMARK   17  A    between atoms: C_47  and  C_50
REMARK   18  A    between atoms: C_50  and  O_51
REMARK                            x       y       z     vdW  Elec       q    Type
REMARK                         _______ _______ _______ _____ _____    ______ ____
ROOT
ATOM      1  C   UNL     1       7.237  -2.312  23.815  0.00  0.00    +0.181 A 
ATOM      2  O   UNL     1       5.840  -2.485  23.830  0.00  0.00    -0.451 OA
ATOM      3  C   UNL     1       5.303  -3.727  23.583  0.00  0.00    +0.147 A 
ATOM      4  C   UNL     1       6.101  -4.792  23.187  0.00  0.00    +0.109 A 
ATOM      5  C   UNL     1       5.517  -6.007  22.844  0.00  0.00    +0.135 A 
ATOM      6  C   UNL     1       4.144  -6.176  22.933  0.00  0.00    +0.092 A 
ATOM      7  C   UNL     1       3.335  -5.174  23.486  0.00  0.00    +0.131 A 
ATOM      8  C   UNL     1       7.554  -4.631  23.172  0.00  0.00    +0.238 A 
ATOM      9  O   UNL     1       8.271  -5.587  22.865  0.00  0.00    -0.283 OA
ATOM     10  C   UNL     1       3.913  -3.918  23.750  0.00  0.00    +0.093 A 
ATOM     11  C   UNL     1       8.106  -3.322  23.580  0.00  0.00    +0.208 A 
ENDROOT
BRANCH   1  13
ATOM     12  C   UNL     1       8.294  -0.182  23.093  0.00  0.00    +0.015 A 
ATOM     13  C   UNL     1       7.659  -0.904  24.107  0.00  0.00    +0.025 A 
ATOM     14  C   UNL     1       7.532  -0.272  25.356  0.00  0.00    +0.060 A 
ATOM     15  C   UNL     1       7.937   1.048  25.546  0.00  0.00    +0.159 A 
ATOM     16  C   UNL     1       8.522   1.789  24.513  0.00  0.00    +0.165 A 
ATOM     17  C   UNL     1       8.754   1.120  23.309  0.00  0.00    +0.050 A 
BRANCH  15  18
ATOM     18  O   UNL     1       7.734   1.611  26.781  0.00  0.00    -0.503 OA
ATOM     19  H   UNL     1       7.963   2.554  26.693  0.00  0.00    +0.292 HD
ENDBRANCH  15  18
BRANCH  16  20
ATOM     20  O   UNL     1       8.813   3.126  24.731  0.00  0.00    -0.457 OA
BRANCH  20  21
ATOM     21  C   UNL     1       8.572   3.961  23.569  0.00  0.00    +0.339 C 
ATOM     22  O   UNL     1       9.495   5.045  23.504  0.00  0.00    -0.331 OA
ATOM     23  C   UNL     1       9.037   6.385  23.685  0.00  0.00    +0.179 C 
ATOM     24  C   UNL     1       7.692   6.644  22.989  0.00  0.00    +0.177 C 
ATOM     25  C   UNL     1       6.624   5.699  23.545  0.00  0.00    +0.180 C 
ATOM     26  C   UNL     1       7.061   4.245  23.335  0.00  0.00    +0.214 C 
BRANCH  26  27
ATOM     27  O   UNL     1       6.760   3.929  21.949  0.00  0.00    -0.383 OA
ATOM     28  H   UNL     1       7.273   4.573  21.408  0.00  0.00    +0.210 HD
ENDBRANCH  26  27
BRANCH  25  29
ATOM     29  O   UNL     1       6.338   6.023  24.901  0.00  0.00    -0.386 OA
ATOM     30  H   UNL     1       6.353   6.992  25.008  0.00  0.00    +0.210 HD
ENDBRANCH  25  29
BRANCH  24  31
ATOM     31  O   UNL     1       7.841   6.404  21.576  0.00  0.00    -0.386 OA
ATOM     32  H   UNL     1       8.232   7.207  21.186  0.00  0.00    +0.210 HD
ENDBRANCH  24  31
BRANCH  23  33
ATOM     33  C   UNL     1       9.101   6.811  25.161  0.00  0.00    +0.190 C 
BRANCH  33  34
ATOM     34  O   UNL     1       9.084   5.682  26.031  0.00  0.00    -0.392 OA
ATOM     35  H   UNL     1       9.387   4.911  25.518  0.00  0.00    +0.210 HD
ENDBRANCH  33  34
ENDBRANCH  23  33
ENDBRANCH  20  21
ENDBRANCH  16  20
ENDBRANCH   1  13
BRANCH  11  36
ATOM     36  O   UNL     1       9.479  -3.247  23.700  0.00  0.00    -0.501 OA
ATOM     37  H   UNL     1       9.809  -2.558  23.098  0.00  0.00    +0.292 HD
ENDBRANCH  11  36
BRANCH   5  38
ATOM     38  O   UNL     1       6.234  -7.104  22.446  0.00  0.00    -0.506 OA
ATOM     39  H   UNL     1       7.082  -7.111  22.948  0.00  0.00    +0.292 HD
ENDBRANCH   5  38
BRANCH   7  40
ATOM     40  O   UNL     1       2.003  -5.384  23.820  0.00  0.00    -0.461 OA
BRANCH  40  41
ATOM     41  C   UNL     1       1.797  -6.508  24.718  0.00  0.00    +0.339 C 
ATOM     42  O   UNL     1       0.655  -6.322  25.559  0.00  0.00    -0.331 OA
ATOM     43  C   UNL     1       0.848  -5.956  26.932  0.00  0.00    +0.179 C 
ATOM     44  C   UNL     1       1.954  -6.769  27.611  0.00  0.00    +0.177 C 
ATOM     45  C   UNL     1       3.278  -6.619  26.860  0.00  0.00    +0.180 C 
ATOM     46  C   UNL     1       3.102  -7.018  25.390  0.00  0.00    +0.214 C 
BRANCH  46  47
ATOM     47  O   UNL     1       3.085  -8.471  25.359  0.00  0.00    -0.383 OA
ATOM     48  H   UNL     1       3.930  -8.747  24.939  0.00  0.00    +0.210 HD
ENDBRANCH  46  47
BRANCH  45  49
ATOM     49  O   UNL     1       3.807  -5.310  27.048  0.00  0.00    -0.386 OA
ATOM     50  H   UNL     1       3.090  -4.695  27.283  0.00  0.00    +0.210 HD
ENDBRANCH  45  49
BRANCH  44  51
ATOM     51  O   UNL     1       1.562  -8.155  27.611  0.00  0.00    -0.386 OA
ATOM     52  H   UNL     1       2.336  -8.678  27.332  0.00  0.00    +0.210 HD
ENDBRANCH  44  51
BRANCH  43  53
ATOM     53  C   UNL     1       0.998  -4.437  27.086  0.00  0.00    +0.190 C 
BRANCH  53  54
ATOM     54  O   UNL     1       1.431  -4.122  28.410  0.00  0.00    -0.392 OA
ATOM     55  H   UNL     1       0.667  -3.712  28.860  0.00  0.00    +0.210 HD
ENDBRANCH  53  54
ENDBRANCH  43  53
ENDBRANCH  40  41
ENDBRANCH   7  40
TORSDOF 18
ENDMDL
MODEL 8
REMARK VINA RESULT:      -6.8      1.914     10.577
REMARK  Name = 
REMARK  18 active torsions:
REMARK  status: ('A' for Active; 'I' for Inactive)
REMARK    1  A    between atoms: C_3  and  O_38
REMARK    2  A    between atoms: C_4  and  O_37
REMARK    3  A    between atoms: C_6  and  C_7
REMARK    4  A    between atoms: C_8  and  O_36
REMARK    5  A    between atoms: C_12  and  O_35
REMARK    6  A    between atoms: C_14  and  O_18
REMARK    7  A    between atoms: O_18  and  C_19
REMARK    8  A    between atoms: C_21  and  O_34
REMARK    9  A    between atoms: C_23  and  O_33
REMARK   10  A    between atoms: C_25  and  O_32
REMARK   11  A    between atoms: C_27  and  C_30
REMARK   12  A    between atoms: C_30  and  O_31
REMARK   13  A    between atoms: O_38  and  C_39
REMARK   14  A    between atoms: C_41  and  O_54
REMARK   15  A    between atoms: C_43  and  O_53
REMARK   16  A    between atoms: C_45  and  O_52
REMARK   17  A    between atoms: C_47  and  C_50
REMARK   18  A    between atoms: C_50  and  O_51
REMARK                            x       y       z     vdW  Elec       q    Type
REMARK                         _______ _______ _______ _____ _____    ______ ____
ROOT
ATOM      1  C   UNL     1       7.817  -1.751  23.921  0.00  0.00    +0.181 A 
ATOM      2  O   UNL     1       7.049  -0.719  24.492  0.00  0.00    -0.451 OA
ATOM      3  C   UNL     1       7.563   0.554  24.567  0.00  0.00    +0.147 A 
ATOM      4  C   UNL     1       8.878   0.823  24.212  0.00  0.00    +0.109 A 
ATOM      5  C   UNL     1       9.401   2.099  24.396  0.00  0.00    +0.135 A 
ATOM      6  C   UNL     1       8.604   3.118  24.896  0.00  0.00    +0.092 A 
ATOM      7  C   UNL     1       7.234   2.916  25.106  0.00  0.00    +0.131 A 
ATOM      8  C   UNL     1       9.688  -0.235  23.610  0.00  0.00    +0.238 A 
ATOM      9  O   UNL     1      10.842   0.009  23.251  0.00  0.00    -0.283 OA
ATOM     10  C   UNL     1       6.727   1.607  25.003  0.00  0.00    +0.093 A 
ATOM     11  C   UNL     1       9.057  -1.558  23.415  0.00  0.00    +0.208 A 
ENDROOT
BRANCH   1  13
ATOM     12  C   UNL     1       7.578  -4.075  24.768  0.00  0.00    +0.015 A 
ATOM     13  C   UNL     1       7.113  -3.073  23.911  0.00  0.00    +0.025 A 
ATOM     14  C   UNL     1       6.058  -3.413  23.047  0.00  0.00    +0.060 A 
ATOM     15  C   UNL     1       5.443  -4.662  23.108  0.00  0.00    +0.159 A 
ATOM     16  C   UNL     1       5.874  -5.646  24.005  0.00  0.00    +0.165 A 
ATOM     17  C   UNL     1       6.998  -5.346  24.779  0.00  0.00    +0.050 A 
BRANCH  15  18
ATOM     18  O   UNL     1       4.386  -4.901  22.266  0.00  0.00    -0.503 OA
ATOM     19  H   UNL     1       4.055  -4.029  21.986  0.00  0.00    +0.292 HD
ENDBRANCH  15  18
BRANCH  16  20
ATOM     20  O   UNL     1       5.162  -6.832  24.091  0.00  0.00    -0.457 OA
BRANCH  20  21
ATOM     21  C   UNL     1       4.302  -6.901  25.256  0.00  0.00    +0.339 C 
ATOM     22  O   UNL     1       3.399  -8.002  25.177  0.00  0.00    -0.331 OA
ATOM     23  C   UNL     1       1.999  -7.767  25.030  0.00  0.00    +0.179 C 
ATOM     24  C   UNL     1       1.507  -6.595  25.893  0.00  0.00    +0.177 C 
ATOM     25  C   UNL     1       2.245  -5.312  25.504  0.00  0.00    +0.180 C 
ATOM     26  C   UNL     1       3.755  -5.510  25.684  0.00  0.00    +0.214 C 
BRANCH  26  27
ATOM     27  O   UNL     1       4.017  -5.346  27.104  0.00  0.00    -0.383 OA
ATOM     28  H   UNL     1       4.952  -5.624  27.239  0.00  0.00    +0.210 HD
ENDBRANCH  26  27
BRANCH  25  29
ATOM     29  O   UNL     1       1.871  -4.908  24.191  0.00  0.00    -0.386 OA
ATOM     30  H   UNL     1       1.218  -4.188  24.253  0.00  0.00    +0.210 HD
ENDBRANCH  25  29
BRANCH  24  31
ATOM     31  O   UNL     1       1.775  -6.887  27.279  0.00  0.00    -0.386 OA
ATOM     32  H   UNL     1       1.931  -7.848  27.346  0.00  0.00    +0.210 HD
ENDBRANCH  24  31
BRANCH  23  33
ATOM     33  C   UNL     1       1.586  -7.706  23.550  0.00  0.00    +0.190 C 
BRANCH  33  34
ATOM     34  O   UNL     1       2.673  -7.301  22.722  0.00  0.00    -0.392 OA
ATOM     35  H   UNL     1       2.309  -7.074  21.847  0.00  0.00    +0.210 HD
ENDBRANCH  33  34
ENDBRANCH  23  33
ENDBRANCH  20  21
ENDBRANCH  16  20
ENDBRANCH   1  13
BRANCH  11  36
ATOM     36  O   UNL     1       9.793  -2.489  22.711  0.00  0.00    -0.501 OA
ATOM     37  H   UNL     1       9.183  -3.071  22.227  0.00  0.00    +0.292 HD
ENDBRANCH  11  36
BRANCH   5  38
ATOM     38  O   UNL     1      10.685   2.444  24.069  0.00  0.00    -0.506 OA
ATOM     39  H   UNL     1      10.789   3.410  24.226  0.00  0.00    +0.292 HD
ENDBRANCH   5  38
BRANCH   7  40
ATOM     40  O   UNL     1       6.353   3.958  25.370  0.00  0.00    -0.461 OA
BRANCH  40  41
ATOM     41  C   UNL     1       6.019   4.751  24.199  0.00  0.00    +0.339 C 
ATOM     42  O   UNL     1       5.046   5.757  24.490  0.00  0.00    -0.331 OA
ATOM     43  C   UNL     1       3.687   5.560  24.077  0.00  0.00    +0.179 C 
ATOM     44  C   UNL     1       3.577   5.030  22.644  0.00  0.00    +0.177 C 
ATOM     45  C   UNL     1       4.346   3.718  22.489  0.00  0.00    +0.180 C 
ATOM     46  C   UNL     1       5.807   3.906  22.913  0.00  0.00    +0.214 C 
BRANCH  46  47
ATOM     47  O   UNL     1       6.468   4.588  21.812  0.00  0.00    -0.383 OA
ATOM     48  H   UNL     1       7.363   4.833  22.139  0.00  0.00    +0.210 HD
ENDBRANCH  46  47
BRANCH  45  49
ATOM     49  O   UNL     1       3.672   2.667  23.175  0.00  0.00    -0.386 OA
ATOM     50  H   UNL     1       3.467   2.944  24.085  0.00  0.00    +0.210 HD
ENDBRANCH  45  49
BRANCH  44  51
ATOM     51  O   UNL     1       4.134   6.016  21.753  0.00  0.00    -0.386 OA
ATOM     52  H   UNL     1       3.491   6.154  21.032  0.00  0.00    +0.210 HD
ENDBRANCH  44  51
BRANCH  43  53
ATOM     53  C   UNL     1       2.905   4.743  25.113  0.00  0.00    +0.190 C 
BRANCH  53  54
ATOM     54  O   UNL     1       1.630   4.377  24.582  0.00  0.00    -0.392 OA
ATOM     55  H   UNL     1       0.980   4.985  24.983  0.00  0.00    +0.210 HD
ENDBRANCH  53  54
ENDBRANCH  43  53
ENDBRANCH  40  41
ENDBRANCH   7  40
TORSDOF 18
ENDMDL
MODEL 9
REMARK VINA RESULT:      -6.8      2.246     10.933
REMARK  Name = 
REMARK  18 active torsions:
REMARK  status: ('A' for Active; 'I' for Inactive)
REMARK    1  A    between atoms: C_3  and  O_38
REMARK    2  A    between atoms: C_4  and  O_37
REMARK    3  A    between atoms: C_6  and  C_7
REMARK    4  A    between atoms: C_8  and  O_36
REMARK    5  A    between atoms: C_12  and  O_35
REMARK    6  A    between atoms: C_14  and  O_18
REMARK    7  A    between atoms: O_18  and  C_19
REMARK    8  A    between atoms: C_21  and  O_34
REMARK    9  A    between atoms: C_23  and  O_33
REMARK   10  A    between atoms: C_25  and  O_32
REMARK   11  A    between atoms: C_27  and  C_30
REMARK   12  A    between atoms: C_30  and  O_31
REMARK   13  A    between atoms: O_38  and  C_39
REMARK   14  A    between atoms: C_41  and  O_54
REMARK   15  A    between atoms: C_43  and  O_53
REMARK   16  A    between atoms: C_45  and  O_52
REMARK   17  A    between atoms: C_47  and  C_50
REMARK   18  A    between atoms: C_50  and  O_51
REMARK                            x       y       z     vdW  Elec       q    Type
REMARK                         _______ _______ _______ _____ _____    ______ ____
ROOT
ATOM      1  C   UNL     1       7.842  -1.145  24.166  0.00  0.00    +0.181 A 
ATOM      2  O   UNL     1       7.771   0.081  24.854  0.00  0.00    -0.451 OA
ATOM      3  C   UNL     1       8.353   1.203  24.311  0.00  0.00    +0.147 A 
ATOM      4  C   UNL     1       9.125   1.130  23.160  0.00  0.00    +0.109 A 
ATOM      5  C   UNL     1       9.785   2.262  22.693  0.00  0.00    +0.135 A 
ATOM      6  C   UNL     1       9.645   3.476  23.348  0.00  0.00    +0.092 A 
ATOM      7  C   UNL     1       8.743   3.615  24.411  0.00  0.00    +0.131 A 
ATOM      8  C   UNL     1       9.203  -0.134  22.429  0.00  0.00    +0.238 A 
ATOM      9  O   UNL     1       9.851  -0.194  21.381  0.00  0.00    -0.283 OA
ATOM     10  C   UNL     1       8.144   2.454  24.936  0.00  0.00    +0.093 A 
ATOM     11  C   UNL     1       8.450  -1.287  22.967  0.00  0.00    +0.208 A 
ENDROOT
BRANCH   1  13
ATOM     12  C   UNL     1       5.789  -2.451  24.669  0.00  0.00    +0.015 A 
ATOM     13  C   UNL     1       7.157  -2.265  24.888  0.00  0.00    +0.025 A 
ATOM     14  C   UNL     1       7.771  -3.105  25.832  0.00  0.00    +0.060 A 
ATOM     15  C   UNL     1       7.069  -4.136  26.453  0.00  0.00    +0.159 A 
ATOM     16  C   UNL     1       5.712  -4.357  26.192  0.00  0.00    +0.165 A 
ATOM     17  C   UNL     1       5.076  -3.448  25.343  0.00  0.00    +0.050 A 
BRANCH  15  18
ATOM     18  O   UNL     1       7.752  -4.945  27.326  0.00  0.00    -0.503 OA
ATOM     19  H   UNL     1       7.757  -5.835  26.929  0.00  0.00    +0.292 HD
ENDBRANCH  15  18
BRANCH  16  20
ATOM     20  O   UNL     1       5.091  -5.457  26.761  0.00  0.00    -0.457 OA
BRANCH  20  21
ATOM     21  C   UNL     1       3.848  -5.130  27.432  0.00  0.00    +0.339 C 
ATOM     22  O   UNL     1       4.068  -4.294  28.565  0.00  0.00    -0.331 OA
ATOM     23  C   UNL     1       3.827  -4.795  29.880  0.00  0.00    +0.179 C 
ATOM     24  C   UNL     1       2.557  -5.656  29.955  0.00  0.00    +0.177 C 
ATOM     25  C   UNL     1       2.677  -6.851  29.007  0.00  0.00    +0.180 C 
ATOM     26  C   UNL     1       2.900  -6.354  27.574  0.00  0.00    +0.214 C 
BRANCH  26  27
ATOM     27  O   UNL     1       1.592  -5.965  27.074  0.00  0.00    -0.383 OA
ATOM     28  H   UNL     1       1.297  -6.701  26.490  0.00  0.00    +0.210 HD
ENDBRANCH  26  27
BRANCH  25  29
ATOM     29  O   UNL     1       3.685  -7.745  29.469  0.00  0.00    -0.386 OA
ATOM     30  H   UNL     1       3.346  -8.657  29.428  0.00  0.00    +0.210 HD
ENDBRANCH  25  29
BRANCH  24  31
ATOM     31  O   UNL     1       1.424  -4.857  29.559  0.00  0.00    -0.386 OA
ATOM     32  H   UNL     1       0.702  -5.050  30.187  0.00  0.00    +0.210 HD
ENDBRANCH  24  31
BRANCH  23  33
ATOM     33  C   UNL     1       5.088  -5.437  30.482  0.00  0.00    +0.190 C 
BRANCH  33  34
ATOM     34  O   UNL     1       6.113  -5.590  29.504  0.00  0.00    -0.392 OA
ATOM     35  H   UNL     1       6.874  -5.052  29.788  0.00  0.00    +0.210 HD
ENDBRANCH  33  34
ENDBRANCH  23  33
ENDBRANCH  20  21
ENDBRANCH  16  20
ENDBRANCH   1  13
BRANCH  11  36
ATOM     36  O   UNL     1       8.422  -2.420  22.179  0.00  0.00    -0.501 OA
ATOM     37  H   UNL     1       9.281  -2.871  22.247  0.00  0.00    +0.292 HD
ENDBRANCH  11  36
BRANCH   5  38
ATOM     38  O   UNL     1      10.562   2.272  21.566  0.00  0.00    -0.506 OA
ATOM     39  H   UNL     1      11.159   1.490  21.601  0.00  0.00    +0.292 HD
ENDBRANCH   5  38
BRANCH   7  40
ATOM     40  O   UNL     1       8.387   4.850  24.938  0.00  0.00    -0.461 OA
BRANCH  40  41
ATOM     41  C   UNL     1       7.694   5.710  23.993  0.00  0.00    +0.339 C 
ATOM     42  O   UNL     1       6.886   6.689  24.650  0.00  0.00    -0.331 OA
ATOM     43  C   UNL     1       5.464   6.507  24.701  0.00  0.00    +0.179 C 
ATOM     44  C   UNL     1       4.877   6.064  23.357  0.00  0.00    +0.177 C 
ATOM     45  C   UNL     1       5.534   4.768  22.878  0.00  0.00    +0.180 C 
ATOM     46  C   UNL     1       7.056   4.942  22.803  0.00  0.00    +0.214 C 
BRANCH  46  47
ATOM     47  O   UNL     1       7.323   5.694  21.588  0.00  0.00    -0.383 OA
ATOM     48  H   UNL     1       6.742   6.487  21.623  0.00  0.00    +0.210 HD
ENDBRANCH  46  47
BRANCH  45  49
ATOM     49  O   UNL     1       5.113   3.673  23.685  0.00  0.00    -0.386 OA
ATOM     50  H   UNL     1       5.889   3.228  24.069  0.00  0.00    +0.210 HD
ENDBRANCH  45  49
BRANCH  44  51
ATOM     51  O   UNL     1       5.119   7.105  22.392  0.00  0.00    -0.386 OA
ATOM     52  H   UNL     1       6.055   7.042  22.124  0.00  0.00    +0.210 HD
ENDBRANCH  44  51
BRANCH  43  53
ATOM     53  C   UNL     1       5.059   5.623  25.888  0.00  0.00    +0.190 C 
BRANCH  53  54
ATOM     54  O   UNL     1       3.698   5.213  25.748  0.00  0.00    -0.392 OA
ATOM     55  H   UNL     1       3.154   5.937  26.115  0.00  0.00    +0.210 HD
ENDBRANCH  53  54
ENDBRANCH  43  53
ENDBRANCH  40  41
ENDBRANCH   7  40
TORSDOF 18
ENDMDL
