MODEL 1
REMARK VINA RESULT:      -7.7      0.000      0.000
REMARK  Name = 
REMARK  20 active torsions:
REMARK  status: ('A' for Active; 'I' for Inactive)
REMARK    1  A    between atoms: C_1  and  C_2
REMARK    2  A    between atoms: C_4  and  O_59
REMARK    3  A    between atoms: C_6  and  O_58
REMARK    4  A    between atoms: C_8  and  O_57
REMARK    5  A    between atoms: C_10  and  O_13
REMARK    6  A    between atoms: O_13  and  C_14
REMARK    7  A    between atoms: C_16  and  O_56
REMARK    8  A    between atoms: C_21  and  C_48
REMARK    9  A    between atoms: C_22  and  O_25
REMARK   10  A    between atoms: O_25  and  C_26
REMARK   11  A    between atoms: C_28  and  O_47
REMARK   12  A    between atoms: C_30  and  O_46
REMARK   13  A    between atoms: C_32  and  O_45
REMARK   14  A    between atoms: C_34  and  C_37
REMARK   15  A    between atoms: C_37  and  O_38
REMARK   16  A    between atoms: O_38  and  C_39
REMARK   17  A    between atoms: C_39  and  C_41
REMARK   18  A    between atoms: C_41  and  C_42
REMARK   19  A    between atoms: C_50  and  O_55
REMARK   20  A    between atoms: C_51  and  O_54
REMARK                            x       y       z     vdW  Elec       q    Type
REMARK                         _______ _______ _______ _____ _____    ______ ____
ROOT
ATOM      1  C   UNL     1       8.070  -2.673  23.439  0.00  0.00    +0.131 A 
ATOM      2  C   UNL     1       7.607  -1.793  24.426  0.00  0.00    +0.093 A 
ATOM      3  C   UNL     1       7.795  -0.416  24.272  0.00  0.00    +0.147 A 
ATOM      4  O   UNL     1       7.361   0.432  25.267  0.00  0.00    -0.451 OA
ATOM      5  C   UNL     1       7.368   1.817  25.033  0.00  0.00    +0.181 A 
ATOM      6  C   UNL     1       8.006   2.391  23.980  0.00  0.00    +0.214 A 
ATOM      7  C   UNL     1       8.824   1.460  23.145  0.00  0.00    +0.238 A 
ATOM      8  O   UNL     1       9.835   1.801  22.553  0.00  0.00    -0.283 OA
ATOM      9  C   UNL     1       8.449   0.057  23.145  0.00  0.00    +0.109 A 
ATOM     10  C   UNL     1       8.843  -0.813  22.130  0.00  0.00    +0.135 A 
ATOM     11  C   UNL     1       8.659  -2.174  22.277  0.00  0.00    +0.092 A 
ENDROOT
BRANCH   5  12
ATOM     12  C   UNL     1       6.641   2.584  26.090  0.00  0.00    +0.025 A 
ATOM     13  C   UNL     1       5.232   2.592  26.160  0.00  0.00    +0.015 A 
ATOM     14  C   UNL     1       4.546   3.332  27.134  0.00  0.00    +0.050 A 
ATOM     15  C   UNL     1       5.264   4.096  28.035  0.00  0.00    +0.158 A 
ATOM     16  C   UNL     1       6.651   4.141  27.968  0.00  0.00    +0.159 A 
ATOM     17  C   UNL     1       7.343   3.397  27.007  0.00  0.00    +0.060 A 
BRANCH  16  18
ATOM     18  O   UNL     1       7.296   4.940  28.875  0.00  0.00    -0.503 OA
ATOM     19  H   UNL     1       7.314   4.480  29.730  0.00  0.00    +0.292 HD
ENDBRANCH  16  18
BRANCH  15  20
ATOM     20  O   UNL     1       4.594   4.816  28.982  0.00  0.00    -0.503 OA
ATOM     21  H   UNL     1       4.915   5.731  28.875  0.00  0.00    +0.292 HD
ENDBRANCH  15  20
ENDBRANCH   5  12
BRANCH  10  22
ATOM     22  O   UNL     1       9.387  -0.338  20.964  0.00  0.00    -0.506 OA
ATOM     23  H   UNL     1      10.316  -0.614  20.897  0.00  0.00    +0.292 HD
ENDBRANCH  10  22
BRANCH   6  24
ATOM     24  O   UNL     1       7.936   3.757  23.686  0.00  0.00    -0.453 OA
BRANCH  24  25
ATOM     25  C   UNL     1       7.045   4.140  22.614  0.00  0.00    +0.340 C 
ATOM     26  O   UNL     1       7.583   5.245  21.874  0.00  0.00    -0.330 OA
ATOM     27  C   UNL     1       7.331   6.581  22.338  0.00  0.00    +0.191 C 
ATOM     28  C   UNL     1       5.852   6.806  22.688  0.00  0.00    +0.178 C 
ATOM     29  C   UNL     1       5.340   5.756  23.681  0.00  0.00    +0.180 C 
ATOM     30  C   UNL     1       5.586   4.349  23.118  0.00  0.00    +0.214 C 
BRANCH  30  31
ATOM     31  O   UNL     1       4.652   4.118  22.047  0.00  0.00    -0.383 OA
ATOM     32  H   UNL     1       3.761   4.210  22.446  0.00  0.00    +0.210 HD
ENDBRANCH  30  31
BRANCH  29  33
ATOM     33  O   UNL     1       5.860   5.930  24.997  0.00  0.00    -0.386 OA
ATOM     34  H   UNL     1       6.166   5.076  25.344  0.00  0.00    +0.210 HD
ENDBRANCH  29  33
BRANCH  28  35
ATOM     35  O   UNL     1       5.081   6.655  21.469  0.00  0.00    -0.386 OA
ATOM     36  H   UNL     1       5.569   7.139  20.776  0.00  0.00    +0.210 HD
ENDBRANCH  28  35
BRANCH  27  37
ATOM     37  C   UNL     1       8.331   6.980  23.434  0.00  0.00    +0.266 C 
BRANCH  37  38
ATOM     38  O   UNL     1       9.638   6.431  23.228  0.00  0.00    -0.462 OA
BRANCH  38  39
ATOM     39  C   UNL     1      10.332   6.131  24.368  0.00  0.00    +0.313 C 
ATOM     40  O   UNL     1       9.805   5.893  25.452  0.00  0.00    -0.250 OA
BRANCH  39  41
ATOM     41  C   UNL     1      11.801   6.270  24.162  0.00  0.00    +0.172 C 
BRANCH  41  42
ATOM     42  C   UNL     1      12.314   5.230  23.202  0.00  0.00    +0.052 C 
ATOM     43  O   UNL     1      11.921   4.052  23.448  0.00  0.00    -0.549 OA
ATOM     44  O   UNL     1      13.114   5.626  22.309  0.00  0.00    -0.549 OA
ENDBRANCH  41  42
ENDBRANCH  39  41
ENDBRANCH  38  39
ENDBRANCH  37  38
ENDBRANCH  27  37
ENDBRANCH  24  25
ENDBRANCH   6  24
BRANCH   1  45
ATOM     45  O   UNL     1       8.042  -4.036  23.469  0.00  0.00    -0.461 OA
BRANCH  45  49
ATOM     46  C   UNL     1       5.122  -6.406  25.607  0.00  0.00    +0.041 C 
ATOM     47  C   UNL     1       5.341  -4.908  25.780  0.00  0.00    +0.150 C 
ATOM     48  O   UNL     1       6.045  -4.341  24.671  0.00  0.00    -0.334 OA
ATOM     49  C   UNL     1       7.430  -4.691  24.581  0.00  0.00    +0.339 C 
ATOM     50  C   UNL     1       8.199  -4.231  25.840  0.00  0.00    +0.214 C 
ATOM     51  C   UNL     1       7.522  -4.748  27.115  0.00  0.00    +0.180 C 
ATOM     52  C   UNL     1       6.011  -4.481  27.096  0.00  0.00    +0.174 C 
BRANCH  52  53
ATOM     53  O   UNL     1       5.808  -3.065  27.256  0.00  0.00    -0.387 OA
ATOM     54  H   UNL     1       5.523  -2.699  26.394  0.00  0.00    +0.210 HD
ENDBRANCH  52  53
BRANCH  51  55
ATOM     55  O   UNL     1       7.834  -6.134  27.327  0.00  0.00    -0.386 OA
ATOM     56  H   UNL     1       7.129  -6.571  27.832  0.00  0.00    +0.210 HD
ENDBRANCH  51  55
BRANCH  50  57
ATOM     57  O   UNL     1       9.568  -4.670  25.801  0.00  0.00    -0.383 OA
ATOM     58  H   UNL     1      10.105  -4.006  26.272  0.00  0.00    +0.210 HD
ENDBRANCH  50  57
ENDBRANCH  45  49
ENDBRANCH   1  45
TORSDOF 19
ENDMDL
MODEL 2
REMARK VINA RESULT:      -7.4      1.194      1.742
REMARK  Name = 
REMARK  20 active torsions:
REMARK  status: ('A' for Active; 'I' for Inactive)
REMARK    1  A    between atoms: C_1  and  C_2
REMARK    2  A    between atoms: C_4  and  O_59
REMARK    3  A    between atoms: C_6  and  O_58
REMARK    4  A    between atoms: C_8  and  O_57
REMARK    5  A    between atoms: C_10  and  O_13
REMARK    6  A    between atoms: O_13  and  C_14
REMARK    7  A    between atoms: C_16  and  O_56
REMARK    8  A    between atoms: C_21  and  C_48
REMARK    9  A    between atoms: C_22  and  O_25
REMARK   10  A    between atoms: O_25  and  C_26
REMARK   11  A    between atoms: C_28  and  O_47
REMARK   12  A    between atoms: C_30  and  O_46
REMARK   13  A    between atoms: C_32  and  O_45
REMARK   14  A    between atoms: C_34  and  C_37
REMARK   15  A    between atoms: C_37  and  O_38
REMARK   16  A    between atoms: O_38  and  C_39
REMARK   17  A    between atoms: C_39  and  C_41
REMARK   18  A    between atoms: C_41  and  C_42
REMARK   19  A    between atoms: C_50  and  O_55
REMARK   20  A    between atoms: C_51  and  O_54
REMARK                            x       y       z     vdW  Elec       q    Type
REMARK                         _______ _______ _______ _____ _____    ______ ____
ROOT
ATOM      1  C   UNL     1       8.556  -2.747  23.948  0.00  0.00    +0.131 A 
ATOM      2  C   UNL     1       7.951  -1.881  24.869  0.00  0.00    +0.093 A 
ATOM      3  C   UNL     1       8.088  -0.498  24.716  0.00  0.00    +0.147 A 
ATOM      4  O   UNL     1       7.512   0.337  25.648  0.00  0.00    -0.451 OA
ATOM      5  C   UNL     1       7.478   1.718  25.396  0.00  0.00    +0.181 A 
ATOM      6  C   UNL     1       8.194   2.313  24.407  0.00  0.00    +0.214 A 
ATOM      7  C   UNL     1       9.138   1.415  23.674  0.00  0.00    +0.238 A 
ATOM      8  O   UNL     1      10.187   1.800  23.186  0.00  0.00    -0.283 OA
ATOM      9  C   UNL     1       8.833  -0.004  23.656  0.00  0.00    +0.109 A 
ATOM     10  C   UNL     1       9.371  -0.863  22.699  0.00  0.00    +0.135 A 
ATOM     11  C   UNL     1       9.239  -2.230  22.847  0.00  0.00    +0.092 A 
ENDROOT
BRANCH   5  12
ATOM     12  C   UNL     1       6.608   2.459  26.361  0.00  0.00    +0.025 A 
ATOM     13  C   UNL     1       5.202   2.367  26.309  0.00  0.00    +0.015 A 
ATOM     14  C   UNL     1       4.383   3.080  27.195  0.00  0.00    +0.050 A 
ATOM     15  C   UNL     1       4.963   3.918  28.129  0.00  0.00    +0.158 A 
ATOM     16  C   UNL     1       6.344   4.061  28.180  0.00  0.00    +0.159 A 
ATOM     17  C   UNL     1       7.168   3.344  27.307  0.00  0.00    +0.060 A 
BRANCH  16  18
ATOM     18  O   UNL     1       6.849   4.929  29.113  0.00  0.00    -0.503 OA
ATOM     19  H   UNL     1       6.323   4.845  29.925  0.00  0.00    +0.292 HD
ENDBRANCH  16  18
BRANCH  15  20
ATOM     20  O   UNL     1       4.163   4.612  28.991  0.00  0.00    -0.503 OA
ATOM     21  H   UNL     1       4.084   5.502  28.597  0.00  0.00    +0.292 HD
ENDBRANCH  15  20
ENDBRANCH   5  12
BRANCH  10  22
ATOM     22  O   UNL     1      10.011  -0.373  21.590  0.00  0.00    -0.506 OA
ATOM     23  H   UNL     1      10.965  -0.546  21.655  0.00  0.00    +0.292 HD
ENDBRANCH  10  22
BRANCH   6  24
ATOM     24  O   UNL     1       8.089   3.671  24.088  0.00  0.00    -0.453 OA
BRANCH  24  25
ATOM     25  C   UNL     1       7.255   4.004  22.956  0.00  0.00    +0.340 C 
ATOM     26  O   UNL     1       7.852   5.045  22.170  0.00  0.00    -0.330 OA
ATOM     27  C   UNL     1       7.617   6.414  22.536  0.00  0.00    +0.191 C 
ATOM     28  C   UNL     1       6.130   6.696  22.805  0.00  0.00    +0.178 C 
ATOM     29  C   UNL     1       5.550   5.727  23.841  0.00  0.00    +0.180 C 
ATOM     30  C   UNL     1       5.782   4.280  23.382  0.00  0.00    +0.214 C 
BRANCH  30  31
ATOM     31  O   UNL     1       4.888   4.002  22.288  0.00  0.00    -0.383 OA
ATOM     32  H   UNL     1       4.775   3.028  22.278  0.00  0.00    +0.210 HD
ENDBRANCH  30  31
BRANCH  29  33
ATOM     33  O   UNL     1       6.020   5.975  25.165  0.00  0.00    -0.386 OA
ATOM     34  H   UNL     1       6.678   6.690  25.150  0.00  0.00    +0.210 HD
ENDBRANCH  29  33
BRANCH  28  35
ATOM     35  O   UNL     1       5.407   6.485  21.566  0.00  0.00    -0.386 OA
ATOM     36  H   UNL     1       5.462   5.530  21.377  0.00  0.00    +0.210 HD
ENDBRANCH  28  35
BRANCH  27  37
ATOM     37  C   UNL     1       8.580   6.860  23.645  0.00  0.00    +0.266 C 
BRANCH  37  38
ATOM     38  O   UNL     1       9.925   6.412  23.435  0.00  0.00    -0.462 OA
BRANCH  38  39
ATOM     39  C   UNL     1      10.692   6.317  24.563  0.00  0.00    +0.313 C 
ATOM     40  O   UNL     1      10.242   6.343  25.706  0.00  0.00    -0.250 OA
BRANCH  39  41
ATOM     41  C   UNL     1      12.145   6.325  24.234  0.00  0.00    +0.172 C 
BRANCH  41  42
ATOM     42  C   UNL     1      12.478   5.254  23.229  0.00  0.00    +0.052 C 
ATOM     43  O   UNL     1      13.097   5.670  22.207  0.00  0.00    -0.549 OA
ATOM     44  O   UNL     1      12.059   4.090  23.480  0.00  0.00    -0.549 OA
ENDBRANCH  41  42
ENDBRANCH  39  41
ENDBRANCH  38  39
ENDBRANCH  37  38
ENDBRANCH  27  37
ENDBRANCH  24  25
ENDBRANCH   6  24
BRANCH   1  45
ATOM     45  O   UNL     1       8.590  -4.109  23.995  0.00  0.00    -0.461 OA
BRANCH  45  49
ATOM     46  C   UNL     1       6.076  -5.941  20.988  0.00  0.00    +0.041 C 
ATOM     47  C   UNL     1       5.697  -4.738  21.844  0.00  0.00    +0.150 C 
ATOM     48  O   UNL     1       6.846  -4.110  22.419  0.00  0.00    -0.334 OA
ATOM     49  C   UNL     1       7.488  -4.847  23.464  0.00  0.00    +0.339 C 
ATOM     50  C   UNL     1       6.518  -5.096  24.641  0.00  0.00    +0.214 C 
ATOM     51  C   UNL     1       5.217  -5.742  24.152  0.00  0.00    +0.180 C 
ATOM     52  C   UNL     1       4.646  -5.002  22.934  0.00  0.00    +0.174 C 
BRANCH  52  53
ATOM     53  O   UNL     1       4.146  -3.729  23.382  0.00  0.00    -0.387 OA
ATOM     54  H   UNL     1       3.188  -3.822  23.557  0.00  0.00    +0.210 HD
ENDBRANCH  52  53
BRANCH  51  55
ATOM     55  O   UNL     1       5.410  -7.143  23.904  0.00  0.00    -0.386 OA
ATOM     56  H   UNL     1       5.957  -7.279  23.115  0.00  0.00    +0.210 HD
ENDBRANCH  51  55
BRANCH  50  57
ATOM     57  O   UNL     1       7.125  -5.922  25.649  0.00  0.00    -0.383 OA
ATOM     58  H   UNL     1       6.809  -5.611  26.518  0.00  0.00    +0.210 HD
ENDBRANCH  50  57
ENDBRANCH  45  49
ENDBRANCH   1  45
TORSDOF 19
ENDMDL
MODEL 3
REMARK VINA RESULT:      -7.2      2.846      9.983
REMARK  Name = 
REMARK  20 active torsions:
REMARK  status: ('A' for Active; 'I' for Inactive)
REMARK    1  A    between atoms: C_1  and  C_2
REMARK    2  A    between atoms: C_4  and  O_59
REMARK    3  A    between atoms: C_6  and  O_58
REMARK    4  A    between atoms: C_8  and  O_57
REMARK    5  A    between atoms: C_10  and  O_13
REMARK    6  A    between atoms: O_13  and  C_14
REMARK    7  A    between atoms: C_16  and  O_56
REMARK    8  A    between atoms: C_21  and  C_48
REMARK    9  A    between atoms: C_22  and  O_25
REMARK   10  A    between atoms: O_25  and  C_26
REMARK   11  A    between atoms: C_28  and  O_47
REMARK   12  A    between atoms: C_30  and  O_46
REMARK   13  A    between atoms: C_32  and  O_45
REMARK   14  A    between atoms: C_34  and  C_37
REMARK   15  A    between atoms: C_37  and  O_38
REMARK   16  A    between atoms: O_38  and  C_39
REMARK   17  A    between atoms: C_39  and  C_41
REMARK   18  A    between atoms: C_41  and  C_42
REMARK   19  A    between atoms: C_50  and  O_55
REMARK   20  A    between atoms: C_51  and  O_54
REMARK                            x       y       z     vdW  Elec       q    Type
REMARK                         _______ _______ _______ _____ _____    ______ ____
ROOT
ATOM      1  C   UNL     1       9.214   0.430  24.327  0.00  0.00    +0.131 A 
ATOM      2  C   UNL     1       7.919   0.372  24.860  0.00  0.00    +0.093 A 
ATOM      3  C   UNL     1       7.228  -0.844  24.874  0.00  0.00    +0.147 A 
ATOM      4  O   UNL     1       5.944  -0.875  25.373  0.00  0.00    -0.451 OA
ATOM      5  C   UNL     1       5.321  -2.118  25.571  0.00  0.00    +0.181 A 
ATOM      6  C   UNL     1       5.809  -3.284  25.072  0.00  0.00    +0.214 A 
ATOM      7  C   UNL     1       6.996  -3.147  24.174  0.00  0.00    +0.238 A 
ATOM      8  O   UNL     1       7.231  -3.909  23.251  0.00  0.00    -0.283 OA
ATOM      9  C   UNL     1       7.834  -1.975  24.349  0.00  0.00    +0.109 A 
ATOM     10  C   UNL     1       9.149  -1.931  23.888  0.00  0.00    +0.135 A 
ATOM     11  C   UNL     1       9.836  -0.733  23.872  0.00  0.00    +0.092 A 
ENDROOT
BRANCH   5  12
ATOM     12  C   UNL     1       4.046  -2.008  26.345  0.00  0.00    +0.025 A 
ATOM     13  C   UNL     1       2.910  -2.773  26.010  0.00  0.00    +0.015 A 
ATOM     14  C   UNL     1       1.706  -2.654  26.718  0.00  0.00    +0.050 A 
ATOM     15  C   UNL     1       1.617  -1.744  27.755  0.00  0.00    +0.158 A 
ATOM     16  C   UNL     1       2.706  -0.948  28.085  0.00  0.00    +0.159 A 
ATOM     17  C   UNL     1       3.914  -1.069  27.391  0.00  0.00    +0.060 A 
BRANCH  16  18
ATOM     18  O   UNL     1       2.538  -0.050  29.106  0.00  0.00    -0.503 OA
ATOM     19  H   UNL     1       1.773   0.511  28.899  0.00  0.00    +0.292 HD
ENDBRANCH  16  18
BRANCH  15  20
ATOM     20  O   UNL     1       0.443  -1.629  28.443  0.00  0.00    -0.503 OA
ATOM     21  H   UNL     1      -0.096  -1.009  27.917  0.00  0.00    +0.292 HD
ENDBRANCH  15  20
ENDBRANCH   5  12
BRANCH  10  22
ATOM     22  O   UNL     1       9.790  -3.070  23.473  0.00  0.00    -0.506 OA
ATOM     23  H   UNL     1      10.321  -3.434  24.200  0.00  0.00    +0.292 HD
ENDBRANCH  10  22
BRANCH   6  24
ATOM     24  O   UNL     1       5.248  -4.536  25.347  0.00  0.00    -0.453 OA
BRANCH  24  25
ATOM     25  C   UNL     1       6.110  -5.501  25.990  0.00  0.00    +0.340 C 
ATOM     26  O   UNL     1       5.462  -6.775  26.097  0.00  0.00    -0.330 OA
ATOM     27  C   UNL     1       4.611  -7.029  27.226  0.00  0.00    +0.191 C 
ATOM     28  C   UNL     1       5.269  -6.622  28.553  0.00  0.00    +0.178 C 
ATOM     29  C   UNL     1       5.748  -5.167  28.523  0.00  0.00    +0.180 C 
ATOM     30  C   UNL     1       6.692  -4.957  27.330  0.00  0.00    +0.214 C 
BRANCH  30  31
ATOM     31  O   UNL     1       7.946  -5.601  27.624  0.00  0.00    -0.383 OA
ATOM     32  H   UNL     1       8.304  -5.894  26.759  0.00  0.00    +0.210 HD
ENDBRANCH  30  31
BRANCH  29  33
ATOM     33  O   UNL     1       4.678  -4.224  28.561  0.00  0.00    -0.386 OA
ATOM     34  H   UNL     1       4.173  -4.270  27.732  0.00  0.00    +0.210 HD
ENDBRANCH  29  33
BRANCH  28  35
ATOM     35  O   UNL     1       6.441  -7.456  28.741  0.00  0.00    -0.386 OA
ATOM     36  H   UNL     1       6.525  -7.597  29.702  0.00  0.00    +0.210 HD
ENDBRANCH  28  35
BRANCH  27  37
ATOM     37  C   UNL     1       3.203  -6.463  26.993  0.00  0.00    +0.266 C 
BRANCH  37  38
ATOM     38  O   UNL     1       2.307  -7.410  26.398  0.00  0.00    -0.462 OA
BRANCH  38  39
ATOM     39  C   UNL     1       2.256  -7.388  25.032  0.00  0.00    +0.313 C 
ATOM     40  O   UNL     1       2.837  -8.194  24.309  0.00  0.00    -0.250 OA
BRANCH  39  41
ATOM     41  C   UNL     1       1.529  -6.187  24.535  0.00  0.00    +0.172 C 
BRANCH  41  42
ATOM     42  C   UNL     1       1.915  -5.871  23.114  0.00  0.00    +0.052 C 
ATOM     43  O   UNL     1       3.057  -5.341  22.987  0.00  0.00    -0.549 OA
ATOM     44  O   UNL     1       1.050  -6.106  22.225  0.00  0.00    -0.549 OA
ENDBRANCH  41  42
ENDBRANCH  39  41
ENDBRANCH  38  39
ENDBRANCH  37  38
ENDBRANCH  27  37
ENDBRANCH  24  25
ENDBRANCH   6  24
BRANCH   1  45
ATOM     45  O   UNL     1       9.990   1.539  24.164  0.00  0.00    -0.461 OA
BRANCH  45  49
ATOM     46  C   UNL     1       8.872   5.535  25.385  0.00  0.00    +0.041 C 
ATOM     47  C   UNL     1       7.927   4.343  25.292  0.00  0.00    +0.150 C 
ATOM     48  O   UNL     1       8.636   3.100  25.282  0.00  0.00    -0.334 OA
ATOM     49  C   UNL     1       9.361   2.818  24.081  0.00  0.00    +0.339 C 
ATOM     50  C   UNL     1       8.411   2.763  22.863  0.00  0.00    +0.214 C 
ATOM     51  C   UNL     1       7.559   4.034  22.775  0.00  0.00    +0.180 C 
ATOM     52  C   UNL     1       6.923   4.378  24.128  0.00  0.00    +0.174 C 
BRANCH  52  53
ATOM     53  O   UNL     1       5.899   3.404  24.399  0.00  0.00    -0.387 OA
ATOM     54  H   UNL     1       5.920   2.734  23.686  0.00  0.00    +0.210 HD
ENDBRANCH  52  53
BRANCH  51  55
ATOM     55  O   UNL     1       8.326   5.122  22.235  0.00  0.00    -0.386 OA
ATOM     56  H   UNL     1       8.477   4.998  21.285  0.00  0.00    +0.210 HD
ENDBRANCH  51  55
BRANCH  50  57
ATOM     57  O   UNL     1       9.145   2.581  21.640  0.00  0.00    -0.383 OA
ATOM     58  H   UNL     1       9.980   2.127  21.860  0.00  0.00    +0.210 HD
ENDBRANCH  50  57
ENDBRANCH  45  49
ENDBRANCH   1  45
TORSDOF 19
ENDMDL
MODEL 4
REMARK VINA RESULT:      -7.2      2.581     10.947
REMARK  Name = 
REMARK  20 active torsions:
REMARK  status: ('A' for Active; 'I' for Inactive)
REMARK    1  A    between atoms: C_1  and  C_2
REMARK    2  A    between atoms: C_4  and  O_59
REMARK    3  A    between atoms: C_6  and  O_58
REMARK    4  A    between atoms: C_8  and  O_57
REMARK    5  A    between atoms: C_10  and  O_13
REMARK    6  A    between atoms: O_13  and  C_14
REMARK    7  A    between atoms: C_16  and  O_56
REMARK    8  A    between atoms: C_21  and  C_48
REMARK    9  A    between atoms: C_22  and  O_25
REMARK   10  A    between atoms: O_25  and  C_26
REMARK   11  A    between atoms: C_28  and  O_47
REMARK   12  A    between atoms: C_30  and  O_46
REMARK   13  A    between atoms: C_32  and  O_45
REMARK   14  A    between atoms: C_34  and  C_37
REMARK   15  A    between atoms: C_37  and  O_38
REMARK   16  A    between atoms: O_38  and  C_39
REMARK   17  A    between atoms: C_39  and  C_41
REMARK   18  A    between atoms: C_41  and  C_42
REMARK   19  A    between atoms: C_50  and  O_55
REMARK   20  A    between atoms: C_51  and  O_54
REMARK                            x       y       z     vdW  Elec       q    Type
REMARK                         _______ _______ _______ _____ _____    ______ ____
ROOT
ATOM      1  C   UNL     1       5.288   2.894  25.176  0.00  0.00    +0.131 A 
ATOM      2  C   UNL     1       5.794   1.755  24.534  0.00  0.00    +0.093 A 
ATOM      3  C   UNL     1       5.551   0.488  25.075  0.00  0.00    +0.147 A 
ATOM      4  O   UNL     1       6.082  -0.618  24.447  0.00  0.00    -0.451 OA
ATOM      5  C   UNL     1       5.682  -1.896  24.868  0.00  0.00    +0.181 A 
ATOM      6  C   UNL     1       4.992  -2.121  26.016  0.00  0.00    +0.214 A 
ATOM      7  C   UNL     1       4.794  -0.923  26.887  0.00  0.00    +0.238 A 
ATOM      8  O   UNL     1       4.716  -0.982  28.103  0.00  0.00    -0.283 OA
ATOM      9  C   UNL     1       4.819   0.380  26.247  0.00  0.00    +0.109 A 
ATOM     10  C   UNL     1       4.254   1.507  26.842  0.00  0.00    +0.135 A 
ATOM     11  C   UNL     1       4.491   2.760  26.313  0.00  0.00    +0.092 A 
ENDROOT
BRANCH   5  12
ATOM     12  C   UNL     1       6.138  -2.977  23.941  0.00  0.00    +0.025 A 
ATOM     13  C   UNL     1       5.422  -3.296  22.768  0.00  0.00    +0.015 A 
ATOM     14  C   UNL     1       5.833  -4.326  21.910  0.00  0.00    +0.050 A 
ATOM     15  C   UNL     1       6.952  -5.069  22.232  0.00  0.00    +0.158 A 
ATOM     16  C   UNL     1       7.657  -4.807  23.400  0.00  0.00    +0.159 A 
ATOM     17  C   UNL     1       7.260  -3.774  24.255  0.00  0.00    +0.060 A 
BRANCH  16  18
ATOM     18  O   UNL     1       8.741  -5.601  23.669  0.00  0.00    -0.503 OA
ATOM     19  H   UNL     1       8.821  -6.259  22.960  0.00  0.00    +0.292 HD
ENDBRANCH  16  18
BRANCH  15  20
ATOM     20  O   UNL     1       7.350  -6.073  21.395  0.00  0.00    -0.503 OA
ATOM     21  H   UNL     1       6.983  -6.887  21.788  0.00  0.00    +0.292 HD
ENDBRANCH  15  20
ENDBRANCH   5  12
BRANCH  10  22
ATOM     22  O   UNL     1       3.436   1.392  27.937  0.00  0.00    -0.506 OA
ATOM     23  H   UNL     1       3.385   0.463  28.216  0.00  0.00    +0.292 HD
ENDBRANCH  10  22
BRANCH   6  24
ATOM     24  O   UNL     1       4.505  -3.378  26.391  0.00  0.00    -0.453 OA
BRANCH  24  25
ATOM     25  C   UNL     1       5.255  -4.083  27.406  0.00  0.00    +0.340 C 
ATOM     26  O   UNL     1       6.119  -5.063  26.814  0.00  0.00    -0.330 OA
ATOM     27  C   UNL     1       5.594  -6.370  26.528  0.00  0.00    +0.191 C 
ATOM     28  C   UNL     1       4.812  -6.954  27.715  0.00  0.00    +0.178 C 
ATOM     29  C   UNL     1       3.715  -5.997  28.195  0.00  0.00    +0.180 C 
ATOM     30  C   UNL     1       4.331  -4.632  28.534  0.00  0.00    +0.214 C 
BRANCH  30  31
ATOM     31  O   UNL     1       5.071  -4.760  29.763  0.00  0.00    -0.383 OA
ATOM     32  H   UNL     1       5.112  -3.857  30.144  0.00  0.00    +0.210 HD
ENDBRANCH  30  31
BRANCH  29  33
ATOM     33  O   UNL     1       2.617  -5.904  27.289  0.00  0.00    -0.386 OA
ATOM     34  H   UNL     1       2.165  -6.762  27.234  0.00  0.00    +0.210 HD
ENDBRANCH  29  33
BRANCH  28  35
ATOM     35  O   UNL     1       5.741  -7.129  28.815  0.00  0.00    -0.386 OA
ATOM     36  H   UNL     1       5.930  -8.084  28.863  0.00  0.00    +0.210 HD
ENDBRANCH  28  35
BRANCH  27  37
ATOM     37  C   UNL     1       4.851  -6.383  25.184  0.00  0.00    +0.266 C 
BRANCH  37  38
ATOM     38  O   UNL     1       4.079  -7.572  24.981  0.00  0.00    -0.462 OA
BRANCH  38  39
ATOM     39  C   UNL     1       3.026  -7.445  24.116  0.00  0.00    +0.313 C 
ATOM     40  O   UNL     1       2.242  -8.352  23.851  0.00  0.00    -0.250 OA
BRANCH  39  41
ATOM     41  C   UNL     1       3.040  -6.121  23.434  0.00  0.00    +0.172 C 
BRANCH  41  42
ATOM     42  C   UNL     1       1.729  -5.404  23.617  0.00  0.00    +0.052 C 
ATOM     43  O   UNL     1       1.568  -4.891  24.763  0.00  0.00    -0.549 OA
ATOM     44  O   UNL     1       0.920  -5.444  22.649  0.00  0.00    -0.549 OA
ENDBRANCH  41  42
ENDBRANCH  39  41
ENDBRANCH  38  39
ENDBRANCH  37  38
ENDBRANCH  27  37
ENDBRANCH  24  25
ENDBRANCH   6  24
BRANCH   1  45
ATOM     45  O   UNL     1       5.498   4.196  24.832  0.00  0.00    -0.461 OA
BRANCH  45  49
ATOM     46  C   UNL     1       9.622   3.804  23.587  0.00  0.00    +0.041 C 
ATOM     47  C   UNL     1       9.099   4.810  24.605  0.00  0.00    +0.150 C 
ATOM     48  O   UNL     1       7.819   4.430  25.119  0.00  0.00    -0.334 OA
ATOM     49  C   UNL     1       6.728   4.556  24.201  0.00  0.00    +0.339 C 
ATOM     50  C   UNL     1       6.569   6.020  23.730  0.00  0.00    +0.214 C 
ATOM     51  C   UNL     1       7.892   6.565  23.181  0.00  0.00    +0.180 C 
ATOM     52  C   UNL     1       9.059   6.273  24.134  0.00  0.00    +0.174 C 
BRANCH  52  53
ATOM     53  O   UNL     1       8.902   7.106  25.298  0.00  0.00    -0.387 OA
ATOM     54  H   UNL     1       8.304   6.649  25.922  0.00  0.00    +0.210 HD
ENDBRANCH  52  53
BRANCH  51  55
ATOM     55  O   UNL     1       8.130   6.074  21.853  0.00  0.00    -0.386 OA
ATOM     56  H   UNL     1       7.304   5.768  21.447  0.00  0.00    +0.210 HD
ENDBRANCH  51  55
BRANCH  50  57
ATOM     57  O   UNL     1       5.541   6.134  22.731  0.00  0.00    -0.383 OA
ATOM     58  H   UNL     1       4.978   6.894  22.971  0.00  0.00    +0.210 HD
ENDBRANCH  50  57
ENDBRANCH  45  49
ENDBRANCH   1  45
TORSDOF 19
ENDMDL
MODEL 5
REMARK VINA RESULT:      -7.1      2.856      5.119
REMARK  Name = 
REMARK  20 active torsions:
REMARK  status: ('A' for Active; 'I' for Inactive)
REMARK    1  A    between atoms: C_1  and  C_2
REMARK    2  A    between atoms: C_4  and  O_59
REMARK    3  A    between atoms: C_6  and  O_58
REMARK    4  A    between atoms: C_8  and  O_57
REMARK    5  A    between atoms: C_10  and  O_13
REMARK    6  A    between atoms: O_13  and  C_14
REMARK    7  A    between atoms: C_16  and  O_56
REMARK    8  A    between atoms: C_21  and  C_48
REMARK    9  A    between atoms: C_22  and  O_25
REMARK   10  A    between atoms: O_25  and  C_26
REMARK   11  A    between atoms: C_28  and  O_47
REMARK   12  A    between atoms: C_30  and  O_46
REMARK   13  A    between atoms: C_32  and  O_45
REMARK   14  A    between atoms: C_34  and  C_37
REMARK   15  A    between atoms: C_37  and  O_38
REMARK   16  A    between atoms: O_38  and  C_39
REMARK   17  A    between atoms: C_39  and  C_41
REMARK   18  A    between atoms: C_41  and  C_42
REMARK   19  A    between atoms: C_50  and  O_55
REMARK   20  A    between atoms: C_51  and  O_54
REMARK                            x       y       z     vdW  Elec       q    Type
REMARK                         _______ _______ _______ _____ _____    ______ ____
ROOT
ATOM      1  C   UNL     1       5.046  -5.977  24.186  0.00  0.00    +0.131 A 
ATOM      2  C   UNL     1       5.206  -4.963  25.140  0.00  0.00    +0.093 A 
ATOM      3  C   UNL     1       5.633  -3.694  24.738  0.00  0.00    +0.147 A 
ATOM      4  O   UNL     1       5.815  -2.718  25.694  0.00  0.00    -0.451 OA
ATOM      5  C   UNL     1       6.050  -1.397  25.282  0.00  0.00    +0.181 A 
ATOM      6  C   UNL     1       6.355  -1.059  24.002  0.00  0.00    +0.214 A 
ATOM      7  C   UNL     1       6.557  -2.209  23.069  0.00  0.00    +0.238 A 
ATOM      8  O   UNL     1       7.317  -2.174  22.115  0.00  0.00    -0.283 OA
ATOM      9  C   UNL     1       5.900  -3.460  23.398  0.00  0.00    +0.109 A 
ATOM     10  C   UNL     1       5.668  -4.447  22.442  0.00  0.00    +0.135 A 
ATOM     11  C   UNL     1       5.248  -5.704  22.833  0.00  0.00    +0.092 A 
ENDROOT
BRANCH   5  12
ATOM     12  C   UNL     1       5.975  -0.418  26.410  0.00  0.00    +0.025 A 
ATOM     13  C   UNL     1       4.813   0.343  26.651  0.00  0.00    +0.015 A 
ATOM     14  C   UNL     1       4.747   1.280  27.692  0.00  0.00    +0.050 A 
ATOM     15  C   UNL     1       5.858   1.487  28.488  0.00  0.00    +0.158 A 
ATOM     16  C   UNL     1       7.031   0.781  28.252  0.00  0.00    +0.159 A 
ATOM     17  C   UNL     1       7.101  -0.163  27.223  0.00  0.00    +0.060 A 
BRANCH  16  18
ATOM     18  O   UNL     1       8.101   1.056  29.064  0.00  0.00    -0.503 OA
ATOM     19  H   UNL     1       8.135   0.384  29.764  0.00  0.00    +0.292 HD
ENDBRANCH  16  18
BRANCH  15  20
ATOM     20  O   UNL     1       5.792   2.400  29.501  0.00  0.00    -0.503 OA
ATOM     21  H   UNL     1       6.698   2.439  29.863  0.00  0.00    +0.292 HD
ENDBRANCH  15  20
ENDBRANCH   5  12
BRANCH  10  22
ATOM     22  O   UNL     1       5.823  -4.186  21.105  0.00  0.00    -0.506 OA
ATOM     23  H   UNL     1       6.768  -4.140  20.884  0.00  0.00    +0.292 HD
ENDBRANCH  10  22
BRANCH   6  24
ATOM     24  O   UNL     1       6.493   0.263  23.564  0.00  0.00    -0.453 OA
BRANCH  24  25
ATOM     25  C   UNL     1       7.820   0.676  23.168  0.00  0.00    +0.340 C 
ATOM     26  O   UNL     1       8.506   1.306  24.259  0.00  0.00    -0.330 OA
ATOM     27  C   UNL     1       8.314   2.712  24.480  0.00  0.00    +0.191 C 
ATOM     28  C   UNL     1       8.450   3.528  23.185  0.00  0.00    +0.178 C 
ATOM     29  C   UNL     1       7.525   2.998  22.084  0.00  0.00    +0.180 C 
ATOM     30  C   UNL     1       7.802   1.506  21.850  0.00  0.00    +0.214 C 
BRANCH  30  31
ATOM     31  O   UNL     1       9.062   1.379  21.165  0.00  0.00    -0.383 OA
ATOM     32  H   UNL     1       9.214   2.243  20.726  0.00  0.00    +0.210 HD
ENDBRANCH  30  31
BRANCH  29  33
ATOM     33  O   UNL     1       6.148   3.280  22.326  0.00  0.00    -0.386 OA
ATOM     34  H   UNL     1       6.015   4.241  22.377  0.00  0.00    +0.210 HD
ENDBRANCH  29  33
BRANCH  28  35
ATOM     35  O   UNL     1       9.812   3.381  22.710  0.00  0.00    -0.386 OA
ATOM     36  H   UNL     1      10.154   4.285  22.576  0.00  0.00    +0.210 HD
ENDBRANCH  28  35
BRANCH  27  37
ATOM     37  C   UNL     1       7.034   2.973  25.287  0.00  0.00    +0.266 C 
BRANCH  37  38
ATOM     38  O   UNL     1       6.504   4.289  25.090  0.00  0.00    -0.462 OA
BRANCH  38  39
ATOM     39  C   UNL     1       5.381   4.582  25.814  0.00  0.00    +0.313 C 
ATOM     40  O   UNL     1       5.343   4.615  27.041  0.00  0.00    -0.250 OA
BRANCH  39  41
ATOM     41  C   UNL     1       4.187   4.712  24.934  0.00  0.00    +0.172 C 
BRANCH  41  42
ATOM     42  C   UNL     1       3.417   3.420  24.872  0.00  0.00    +0.052 C 
ATOM     43  O   UNL     1       2.495   3.318  25.734  0.00  0.00    -0.549 OA
ATOM     44  O   UNL     1       3.804   2.567  24.025  0.00  0.00    -0.549 OA
ENDBRANCH  41  42
ENDBRANCH  39  41
ENDBRANCH  38  39
ENDBRANCH  37  38
ENDBRANCH  27  37
ENDBRANCH  24  25
ENDBRANCH   6  24
BRANCH   1  45
ATOM     45  O   UNL     1       4.719  -7.281  24.415  0.00  0.00    -0.461 OA
BRANCH  45  49
ATOM     46  C   UNL     1       0.717  -8.850  23.933  0.00  0.00    +0.041 C 
ATOM     47  C   UNL     1       1.079  -7.374  24.050  0.00  0.00    +0.150 C 
ATOM     48  O   UNL     1       2.463  -7.142  23.772  0.00  0.00    -0.334 OA
ATOM     49  C   UNL     1       3.375  -7.606  24.773  0.00  0.00    +0.339 C 
ATOM     50  C   UNL     1       3.103  -6.918  26.130  0.00  0.00    +0.214 C 
ATOM     51  C   UNL     1       1.631  -7.064  26.533  0.00  0.00    +0.180 C 
ATOM     52  C   UNL     1       0.693  -6.697  25.375  0.00  0.00    +0.174 C 
BRANCH  52  53
ATOM     53  O   UNL     1       0.763  -5.273  25.180  0.00  0.00    -0.387 OA
ATOM     54  H   UNL     1       1.033  -5.105  24.255  0.00  0.00    +0.210 HD
ENDBRANCH  52  53
BRANCH  51  55
ATOM     55  O   UNL     1       1.377  -8.379  27.052  0.00  0.00    -0.386 OA
ATOM     56  H   UNL     1       1.738  -8.470  27.948  0.00  0.00    +0.210 HD
ENDBRANCH  51  55
BRANCH  50  57
ATOM     57  O   UNL     1       3.948  -7.453  27.162  0.00  0.00    -0.383 OA
ATOM     58  H   UNL     1       4.859  -7.481  26.814  0.00  0.00    +0.210 HD
ENDBRANCH  50  57
ENDBRANCH  45  49
ENDBRANCH   1  45
TORSDOF 19
ENDMDL
MODEL 6
REMARK VINA RESULT:      -7.0      2.583      9.689
REMARK  Name = 
REMARK  20 active torsions:
REMARK  status: ('A' for Active; 'I' for Inactive)
REMARK    1  A    between atoms: C_1  and  C_2
REMARK    2  A    between atoms: C_4  and  O_59
REMARK    3  A    between atoms: C_6  and  O_58
REMARK    4  A    between atoms: C_8  and  O_57
REMARK    5  A    between atoms: C_10  and  O_13
REMARK    6  A    between atoms: O_13  and  C_14
REMARK    7  A    between atoms: C_16  and  O_56
REMARK    8  A    between atoms: C_21  and  C_48
REMARK    9  A    between atoms: C_22  and  O_25
REMARK   10  A    between atoms: O_25  and  C_26
REMARK   11  A    between atoms: C_28  and  O_47
REMARK   12  A    between atoms: C_30  and  O_46
REMARK   13  A    between atoms: C_32  and  O_45
REMARK   14  A    between atoms: C_34  and  C_37
REMARK   15  A    between atoms: C_37  and  O_38
REMARK   16  A    between atoms: O_38  and  C_39
REMARK   17  A    between atoms: C_39  and  C_41
REMARK   18  A    between atoms: C_41  and  C_42
REMARK   19  A    between atoms: C_50  and  O_55
REMARK   20  A    between atoms: C_51  and  O_54
REMARK                            x       y       z     vdW  Elec       q    Type
REMARK                         _______ _______ _______ _____ _____    ______ ____
ROOT
ATOM      1  C   UNL     1       9.748   1.321  23.543  0.00  0.00    +0.131 A 
ATOM      2  C   UNL     1       8.630   1.199  24.377  0.00  0.00    +0.093 A 
ATOM      3  C   UNL     1       7.875   0.021  24.359  0.00  0.00    +0.147 A 
ATOM      4  O   UNL     1       6.761  -0.069  25.164  0.00  0.00    -0.451 OA
ATOM      5  C   UNL     1       6.117  -1.309  25.298  0.00  0.00    +0.181 A 
ATOM      6  C   UNL     1       6.374  -2.373  24.494  0.00  0.00    +0.214 A 
ATOM      7  C   UNL     1       7.303  -2.102  23.355  0.00  0.00    +0.238 A 
ATOM      8  O   UNL     1       7.241  -2.684  22.284  0.00  0.00    -0.283 OA
ATOM      9  C   UNL     1       8.243  -1.006  23.505  0.00  0.00    +0.109 A 
ATOM     10  C   UNL     1       9.399  -0.913  22.731  0.00  0.00    +0.135 A 
ATOM     11  C   UNL     1      10.147   0.249  22.744  0.00  0.00    +0.092 A 
ENDROOT
BRANCH   5  12
ATOM     12  C   UNL     1       5.091  -1.313  26.386  0.00  0.00    +0.025 A 
ATOM     13  C   UNL     1       4.058  -0.353  26.431  0.00  0.00    +0.015 A 
ATOM     14  C   UNL     1       3.110  -0.338  27.463  0.00  0.00    +0.050 A 
ATOM     15  C   UNL     1       3.202  -1.268  28.482  0.00  0.00    +0.158 A 
ATOM     16  C   UNL     1       4.231  -2.202  28.488  0.00  0.00    +0.159 A 
ATOM     17  C   UNL     1       5.174  -2.231  27.456  0.00  0.00    +0.060 A 
BRANCH  16  18
ATOM     18  O   UNL     1       4.276  -3.076  29.542  0.00  0.00    -0.503 OA
ATOM     19  H   UNL     1       3.368  -3.239  29.844  0.00  0.00    +0.292 HD
ENDBRANCH  16  18
BRANCH  15  20
ATOM     20  O   UNL     1       2.278  -1.251  29.487  0.00  0.00    -0.503 OA
ATOM     21  H   UNL     1       2.591  -1.919  30.126  0.00  0.00    +0.292 HD
ENDBRANCH  15  20
ENDBRANCH   5  12
BRANCH  10  22
ATOM     22  O   UNL     1       9.827  -1.970  21.971  0.00  0.00    -0.506 OA
ATOM     23  H   UNL     1       9.582  -2.806  22.399  0.00  0.00    +0.292 HD
ENDBRANCH  10  22
BRANCH   6  24
ATOM     24  O   UNL     1       5.810  -3.640  24.683  0.00  0.00    -0.453 OA
BRANCH  24  25
ATOM     25  C   UNL     1       5.035  -4.171  23.585  0.00  0.00    +0.340 C 
ATOM     26  O   UNL     1       3.631  -4.015  23.828  0.00  0.00    -0.330 OA
ATOM     27  C   UNL     1       2.940  -5.022  24.585  0.00  0.00    +0.191 C 
ATOM     28  C   UNL     1       3.272  -6.442  24.102  0.00  0.00    +0.178 C 
ATOM     29  C   UNL     1       4.784  -6.691  24.076  0.00  0.00    +0.180 C 
ATOM     30  C   UNL     1       5.471  -5.621  23.216  0.00  0.00    +0.214 C 
BRANCH  30  31
ATOM     31  O   UNL     1       5.175  -5.892  21.833  0.00  0.00    -0.383 OA
ATOM     32  H   UNL     1       6.020  -6.193  21.435  0.00  0.00    +0.210 HD
ENDBRANCH  30  31
BRANCH  29  33
ATOM     33  O   UNL     1       5.353  -6.811  25.379  0.00  0.00    -0.386 OA
ATOM     34  H   UNL     1       6.195  -7.293  25.324  0.00  0.00    +0.210 HD
ENDBRANCH  29  33
BRANCH  28  35
ATOM     35  O   UNL     1       2.793  -6.569  22.739  0.00  0.00    -0.386 OA
ATOM     36  H   UNL     1       2.711  -7.526  22.566  0.00  0.00    +0.210 HD
ENDBRANCH  28  35
BRANCH  27  37
ATOM     37  C   UNL     1       3.108  -4.787  26.093  0.00  0.00    +0.266 C 
BRANCH  37  38
ATOM     38  O   UNL     1       3.051  -5.997  26.859  0.00  0.00    -0.462 OA
BRANCH  38  39
ATOM     39  C   UNL     1       2.803  -5.832  28.194  0.00  0.00    +0.313 C 
ATOM     40  O   UNL     1       2.114  -4.927  28.659  0.00  0.00    -0.250 OA
BRANCH  39  41
ATOM     41  C   UNL     1       3.587  -6.796  29.016  0.00  0.00    +0.172 C 
BRANCH  41  42
ATOM     42  C   UNL     1       5.066  -6.557  28.868  0.00  0.00    +0.052 C 
ATOM     43  O   UNL     1       5.702  -7.517  28.344  0.00  0.00    -0.549 OA
ATOM     44  O   UNL     1       5.514  -5.470  29.329  0.00  0.00    -0.549 OA
ENDBRANCH  41  42
ENDBRANCH  39  41
ENDBRANCH  38  39
ENDBRANCH  37  38
ENDBRANCH  27  37
ENDBRANCH  24  25
ENDBRANCH   6  24
BRANCH   1  45
ATOM     45  O   UNL     1      10.539   2.420  23.377  0.00  0.00    -0.461 OA
BRANCH  45  49
ATOM     46  C   UNL     1       8.141   5.145  25.730  0.00  0.00    +0.041 C 
ATOM     47  C   UNL     1       8.192   5.103  24.208  0.00  0.00    +0.150 C 
ATOM     48  O   UNL     1       8.716   3.861  23.727  0.00  0.00    -0.334 OA
ATOM     49  C   UNL     1      10.118   3.666  23.935  0.00  0.00    +0.339 C 
ATOM     50  C   UNL     1      10.940   4.765  23.225  0.00  0.00    +0.214 C 
ATOM     51  C   UNL     1      10.453   6.161  23.631  0.00  0.00    +0.180 C 
ATOM     52  C   UNL     1       8.926   6.273  23.533  0.00  0.00    +0.174 C 
BRANCH  52  53
ATOM     53  O   UNL     1       8.568   6.274  22.139  0.00  0.00    -0.387 OA
ATOM     54  H   UNL     1       7.723   6.757  22.041  0.00  0.00    +0.210 HD
ENDBRANCH  52  53
BRANCH  51  55
ATOM     55  O   UNL     1      10.949   6.512  24.932  0.00  0.00    -0.386 OA
ATOM     56  H   UNL     1      11.675   7.152  24.862  0.00  0.00    +0.210 HD
ENDBRANCH  51  55
BRANCH  50  57
ATOM     57  O   UNL     1      12.342   4.633  23.514  0.00  0.00    -0.383 OA
ATOM     58  H   UNL     1      12.565   3.685  23.474  0.00  0.00    +0.210 HD
ENDBRANCH  50  57
ENDBRANCH  45  49
ENDBRANCH   1  45
TORSDOF 19
ENDMDL
MODEL 7
REMARK VINA RESULT:      -7.0      2.272      4.946
REMARK  Name = 
REMARK  20 active torsions:
REMARK  status: ('A' for Active; 'I' for Inactive)
REMARK    1  A    between atoms: C_1  and  C_2
REMARK    2  A    between atoms: C_4  and  O_59
REMARK    3  A    between atoms: C_6  and  O_58
REMARK    4  A    between atoms: C_8  and  O_57
REMARK    5  A    between atoms: C_10  and  O_13
REMARK    6  A    between atoms: O_13  and  C_14
REMARK    7  A    between atoms: C_16  and  O_56
REMARK    8  A    between atoms: C_21  and  C_48
REMARK    9  A    between atoms: C_22  and  O_25
REMARK   10  A    between atoms: O_25  and  C_26
REMARK   11  A    between atoms: C_28  and  O_47
REMARK   12  A    between atoms: C_30  and  O_46
REMARK   13  A    between atoms: C_32  and  O_45
REMARK   14  A    between atoms: C_34  and  C_37
REMARK   15  A    between atoms: C_37  and  O_38
REMARK   16  A    between atoms: O_38  and  C_39
REMARK   17  A    between atoms: C_39  and  C_41
REMARK   18  A    between atoms: C_41  and  C_42
REMARK   19  A    between atoms: C_50  and  O_55
REMARK   20  A    between atoms: C_51  and  O_54
REMARK                            x       y       z     vdW  Elec       q    Type
REMARK                         _______ _______ _______ _____ _____    ______ ____
ROOT
ATOM      1  C   UNL     1       5.940  -5.507  25.489  0.00  0.00    +0.131 A 
ATOM      2  C   UNL     1       5.926  -4.329  26.248  0.00  0.00    +0.093 A 
ATOM      3  C   UNL     1       6.475  -3.156  25.719  0.00  0.00    +0.147 A 
ATOM      4  O   UNL     1       6.480  -2.015  26.492  0.00  0.00    -0.451 OA
ATOM      5  C   UNL     1       6.846  -0.795  25.902  0.00  0.00    +0.181 A 
ATOM      6  C   UNL     1       7.433  -0.705  24.680  0.00  0.00    +0.214 A 
ATOM      7  C   UNL     1       7.791  -2.010  24.046  0.00  0.00    +0.238 A 
ATOM      8  O   UNL     1       8.740  -2.152  23.293  0.00  0.00    -0.283 OA
ATOM      9  C   UNL     1       7.034  -3.180  24.451  0.00  0.00    +0.109 A 
ATOM     10  C   UNL     1       6.980  -4.332  23.669  0.00  0.00    +0.135 A 
ATOM     11  C   UNL     1       6.440  -5.494  24.186  0.00  0.00    +0.092 A 
ENDROOT
BRANCH   5  12
ATOM     12  C   UNL     1       6.564   0.380  26.783  0.00  0.00    +0.025 A 
ATOM     13  C   UNL     1       7.288   0.602  27.973  0.00  0.00    +0.015 A 
ATOM     14  C   UNL     1       7.009   1.689  28.814  0.00  0.00    +0.050 A 
ATOM     15  C   UNL     1       5.980   2.551  28.487  0.00  0.00    +0.158 A 
ATOM     16  C   UNL     1       5.221   2.337  27.343  0.00  0.00    +0.159 A 
ATOM     17  C   UNL     1       5.501   1.263  26.493  0.00  0.00    +0.060 A 
BRANCH  16  18
ATOM     18  O   UNL     1       4.200   3.217  27.095  0.00  0.00    -0.503 OA
ATOM     19  H   UNL     1       4.531   3.913  26.505  0.00  0.00    +0.292 HD
ENDBRANCH  16  18
BRANCH  15  20
ATOM     20  O   UNL     1       5.709   3.608  29.308  0.00  0.00    -0.503 OA
ATOM     21  H   UNL     1       5.873   4.400  28.761  0.00  0.00    +0.292 HD
ENDBRANCH  15  20
ENDBRANCH   5  12
BRANCH  10  22
ATOM     22  O   UNL     1       7.430  -4.329  22.374  0.00  0.00    -0.506 OA
ATOM     23  H   UNL     1       6.692  -4.149  21.768  0.00  0.00    +0.292 HD
ENDBRANCH  10  22
BRANCH   6  24
ATOM     24  O   UNL     1       7.710   0.511  24.044  0.00  0.00    -0.453 OA
BRANCH  24  25
ATOM     25  C   UNL     1       8.901   1.207  24.475  0.00  0.00    +0.340 C 
ATOM     26  O   UNL     1       8.660   2.617  24.576  0.00  0.00    -0.330 OA
ATOM     27  C   UNL     1       8.807   3.433  23.402  0.00  0.00    +0.191 C 
ATOM     28  C   UNL     1      10.115   3.139  22.651  0.00  0.00    +0.178 C 
ATOM     29  C   UNL     1      10.256   1.648  22.324  0.00  0.00    +0.180 C 
ATOM     30  C   UNL     1      10.141   0.823  23.614  0.00  0.00    +0.214 C 
BRANCH  30  31
ATOM     31  O   UNL     1      11.350   1.001  24.377  0.00  0.00    -0.383 OA
ATOM     32  H   UNL     1      11.059   1.167  25.299  0.00  0.00    +0.210 HD
ENDBRANCH  30  31
BRANCH  29  33
ATOM     33  O   UNL     1       9.363   1.212  21.301  0.00  0.00    -0.386 OA
ATOM     34  H   UNL     1       8.921   0.393  21.580  0.00  0.00    +0.210 HD
ENDBRANCH  29  33
BRANCH  28  35
ATOM     35  O   UNL     1      11.217   3.493  23.524  0.00  0.00    -0.386 OA
ATOM     36  H   UNL     1      11.763   2.690  23.616  0.00  0.00    +0.210 HD
ENDBRANCH  28  35
BRANCH  27  37
ATOM     37  C   UNL     1       7.535   3.395  22.542  0.00  0.00    +0.266 C 
BRANCH  37  38
ATOM     38  O   UNL     1       6.631   4.468  22.830  0.00  0.00    -0.462 OA
BRANCH  38  39
ATOM     39  C   UNL     1       5.679   4.194  23.773  0.00  0.00    +0.313 C 
ATOM     40  O   UNL     1       5.568   4.801  24.835  0.00  0.00    -0.250 OA
BRANCH  39  41
ATOM     41  C   UNL     1       4.893   2.981  23.414  0.00  0.00    +0.172 C 
BRANCH  41  42
ATOM     42  C   UNL     1       3.416   3.229  23.565  0.00  0.00    +0.052 C 
ATOM     43  O   UNL     1       2.937   4.057  22.736  0.00  0.00    -0.549 OA
ATOM     44  O   UNL     1       2.836   2.643  24.521  0.00  0.00    -0.549 OA
ENDBRANCH  41  42
ENDBRANCH  39  41
ENDBRANCH  38  39
ENDBRANCH  37  38
ENDBRANCH  27  37
ENDBRANCH  24  25
ENDBRANCH   6  24
BRANCH   1  45
ATOM     45  O   UNL     1       5.525  -6.745  25.879  0.00  0.00    -0.461 OA
BRANCH  45  49
ATOM     46  C   UNL     1       1.239  -7.159  26.287  0.00  0.00    +0.041 C 
ATOM     47  C   UNL     1       2.048  -5.926  26.673  0.00  0.00    +0.150 C 
ATOM     48  O   UNL     1       3.333  -5.915  26.044  0.00  0.00    -0.334 OA
ATOM     49  C   UNL     1       4.268  -6.877  26.544  0.00  0.00    +0.339 C 
ATOM     50  C   UNL     1       4.540  -6.653  28.048  0.00  0.00    +0.214 C 
ATOM     51  C   UNL     1       3.229  -6.610  28.842  0.00  0.00    +0.180 C 
ATOM     52  C   UNL     1       2.204  -5.678  28.182  0.00  0.00    +0.174 C 
BRANCH  52  53
ATOM     53  O   UNL     1       2.655  -4.323  28.361  0.00  0.00    -0.387 OA
ATOM     54  H   UNL     1       3.006  -4.236  29.271  0.00  0.00    +0.210 HD
ENDBRANCH  52  53
BRANCH  51  55
ATOM     55  O   UNL     1       2.716  -7.937  29.044  0.00  0.00    -0.386 OA
ATOM     56  H   UNL     1       2.728  -8.439  28.214  0.00  0.00    +0.210 HD
ENDBRANCH  51  55
BRANCH  50  57
ATOM     57  O   UNL     1       5.398  -7.677  28.578  0.00  0.00    -0.383 OA
ATOM     58  H   UNL     1       6.321  -7.403  28.418  0.00  0.00    +0.210 HD
ENDBRANCH  50  57
ENDBRANCH  45  49
ENDBRANCH   1  45
TORSDOF 19
ENDMDL
MODEL 8
REMARK VINA RESULT:      -6.9      2.319      4.822
REMARK  Name = 
REMARK  20 active torsions:
REMARK  status: ('A' for Active; 'I' for Inactive)
REMARK    1  A    between atoms: C_1  and  C_2
REMARK    2  A    between atoms: C_4  and  O_59
REMARK    3  A    between atoms: C_6  and  O_58
REMARK    4  A    between atoms: C_8  and  O_57
REMARK    5  A    between atoms: C_10  and  O_13
REMARK    6  A    between atoms: O_13  and  C_14
REMARK    7  A    between atoms: C_16  and  O_56
REMARK    8  A    between atoms: C_21  and  C_48
REMARK    9  A    between atoms: C_22  and  O_25
REMARK   10  A    between atoms: O_25  and  C_26
REMARK   11  A    between atoms: C_28  and  O_47
REMARK   12  A    between atoms: C_30  and  O_46
REMARK   13  A    between atoms: C_32  and  O_45
REMARK   14  A    between atoms: C_34  and  C_37
REMARK   15  A    between atoms: C_37  and  O_38
REMARK   16  A    between atoms: O_38  and  C_39
REMARK   17  A    between atoms: C_39  and  C_41
REMARK   18  A    between atoms: C_41  and  C_42
REMARK   19  A    between atoms: C_50  and  O_55
REMARK   20  A    between atoms: C_51  and  O_54
REMARK                            x       y       z     vdW  Elec       q    Type
REMARK                         _______ _______ _______ _____ _____    ______ ____
ROOT
ATOM      1  C   UNL     1       4.464  -3.322  27.337  0.00  0.00    +0.131 A 
ATOM      2  C   UNL     1       5.220  -2.693  26.339  0.00  0.00    +0.093 A 
ATOM      3  C   UNL     1       5.434  -1.313  26.397  0.00  0.00    +0.147 A 
ATOM      4  O   UNL     1       6.153  -0.707  25.390  0.00  0.00    -0.451 OA
ATOM      5  C   UNL     1       6.538   0.635  25.541  0.00  0.00    +0.181 A 
ATOM      6  C   UNL     1       6.037   1.450  26.506  0.00  0.00    +0.214 A 
ATOM      7  C   UNL     1       4.937   0.862  27.329  0.00  0.00    +0.238 A 
ATOM      8  O   UNL     1       4.038   1.525  27.820  0.00  0.00    -0.283 OA
ATOM      9  C   UNL     1       4.884  -0.584  27.440  0.00  0.00    +0.109 A 
ATOM     10  C   UNL     1       4.196  -1.222  28.472  0.00  0.00    +0.135 A 
ATOM     11  C   UNL     1       3.982  -2.585  28.419  0.00  0.00    +0.092 A 
ENDROOT
BRANCH   5  12
ATOM     12  C   UNL     1       7.517   1.075  24.500  0.00  0.00    +0.025 A 
ATOM     13  C   UNL     1       7.094   1.524  23.231  0.00  0.00    +0.015 A 
ATOM     14  C   UNL     1       8.010   1.914  22.244  0.00  0.00    +0.050 A 
ATOM     15  C   UNL     1       9.365   1.832  22.506  0.00  0.00    +0.158 A 
ATOM     16  C   UNL     1       9.814   1.356  23.732  0.00  0.00    +0.159 A 
ATOM     17  C   UNL     1       8.907   0.977  24.726  0.00  0.00    +0.060 A 
BRANCH  16  18
ATOM     18  O   UNL     1      11.171   1.277  23.914  0.00  0.00    -0.503 OA
ATOM     19  H   UNL     1      11.511   0.554  23.363  0.00  0.00    +0.292 HD
ENDBRANCH  16  18
BRANCH  15  20
ATOM     20  O   UNL     1      10.255   2.211  21.543  0.00  0.00    -0.503 OA
ATOM     21  H   UNL     1       9.898   1.844  20.712  0.00  0.00    +0.292 HD
ENDBRANCH  15  20
ENDBRANCH   5  12
BRANCH  10  22
ATOM     22  O   UNL     1       3.749  -0.520  29.561  0.00  0.00    -0.506 OA
ATOM     23  H   UNL     1       4.021  -0.969  30.378  0.00  0.00    +0.292 HD
ENDBRANCH  10  22
BRANCH   6  24
ATOM     24  O   UNL     1       6.487   2.756  26.724  0.00  0.00    -0.453 OA
BRANCH  24  25
ATOM     25  C   UNL     1       5.619   3.821  26.276  0.00  0.00    +0.340 C 
ATOM     26  O   UNL     1       6.003   4.280  24.973  0.00  0.00    -0.330 OA
ATOM     27  C   UNL     1       7.020   5.289  24.864  0.00  0.00    +0.191 C 
ATOM     28  C   UNL     1       6.779   6.463  25.825  0.00  0.00    +0.178 C 
ATOM     29  C   UNL     1       6.611   5.985  27.271  0.00  0.00    +0.180 C 
ATOM     30  C   UNL     1       5.482   4.947  27.344  0.00  0.00    +0.214 C 
BRANCH  30  31
ATOM     31  O   UNL     1       4.224   5.631  27.186  0.00  0.00    -0.383 OA
ATOM     32  H   UNL     1       3.628   4.992  26.741  0.00  0.00    +0.210 HD
ENDBRANCH  30  31
BRANCH  29  33
ATOM     33  O   UNL     1       7.829   5.526  27.855  0.00  0.00    -0.386 OA
ATOM     34  H   UNL     1       7.958   4.586  27.647  0.00  0.00    +0.210 HD
ENDBRANCH  29  33
BRANCH  28  35
ATOM     35  O   UNL     1       5.538   7.105  25.437  0.00  0.00    -0.386 OA
ATOM     36  H   UNL     1       5.527   7.972  25.885  0.00  0.00    +0.210 HD
ENDBRANCH  28  35
BRANCH  27  37
ATOM     37  C   UNL     1       8.422   4.665  24.930  0.00  0.00    +0.266 C 
BRANCH  37  38
ATOM     38  O   UNL     1       9.449   5.622  25.215  0.00  0.00    -0.462 OA
BRANCH  38  39
ATOM     39  C   UNL     1      10.098   6.127  24.122  0.00  0.00    +0.313 C 
ATOM     40  O   UNL     1       9.540   6.428  23.070  0.00  0.00    -0.250 OA
BRANCH  39  41
ATOM     41  C   UNL     1      11.574   6.130  24.320  0.00  0.00    +0.172 C 
BRANCH  41  42
ATOM     42  C   UNL     1      12.258   5.255  23.303  0.00  0.00    +0.052 C 
ATOM     43  O   UNL     1      11.884   4.046  23.317  0.00  0.00    -0.549 OA
ATOM     44  O   UNL     1      13.158   5.795  22.601  0.00  0.00    -0.549 OA
ENDBRANCH  41  42
ENDBRANCH  39  41
ENDBRANCH  38  39
ENDBRANCH  37  38
ENDBRANCH  27  37
ENDBRANCH  24  25
ENDBRANCH   6  24
BRANCH   1  45
ATOM     45  O   UNL     1       4.094  -4.634  27.390  0.00  0.00    -0.461 OA
BRANCH  45  49
ATOM     46  C   UNL     1       2.015  -5.396  23.674  0.00  0.00    +0.041 C 
ATOM     47  C   UNL     1       1.910  -6.245  24.935  0.00  0.00    +0.150 C 
ATOM     48  O   UNL     1       2.351  -5.533  26.095  0.00  0.00    -0.334 OA
ATOM     49  C   UNL     1       3.763  -5.309  26.176  0.00  0.00    +0.339 C 
ATOM     50  C   UNL     1       4.534  -6.648  26.192  0.00  0.00    +0.214 C 
ATOM     51  C   UNL     1       4.125  -7.530  25.007  0.00  0.00    +0.180 C 
ATOM     52  C   UNL     1       2.599  -7.618  24.873  0.00  0.00    +0.174 C 
BRANCH  52  53
ATOM     53  O   UNL     1       2.101  -8.411  25.966  0.00  0.00    -0.387 OA
ATOM     54  H   UNL     1       1.603  -7.823  26.568  0.00  0.00    +0.210 HD
ENDBRANCH  52  53
BRANCH  51  55
ATOM     55  O   UNL     1       4.759  -7.082  23.799  0.00  0.00    -0.386 OA
ATOM     56  H   UNL     1       5.681  -6.831  23.968  0.00  0.00    +0.210 HD
ENDBRANCH  51  55
BRANCH  50  57
ATOM     57  O   UNL     1       5.955  -6.428  26.170  0.00  0.00    -0.383 OA
ATOM     58  H   UNL     1       6.251  -6.308  27.092  0.00  0.00    +0.210 HD
ENDBRANCH  50  57
ENDBRANCH  45  49
ENDBRANCH   1  45
TORSDOF 19
ENDMDL
MODEL 9
REMARK VINA RESULT:      -6.9      2.862      9.743
REMARK  Name = 
REMARK  20 active torsions:
REMARK  status: ('A' for Active; 'I' for Inactive)
REMARK    1  A    between atoms: C_1  and  C_2
REMARK    2  A    between atoms: C_4  and  O_59
REMARK    3  A    between atoms: C_6  and  O_58
REMARK    4  A    between atoms: C_8  and  O_57
REMARK    5  A    between atoms: C_10  and  O_13
REMARK    6  A    between atoms: O_13  and  C_14
REMARK    7  A    between atoms: C_16  and  O_56
REMARK    8  A    between atoms: C_21  and  C_48
REMARK    9  A    between atoms: C_22  and  O_25
REMARK   10  A    between atoms: O_25  and  C_26
REMARK   11  A    between atoms: C_28  and  O_47
REMARK   12  A    between atoms: C_30  and  O_46
REMARK   13  A    between atoms: C_32  and  O_45
REMARK   14  A    between atoms: C_34  and  C_37
REMARK   15  A    between atoms: C_37  and  O_38
REMARK   16  A    between atoms: O_38  and  C_39
REMARK   17  A    between atoms: C_39  and  C_41
REMARK   18  A    between atoms: C_41  and  C_42
REMARK   19  A    between atoms: C_50  and  O_55
REMARK   20  A    between atoms: C_51  and  O_54
REMARK                            x       y       z     vdW  Elec       q    Type
REMARK                         _______ _______ _______ _____ _____    ______ ____
ROOT
ATOM      1  C   UNL     1       7.678   0.855  23.437  0.00  0.00    +0.131 A 
ATOM      2  C   UNL     1       6.683   0.655  24.403  0.00  0.00    +0.093 A 
ATOM      3  C   UNL     1       6.038  -0.583  24.490  0.00  0.00    +0.147 A 
ATOM      4  O   UNL     1       5.041  -0.751  25.426  0.00  0.00    -0.451 OA
ATOM      5  C   UNL     1       4.529  -2.039  25.651  0.00  0.00    +0.181 A 
ATOM      6  C   UNL     1       4.780  -3.094  24.832  0.00  0.00    +0.214 A 
ATOM      7  C   UNL     1       5.537  -2.768  23.586  0.00  0.00    +0.238 A 
ATOM      8  O   UNL     1       5.397  -3.376  22.537  0.00  0.00    -0.283 OA
ATOM      9  C   UNL     1       6.389  -1.593  23.608  0.00  0.00    +0.109 A 
ATOM     10  C   UNL     1       7.430  -1.417  22.698  0.00  0.00    +0.135 A 
ATOM     11  C   UNL     1       8.070  -0.197  22.608  0.00  0.00    +0.092 A 
ENDROOT
BRANCH   5  12
ATOM     12  C   UNL     1       3.647  -2.106  26.856  0.00  0.00    +0.025 A 
ATOM     13  C   UNL     1       2.288  -1.733  26.799  0.00  0.00    +0.015 A 
ATOM     14  C   UNL     1       1.464  -1.771  27.932  0.00  0.00    +0.050 A 
ATOM     15  C   UNL     1       2.000  -2.158  29.146  0.00  0.00    +0.158 A 
ATOM     16  C   UNL     1       3.344  -2.494  29.245  0.00  0.00    +0.159 A 
ATOM     17  C   UNL     1       4.169  -2.470  28.116  0.00  0.00    +0.060 A 
BRANCH  16  18
ATOM     18  O   UNL     1       3.813  -2.842  30.485  0.00  0.00    -0.503 OA
ATOM     19  H   UNL     1       3.082  -2.773  31.119  0.00  0.00    +0.292 HD
ENDBRANCH  16  18
BRANCH  15  20
ATOM     20  O   UNL     1       1.196  -2.194  30.249  0.00  0.00    -0.503 OA
ATOM     21  H   UNL     1       1.001  -3.140  30.387  0.00  0.00    +0.292 HD
ENDBRANCH  15  20
ENDBRANCH   5  12
BRANCH  10  22
ATOM     22  O   UNL     1       7.854  -2.450  21.903  0.00  0.00    -0.506 OA
ATOM     23  H   UNL     1       7.582  -3.299  22.289  0.00  0.00    +0.292 HD
ENDBRANCH  10  22
BRANCH   6  24
ATOM     24  O   UNL     1       4.355  -4.399  25.103  0.00  0.00    -0.453 OA
BRANCH  24  25
ATOM     25  C   UNL     1       2.958  -4.684  24.870  0.00  0.00    +0.340 C 
ATOM     26  O   UNL     1       2.357  -5.279  26.028  0.00  0.00    -0.330 OA
ATOM     27  C   UNL     1       2.447  -6.702  26.204  0.00  0.00    +0.191 C 
ATOM     28  C   UNL     1       2.081  -7.470  24.924  0.00  0.00    +0.178 C 
ATOM     29  C   UNL     1       2.908  -6.995  23.724  0.00  0.00    +0.180 C 
ATOM     30  C   UNL     1       2.740  -5.479  23.548  0.00  0.00    +0.214 C 
BRANCH  30  31
ATOM     31  O   UNL     1       1.422  -5.226  23.027  0.00  0.00    -0.383 OA
ATOM     32  H   UNL     1       1.505  -5.291  22.051  0.00  0.00    +0.210 HD
ENDBRANCH  30  31
BRANCH  29  33
ATOM     33  O   UNL     1       4.273  -7.402  23.789  0.00  0.00    -0.386 OA
ATOM     34  H   UNL     1       4.407  -7.976  24.562  0.00  0.00    +0.210 HD
ENDBRANCH  29  33
BRANCH  28  35
ATOM     35  O   UNL     1       0.690  -7.193  24.624  0.00  0.00    -0.386 OA
ATOM     36  H   UNL     1       0.554  -6.245  24.811  0.00  0.00    +0.210 HD
ENDBRANCH  28  35
BRANCH  27  37
ATOM     37  C   UNL     1       3.788  -7.094  26.842  0.00  0.00    +0.266 C 
BRANCH  37  38
ATOM     38  O   UNL     1       4.250  -6.142  27.808  0.00  0.00    -0.462 OA
BRANCH  38  39
ATOM     39  C   UNL     1       5.544  -6.307  28.219  0.00  0.00    +0.313 C 
ATOM     40  O   UNL     1       5.958  -7.303  28.806  0.00  0.00    -0.250 OA
BRANCH  39  41
ATOM     41  C   UNL     1       6.346  -5.072  27.994  0.00  0.00    +0.172 C 
BRANCH  41  42
ATOM     42  C   UNL     1       7.380  -5.287  26.920  0.00  0.00    +0.052 C 
ATOM     43  O   UNL     1       8.468  -4.670  27.110  0.00  0.00    -0.549 OA
ATOM     44  O   UNL     1       7.036  -5.996  25.934  0.00  0.00    -0.549 OA
ENDBRANCH  41  42
ENDBRANCH  39  41
ENDBRANCH  38  39
ENDBRANCH  37  38
ENDBRANCH  27  37
ENDBRANCH  24  25
ENDBRANCH   6  24
BRANCH   1  45
ATOM     45  O   UNL     1       8.344   2.013  23.165  0.00  0.00    -0.461 OA
BRANCH  45  49
ATOM     46  C   UNL     1       5.131   4.793  23.979  0.00  0.00    +0.041 C 
ATOM     47  C   UNL     1       6.028   4.816  22.746  0.00  0.00    +0.150 C 
ATOM     48  O   UNL     1       6.689   3.563  22.546  0.00  0.00    -0.334 OA
ATOM     49  C   UNL     1       7.725   3.260  23.486  0.00  0.00    +0.339 C 
ATOM     50  C   UNL     1       8.840   4.329  23.443  0.00  0.00    +0.214 C 
ATOM     51  C   UNL     1       8.256   5.736  23.614  0.00  0.00    +0.180 C 
ATOM     52  C   UNL     1       7.052   5.960  22.689  0.00  0.00    +0.174 C 
BRANCH  52  53
ATOM     53  O   UNL     1       7.539   6.049  21.338  0.00  0.00    -0.387 OA
ATOM     54  H   UNL     1       6.781   6.243  20.752  0.00  0.00    +0.210 HD
ENDBRANCH  52  53
BRANCH  51  55
ATOM     55  O   UNL     1       7.946   5.992  24.993  0.00  0.00    -0.386 OA
ATOM     56  H   UNL     1       8.730   5.863  25.550  0.00  0.00    +0.210 HD
ENDBRANCH  51  55
BRANCH  50  57
ATOM     57  O   UNL     1       9.831   4.085  24.455  0.00  0.00    -0.383 OA
ATOM     58  H   UNL     1       9.827   3.129  24.650  0.00  0.00    +0.210 HD
ENDBRANCH  50  57
ENDBRANCH  45  49
ENDBRANCH   1  45
TORSDOF 19
ENDMDL
