MODEL 1
REMARK VINA RESULT:      -7.1      0.000      0.000
REMARK  Name = 
REMARK  17 active torsions:
REMARK  status: ('A' for Active; 'I' for Inactive)
REMARK    1  A    between atoms: C_1  and  C_2
REMARK    2  A    between atoms: C_3  and  O_35
REMARK    3  A    between atoms: C_5  and  O_34
REMARK    4  A    between atoms: C_6  and  O_33
REMARK    5  A    between atoms: C_8  and  O_11
REMARK    6  A    between atoms: O_11  and  C_12
REMARK    7  A    between atoms: C_13  and  C_25
REMARK    8  A    between atoms: C_17  and  O_24
REMARK    9  A    between atoms: C_19  and  O_23
REMARK   10  A    between atoms: C_27  and  O_32
REMARK   11  A    between atoms: C_28  and  O_31
REMARK   12  A    between atoms: O_35  and  C_36
REMARK   13  A    between atoms: C_38  and  O_48
REMARK   14  A    between atoms: C_39  and  O_47
REMARK   15  A    between atoms: C_40  and  O_46
REMARK   16  A    between atoms: C_42  and  C_44
REMARK   17  A    between atoms: C_44  and  O_45
REMARK                            x       y       z     vdW  Elec       q    Type
REMARK                         _______ _______ _______ _____ _____    ______ ____
ROOT
ATOM      1  C   UNL     1       3.804  -0.051  27.107  0.00  0.00    +0.041 C 
ATOM      2  C   UNL     1       4.945   0.341  26.151  0.00  0.00    +0.151 C 
ATOM      3  O   UNL     1       5.860  -0.747  25.896  0.00  0.00    -0.334 OA
ATOM      4  C   UNL     1       6.623  -1.095  27.067  0.00  0.00    +0.339 C 
ATOM      5  C   UNL     1       7.533   0.090  27.482  0.00  0.00    +0.214 C 
ATOM      6  C   UNL     1       6.639   1.282  27.805  0.00  0.00    +0.180 C 
ATOM      7  C   UNL     1       5.682   1.611  26.645  0.00  0.00    +0.181 C 
ENDROOT
BRANCH   6   8
ATOM      8  O   UNL     1       7.442   2.434  28.107  0.00  0.00    -0.386 OA
ATOM      9  H   UNL     1       7.019   2.816  28.903  0.00  0.00    +0.210 HD
ENDBRANCH   6   8
BRANCH   5  10
ATOM     10  O   UNL     1       8.492   0.420  26.456  0.00  0.00    -0.383 OA
ATOM     11  H   UNL     1       9.245  -0.179  26.606  0.00  0.00    +0.210 HD
ENDBRANCH   5  10
BRANCH   7  12
ATOM     12  O   UNL     1       6.484   2.277  25.645  0.00  0.00    -0.340 OA
BRANCH  12  13
ATOM     13  C   UNL     1       6.469   1.731  24.323  0.00  0.00    +0.282 C 
ATOM     14  O   UNL     1       7.816   1.704  23.823  0.00  0.00    -0.341 OA
ATOM     15  C   UNL     1       8.419   3.003  23.686  0.00  0.00    +0.178 C 
ATOM     16  C   UNL     1       7.574   3.943  22.802  0.00  0.00    +0.177 C 
ATOM     17  C   UNL     1       6.115   3.957  23.260  0.00  0.00    +0.179 C 
ATOM     18  C   UNL     1       5.580   2.522  23.337  0.00  0.00    +0.201 C 
BRANCH  18  19
ATOM     19  O   UNL     1       4.184   2.517  23.667  0.00  0.00    -0.384 OA
ATOM     20  H   UNL     1       3.831   3.414  23.513  0.00  0.00    +0.210 HD
ENDBRANCH  18  19
BRANCH  17  21
ATOM     21  O   UNL     1       5.329   4.744  22.348  0.00  0.00    -0.386 OA
ATOM     22  H   UNL     1       5.867   5.507  22.063  0.00  0.00    +0.210 HD
ENDBRANCH  17  21
BRANCH  16  23
ATOM     23  O   UNL     1       7.601   3.518  21.430  0.00  0.00    -0.386 OA
ATOM     24  H   UNL     1       7.980   2.618  21.437  0.00  0.00    +0.210 HD
ENDBRANCH  16  23
BRANCH  15  25
ATOM     25  C   UNL     1       9.832   2.841  23.095  0.00  0.00    +0.190 C 
BRANCH  25  26
ATOM     26  O   UNL     1       9.846   2.103  21.870  0.00  0.00    -0.392 OA
ATOM     27  H   UNL     1      10.224   2.666  21.174  0.00  0.00    +0.210 HD
ENDBRANCH  25  26
ENDBRANCH  15  25
ENDBRANCH  12  13
ENDBRANCH   7  12
BRANCH   4  28
ATOM     28  O   UNL     1       7.393  -2.295  26.905  0.00  0.00    -0.453 OA
BRANCH  28  29
ATOM     29  C   UNL     1       6.749  -3.350  26.239  0.00  0.00    +0.214 A 
ATOM     30  C   UNL     1       5.782  -4.263  26.945  0.00  0.00    +0.238 A 
ATOM     31  O   UNL     1       5.644  -4.275  28.164  0.00  0.00    -0.283 OA
ATOM     32  C   UNL     1       5.032  -5.229  26.160  0.00  0.00    +0.109 A 
ATOM     33  C   UNL     1       5.389  -5.396  24.831  0.00  0.00    +0.147 A 
ATOM     34  C   UNL     1       4.759  -6.389  24.078  0.00  0.00    +0.092 A 
ATOM     35  C   UNL     1       3.792  -7.202  24.681  0.00  0.00    +0.124 A 
ATOM     36  C   UNL     1       3.417  -7.025  26.009  0.00  0.00    +0.091 A 
ATOM     37  O   UNL     1       6.355  -4.636  24.216  0.00  0.00    -0.451 OA
ATOM     38  C   UNL     1       4.032  -6.027  26.746  0.00  0.00    +0.135 A 
ATOM     39  C   UNL     1       6.991  -3.614  24.933  0.00  0.00    +0.181 A 
BRANCH  39  40
ATOM     40  C   UNL     1       7.965  -2.832  24.101  0.00  0.00    +0.025 A 
ATOM     41  C   UNL     1       9.347  -3.105  24.176  0.00  0.00    +0.015 A 
ATOM     42  C   UNL     1      10.277  -2.411  23.385  0.00  0.00    +0.050 A 
ATOM     43  C   UNL     1       9.832  -1.433  22.510  0.00  0.00    +0.158 A 
ATOM     44  C   UNL     1       8.481  -1.118  22.442  0.00  0.00    +0.159 A 
ATOM     45  C   UNL     1       7.554  -1.793  23.238  0.00  0.00    +0.060 A 
BRANCH  44  46
ATOM     46  O   UNL     1       8.105  -0.133  21.569  0.00  0.00    -0.503 OA
ATOM     47  H   UNL     1       7.508   0.477  22.039  0.00  0.00    +0.292 HD
ENDBRANCH  44  46
BRANCH  43  48
ATOM     48  O   UNL     1      10.727  -0.786  21.709  0.00  0.00    -0.503 OA
ATOM     49  H   UNL     1      11.595  -0.945  22.131  0.00  0.00    +0.292 HD
ENDBRANCH  43  48
ENDBRANCH  39  40
BRANCH  38  50
ATOM     50  O   UNL     1       3.628  -5.830  28.037  0.00  0.00    -0.506 OA
ATOM     51  H   UNL     1       2.661  -5.880  28.105  0.00  0.00    +0.292 HD
ENDBRANCH  38  50
BRANCH  35  52
ATOM     52  O   UNL     1       3.160  -8.203  24.006  0.00  0.00    -0.507 OA
ATOM     53  H   UNL     1       3.074  -8.972  24.590  0.00  0.00    +0.292 HD
ENDBRANCH  35  52
ENDBRANCH  28  29
ENDBRANCH   4  28
TORSDOF 16
ENDMDL
MODEL 2
REMARK VINA RESULT:      -7.1      1.912      7.124
REMARK  Name = 
REMARK  17 active torsions:
REMARK  status: ('A' for Active; 'I' for Inactive)
REMARK    1  A    between atoms: C_1  and  C_2
REMARK    2  A    between atoms: C_3  and  O_35
REMARK    3  A    between atoms: C_5  and  O_34
REMARK    4  A    between atoms: C_6  and  O_33
REMARK    5  A    between atoms: C_8  and  O_11
REMARK    6  A    between atoms: O_11  and  C_12
REMARK    7  A    between atoms: C_13  and  C_25
REMARK    8  A    between atoms: C_17  and  O_24
REMARK    9  A    between atoms: C_19  and  O_23
REMARK   10  A    between atoms: C_27  and  O_32
REMARK   11  A    between atoms: C_28  and  O_31
REMARK   12  A    between atoms: O_35  and  C_36
REMARK   13  A    between atoms: C_38  and  O_48
REMARK   14  A    between atoms: C_39  and  O_47
REMARK   15  A    between atoms: C_40  and  O_46
REMARK   16  A    between atoms: C_42  and  C_44
REMARK   17  A    between atoms: C_44  and  O_45
REMARK                            x       y       z     vdW  Elec       q    Type
REMARK                         _______ _______ _______ _____ _____    ______ ____
ROOT
ATOM      1  C   UNL     1       8.318  -2.642  22.235  0.00  0.00    +0.041 C 
ATOM      2  C   UNL     1       7.346  -3.180  23.300  0.00  0.00    +0.151 C 
ATOM      3  O   UNL     1       7.149  -2.259  24.394  0.00  0.00    -0.334 OA
ATOM      4  C   UNL     1       8.338  -2.109  25.193  0.00  0.00    +0.339 C 
ATOM      5  C   UNL     1       8.693  -3.455  25.877  0.00  0.00    +0.214 C 
ATOM      6  C   UNL     1       8.953  -4.486  24.784  0.00  0.00    +0.180 C 
ATOM      7  C   UNL     1       7.775  -4.583  23.798  0.00  0.00    +0.181 C 
ENDROOT
BRANCH   6   8
ATOM      8  O   UNL     1       9.197  -5.775  25.370  0.00  0.00    -0.386 OA
ATOM      9  H   UNL     1       8.643  -5.777  26.177  0.00  0.00    +0.210 HD
ENDBRANCH   6   8
BRANCH   5  10
ATOM     10  O   UNL     1       7.654  -3.896  26.775  0.00  0.00    -0.383 OA
ATOM     11  H   UNL     1       7.551  -4.849  26.600  0.00  0.00    +0.210 HD
ENDBRANCH   5  10
BRANCH   7  12
ATOM     12  O   UNL     1       6.745  -5.329  24.482  0.00  0.00    -0.340 OA
BRANCH  12  13
ATOM     13  C   UNL     1       5.413  -4.811  24.421  0.00  0.00    +0.282 C 
ATOM     14  O   UNL     1       4.987  -4.483  25.753  0.00  0.00    -0.341 OA
ATOM     15  C   UNL     1       4.911  -5.612  26.642  0.00  0.00    +0.178 C 
ATOM     16  C   UNL     1       4.002  -6.727  26.085  0.00  0.00    +0.177 C 
ATOM     17  C   UNL     1       4.380  -7.069  24.643  0.00  0.00    +0.179 C 
ATOM     18  C   UNL     1       4.396  -5.792  23.793  0.00  0.00    +0.201 C 
BRANCH  18  19
ATOM     19  O   UNL     1       4.649  -6.101  22.416  0.00  0.00    -0.384 OA
ATOM     20  H   UNL     1       5.060  -6.986  22.373  0.00  0.00    +0.210 HD
ENDBRANCH  18  19
BRANCH  17  21
ATOM     21  O   UNL     1       3.443  -8.021  24.110  0.00  0.00    -0.386 OA
ATOM     22  H   UNL     1       3.948  -8.743  23.691  0.00  0.00    +0.210 HD
ENDBRANCH  17  21
BRANCH  16  23
ATOM     23  O   UNL     1       2.625  -6.318  26.095  0.00  0.00    -0.386 OA
ATOM     24  H   UNL     1       2.105  -7.129  25.938  0.00  0.00    +0.210 HD
ENDBRANCH  16  23
BRANCH  15  25
ATOM     25  C   UNL     1       4.395  -5.138  28.014  0.00  0.00    +0.190 C 
BRANCH  25  26
ATOM     26  O   UNL     1       3.620  -3.940  27.937  0.00  0.00    -0.392 OA
ATOM     27  H   UNL     1       2.903  -3.993  28.591  0.00  0.00    +0.210 HD
ENDBRANCH  25  26
ENDBRANCH  15  25
ENDBRANCH  12  13
ENDBRANCH   7  12
BRANCH   4  28
ATOM     28  O   UNL     1       8.239  -1.056  26.164  0.00  0.00    -0.453 OA
BRANCH  28  29
ATOM     29  C   UNL     1       7.018  -0.362  26.192  0.00  0.00    +0.214 A 
ATOM     30  C   UNL     1       5.882  -0.790  27.083  0.00  0.00    +0.238 A 
ATOM     31  O   UNL     1       5.869  -1.860  27.681  0.00  0.00    -0.283 OA
ATOM     32  C   UNL     1       4.711   0.066  27.181  0.00  0.00    +0.109 A 
ATOM     33  C   UNL     1       4.616   1.133  26.300  0.00  0.00    +0.147 A 
ATOM     34  C   UNL     1       3.456   1.911  26.299  0.00  0.00    +0.092 A 
ATOM     35  C   UNL     1       2.411   1.592  27.174  0.00  0.00    +0.124 A 
ATOM     36  C   UNL     1       2.511   0.535  28.074  0.00  0.00    +0.091 A 
ATOM     37  O   UNL     1       5.610   1.453  25.407  0.00  0.00    -0.451 OA
ATOM     38  C   UNL     1       3.671  -0.222  28.083  0.00  0.00    +0.135 A 
ATOM     39  C   UNL     1       6.797   0.711  25.397  0.00  0.00    +0.181 A 
BRANCH  39  40
ATOM     40  C   UNL     1       7.807   1.232  24.416  0.00  0.00    +0.025 A 
ATOM     41  C   UNL     1       8.865   2.057  24.852  0.00  0.00    +0.015 A 
ATOM     42  C   UNL     1       9.842   2.531  23.962  0.00  0.00    +0.050 A 
ATOM     43  C   UNL     1       9.769   2.185  22.623  0.00  0.00    +0.158 A 
ATOM     44  C   UNL     1       8.718   1.404  22.158  0.00  0.00    +0.159 A 
ATOM     45  C   UNL     1       7.735   0.944  23.036  0.00  0.00    +0.060 A 
BRANCH  44  46
ATOM     46  O   UNL     1       8.693   1.108  20.822  0.00  0.00    -0.503 OA
ATOM     47  H   UNL     1       9.138   0.251  20.694  0.00  0.00    +0.292 HD
ENDBRANCH  44  46
BRANCH  43  48
ATOM     48  O   UNL     1      10.740   2.608  21.762  0.00  0.00    -0.503 OA
ATOM     49  H   UNL     1      10.879   1.851  21.157  0.00  0.00    +0.292 HD
ENDBRANCH  43  48
ENDBRANCH  39  40
BRANCH  38  50
ATOM     50  O   UNL     1       3.779  -1.232  28.998  0.00  0.00    -0.506 OA
ATOM     51  H   UNL     1       4.648  -1.659  28.936  0.00  0.00    +0.292 HD
ENDBRANCH  38  50
BRANCH  35  52
ATOM     52  O   UNL     1       1.246   2.298  27.203  0.00  0.00    -0.507 OA
ATOM     53  H   UNL     1       0.555   1.750  27.604  0.00  0.00    +0.292 HD
ENDBRANCH  35  52
ENDBRANCH  28  29
ENDBRANCH   4  28
TORSDOF 16
ENDMDL
MODEL 3
REMARK VINA RESULT:      -6.9      1.891      8.640
REMARK  Name = 
REMARK  17 active torsions:
REMARK  status: ('A' for Active; 'I' for Inactive)
REMARK    1  A    between atoms: C_1  and  C_2
REMARK    2  A    between atoms: C_3  and  O_35
REMARK    3  A    between atoms: C_5  and  O_34
REMARK    4  A    between atoms: C_6  and  O_33
REMARK    5  A    between atoms: C_8  and  O_11
REMARK    6  A    between atoms: O_11  and  C_12
REMARK    7  A    between atoms: C_13  and  C_25
REMARK    8  A    between atoms: C_17  and  O_24
REMARK    9  A    between atoms: C_19  and  O_23
REMARK   10  A    between atoms: C_27  and  O_32
REMARK   11  A    between atoms: C_28  and  O_31
REMARK   12  A    between atoms: O_35  and  C_36
REMARK   13  A    between atoms: C_38  and  O_48
REMARK   14  A    between atoms: C_39  and  O_47
REMARK   15  A    between atoms: C_40  and  O_46
REMARK   16  A    between atoms: C_42  and  C_44
REMARK   17  A    between atoms: C_44  and  O_45
REMARK                            x       y       z     vdW  Elec       q    Type
REMARK                         _______ _______ _______ _____ _____    ______ ____
ROOT
ATOM      1  C   UNL     1       8.543  -2.885  22.536  0.00  0.00    +0.041 C 
ATOM      2  C   UNL     1       7.512  -3.387  23.563  0.00  0.00    +0.151 C 
ATOM      3  O   UNL     1       7.335  -2.475  24.668  0.00  0.00    -0.334 OA
ATOM      4  C   UNL     1       8.506  -2.406  25.503  0.00  0.00    +0.339 C 
ATOM      5  C   UNL     1       8.767  -3.781  26.171  0.00  0.00    +0.214 C 
ATOM      6  C   UNL     1       9.001  -4.806  25.066  0.00  0.00    +0.180 C 
ATOM      7  C   UNL     1       7.849  -4.820  24.045  0.00  0.00    +0.181 C 
ENDROOT
BRANCH   6   8
ATOM      8  O   UNL     1       9.157  -6.116  25.634  0.00  0.00    -0.386 OA
ATOM      9  H   UNL     1       9.821  -5.991  26.341  0.00  0.00    +0.210 HD
ENDBRANCH   6   8
BRANCH   5  10
ATOM     10  O   UNL     1       7.679  -4.180  27.030  0.00  0.00    -0.383 OA
ATOM     11  H   UNL     1       7.614  -3.480  27.704  0.00  0.00    +0.210 HD
ENDBRANCH   5  10
BRANCH   7  12
ATOM     12  O   UNL     1       6.759  -5.518  24.685  0.00  0.00    -0.340 OA
BRANCH  12  13
ATOM     13  C   UNL     1       5.457  -4.936  24.583  0.00  0.00    +0.282 C 
ATOM     14  O   UNL     1       4.960  -4.687  25.907  0.00  0.00    -0.341 OA
ATOM     15  C   UNL     1       4.779  -5.874  26.701  0.00  0.00    +0.178 C 
ATOM     16  C   UNL     1       3.861  -6.899  26.005  0.00  0.00    +0.177 C 
ATOM     17  C   UNL     1       4.317  -7.151  24.567  0.00  0.00    +0.179 C 
ATOM     18  C   UNL     1       4.442  -5.818  23.820  0.00  0.00    +0.201 C 
BRANCH  18  19
ATOM     19  O   UNL     1       4.771  -6.036  22.441  0.00  0.00    -0.384 OA
ATOM     20  H   UNL     1       5.395  -6.786  22.392  0.00  0.00    +0.210 HD
ENDBRANCH  18  19
BRANCH  17  21
ATOM     21  O   UNL     1       3.376  -8.016  23.906  0.00  0.00    -0.386 OA
ATOM     22  H   UNL     1       3.440  -8.902  24.312  0.00  0.00    +0.210 HD
ENDBRANCH  17  21
BRANCH  16  23
ATOM     23  O   UNL     1       2.505  -6.428  25.962  0.00  0.00    -0.386 OA
ATOM     24  H   UNL     1       2.563  -5.454  25.908  0.00  0.00    +0.210 HD
ENDBRANCH  16  23
BRANCH  15  25
ATOM     25  C   UNL     1       4.196  -5.477  28.070  0.00  0.00    +0.190 C 
BRANCH  25  26
ATOM     26  O   UNL     1       3.084  -4.585  27.970  0.00  0.00    -0.392 OA
ATOM     27  H   UNL     1       3.171  -4.073  27.150  0.00  0.00    +0.210 HD
ENDBRANCH  25  26
ENDBRANCH  15  25
ENDBRANCH  12  13
ENDBRANCH   7  12
BRANCH   4  28
ATOM     28  O   UNL     1       8.437  -1.366  26.491  0.00  0.00    -0.453 OA
BRANCH  28  29
ATOM     29  C   UNL     1       8.217  -0.069  26.000  0.00  0.00    +0.214 A 
ATOM     30  C   UNL     1       9.308   0.722  25.327  0.00  0.00    +0.238 A 
ATOM     31  O   UNL     1      10.486   0.379  25.340  0.00  0.00    -0.283 OA
ATOM     32  C   UNL     1       8.969   1.988  24.701  0.00  0.00    +0.109 A 
ATOM     33  C   UNL     1       7.699   2.499  24.925  0.00  0.00    +0.147 A 
ATOM     34  C   UNL     1       7.377   3.762  24.424  0.00  0.00    +0.092 A 
ATOM     35  C   UNL     1       8.343   4.491  23.720  0.00  0.00    +0.124 A 
ATOM     36  C   UNL     1       9.612   3.975  23.477  0.00  0.00    +0.091 A 
ATOM     37  O   UNL     1       6.738   1.822  25.637  0.00  0.00    -0.451 OA
ATOM     38  C   UNL     1       9.920   2.714  23.960  0.00  0.00    +0.135 A 
ATOM     39  C   UNL     1       7.017   0.543  26.133  0.00  0.00    +0.181 A 
BRANCH  39  40
ATOM     40  C   UNL     1       5.843  -0.088  26.823  0.00  0.00    +0.025 A 
ATOM     41  C   UNL     1       5.611   0.146  28.195  0.00  0.00    +0.015 A 
ATOM     42  C   UNL     1       4.502  -0.406  28.857  0.00  0.00    +0.050 A 
ATOM     43  C   UNL     1       3.613  -1.200  28.152  0.00  0.00    +0.158 A 
ATOM     44  C   UNL     1       3.836  -1.478  26.809  0.00  0.00    +0.159 A 
ATOM     45  C   UNL     1       4.945  -0.945  26.150  0.00  0.00    +0.060 A 
BRANCH  44  46
ATOM     46  O   UNL     1       2.929  -2.280  26.171  0.00  0.00    -0.503 OA
ATOM     47  H   UNL     1       2.075  -2.198  26.632  0.00  0.00    +0.292 HD
ENDBRANCH  44  46
BRANCH  43  48
ATOM     48  O   UNL     1       2.511  -1.703  28.781  0.00  0.00    -0.503 OA
ATOM     49  H   UNL     1       1.880  -0.955  28.806  0.00  0.00    +0.292 HD
ENDBRANCH  43  48
ENDBRANCH  39  40
BRANCH  38  50
ATOM     50  O   UNL     1      11.153   2.195  23.681  0.00  0.00    -0.506 OA
ATOM     51  H   UNL     1      11.089   1.248  23.479  0.00  0.00    +0.292 HD
ENDBRANCH  38  50
BRANCH  35  52
ATOM     52  O   UNL     1       8.097   5.738  23.229  0.00  0.00    -0.507 OA
ATOM     53  H   UNL     1       8.316   5.754  22.285  0.00  0.00    +0.292 HD
ENDBRANCH  35  52
ENDBRANCH  28  29
ENDBRANCH   4  28
TORSDOF 16
ENDMDL
MODEL 4
REMARK VINA RESULT:      -6.8      1.819      2.432
REMARK  Name = 
REMARK  17 active torsions:
REMARK  status: ('A' for Active; 'I' for Inactive)
REMARK    1  A    between atoms: C_1  and  C_2
REMARK    2  A    between atoms: C_3  and  O_35
REMARK    3  A    between atoms: C_5  and  O_34
REMARK    4  A    between atoms: C_6  and  O_33
REMARK    5  A    between atoms: C_8  and  O_11
REMARK    6  A    between atoms: O_11  and  C_12
REMARK    7  A    between atoms: C_13  and  C_25
REMARK    8  A    between atoms: C_17  and  O_24
REMARK    9  A    between atoms: C_19  and  O_23
REMARK   10  A    between atoms: C_27  and  O_32
REMARK   11  A    between atoms: C_28  and  O_31
REMARK   12  A    between atoms: O_35  and  C_36
REMARK   13  A    between atoms: C_38  and  O_48
REMARK   14  A    between atoms: C_39  and  O_47
REMARK   15  A    between atoms: C_40  and  O_46
REMARK   16  A    between atoms: C_42  and  C_44
REMARK   17  A    between atoms: C_44  and  O_45
REMARK                            x       y       z     vdW  Elec       q    Type
REMARK                         _______ _______ _______ _____ _____    ______ ____
ROOT
ATOM      1  C   UNL     1       3.713   0.068  26.891  0.00  0.00    +0.041 C 
ATOM      2  C   UNL     1       4.653   0.904  26.003  0.00  0.00    +0.151 C 
ATOM      3  O   UNL     1       5.887   0.220  25.696  0.00  0.00    -0.334 OA
ATOM      4  C   UNL     1       6.719   0.061  26.860  0.00  0.00    +0.339 C 
ATOM      5  C   UNL     1       7.165   1.449  27.390  0.00  0.00    +0.214 C 
ATOM      6  C   UNL     1       5.914   2.232  27.774  0.00  0.00    +0.180 C 
ATOM      7  C   UNL     1       4.906   2.306  26.613  0.00  0.00    +0.181 C 
ENDROOT
BRANCH   6   8
ATOM      8  O   UNL     1       6.271   3.561  28.186  0.00  0.00    -0.386 OA
ATOM      9  H   UNL     1       5.632   3.767  28.899  0.00  0.00    +0.210 HD
ENDBRANCH   6   8
BRANCH   5  10
ATOM     10  O   UNL     1       7.955   2.169  26.422  0.00  0.00    -0.383 OA
ATOM     11  H   UNL     1       7.721   1.783  25.560  0.00  0.00    +0.210 HD
ENDBRANCH   5  10
BRANCH   7  12
ATOM     12  O   UNL     1       5.434   3.284  25.691  0.00  0.00    -0.340 OA
BRANCH  12  13
ATOM     13  C   UNL     1       5.838   2.818  24.401  0.00  0.00    +0.282 C 
ATOM     14  O   UNL     1       7.154   3.321  24.122  0.00  0.00    -0.341 OA
ATOM     15  C   UNL     1       7.231   4.756  24.044  0.00  0.00    +0.178 C 
ATOM     16  C   UNL     1       6.244   5.333  23.009  0.00  0.00    +0.177 C 
ATOM     17  C   UNL     1       4.837   4.776  23.228  0.00  0.00    +0.179 C 
ATOM     18  C   UNL     1       4.883   3.244  23.262  0.00  0.00    +0.201 C 
BRANCH  18  19
ATOM     19  O   UNL     1       3.561   2.697  23.366  0.00  0.00    -0.384 OA
ATOM     20  H   UNL     1       3.430   2.073  22.626  0.00  0.00    +0.210 HD
ENDBRANCH  18  19
BRANCH  17  21
ATOM     21  O   UNL     1       3.966   5.235  22.179  0.00  0.00    -0.386 OA
ATOM     22  H   UNL     1       3.121   5.510  22.584  0.00  0.00    +0.210 HD
ENDBRANCH  17  21
BRANCH  16  23
ATOM     23  O   UNL     1       6.648   4.996  21.672  0.00  0.00    -0.386 OA
ATOM     24  H   UNL     1       7.468   5.500  21.506  0.00  0.00    +0.210 HD
ENDBRANCH  16  23
BRANCH  15  25
ATOM     25  C   UNL     1       8.674   5.163  23.690  0.00  0.00    +0.190 C 
BRANCH  25  26
ATOM     26  O   UNL     1       8.740   6.278  22.798  0.00  0.00    -0.392 OA
ATOM     27  H   UNL     1       8.181   6.989  23.150  0.00  0.00    +0.210 HD
ENDBRANCH  25  26
ENDBRANCH  15  25
ENDBRANCH  12  13
ENDBRANCH   7  12
BRANCH   4  28
ATOM     28  O   UNL     1       7.856  -0.785  26.633  0.00  0.00    -0.453 OA
BRANCH  28  29
ATOM     29  C   UNL     1       7.701  -1.765  25.638  0.00  0.00    +0.214 A 
ATOM     30  C   UNL     1       7.031  -3.084  25.920  0.00  0.00    +0.238 A 
ATOM     31  O   UNL     1       6.761  -3.466  27.053  0.00  0.00    -0.283 OA
ATOM     32  C   UNL     1       6.761  -3.981  24.810  0.00  0.00    +0.109 A 
ATOM     33  C   UNL     1       7.310  -3.665  23.576  0.00  0.00    +0.147 A 
ATOM     34  C   UNL     1       7.156  -4.560  22.515  0.00  0.00    +0.092 A 
ATOM     35  C   UNL     1       6.465  -5.760  22.720  0.00  0.00    +0.124 A 
ATOM     36  C   UNL     1       5.896  -6.072  23.951  0.00  0.00    +0.091 A 
ATOM     37  O   UNL     1       8.020  -2.510  23.349  0.00  0.00    -0.451 OA
ATOM     38  C   UNL     1       6.036  -5.173  24.995  0.00  0.00    +0.135 A 
ATOM     39  C   UNL     1       8.173  -1.578  24.383  0.00  0.00    +0.181 A 
BRANCH  39  40
ATOM     40  C   UNL     1       8.909  -0.342  23.955  0.00  0.00    +0.025 A 
ATOM     41  C   UNL     1      10.122   0.018  24.577  0.00  0.00    +0.015 A 
ATOM     42  C   UNL     1      10.847   1.151  24.174  0.00  0.00    +0.050 A 
ATOM     43  C   UNL     1      10.364   1.937  23.142  0.00  0.00    +0.158 A 
ATOM     44  C   UNL     1       9.153   1.628  22.534  0.00  0.00    +0.159 A 
ATOM     45  C   UNL     1       8.420   0.512  22.943  0.00  0.00    +0.060 A 
BRANCH  44  46
ATOM     46  O   UNL     1       8.721   2.452  21.530  0.00  0.00    -0.503 OA
ATOM     47  H   UNL     1       8.463   1.895  20.773  0.00  0.00    +0.292 HD
ENDBRANCH  44  46
BRANCH  43  48
ATOM     48  O   UNL     1      11.086   3.014  22.718  0.00  0.00    -0.503 OA
ATOM     49  H   UNL     1      12.017   2.775  22.906  0.00  0.00    +0.292 HD
ENDBRANCH  43  48
ENDBRANCH  39  40
BRANCH  38  50
ATOM     50  O   UNL     1       5.438  -5.466  26.188  0.00  0.00    -0.506 OA
ATOM     51  H   UNL     1       4.472  -5.472  26.095  0.00  0.00    +0.292 HD
ENDBRANCH  38  50
BRANCH  35  52
ATOM     52  O   UNL     1       6.303  -6.684  21.731  0.00  0.00    -0.507 OA
ATOM     53  H   UNL     1       7.141  -6.785  21.255  0.00  0.00    +0.292 HD
ENDBRANCH  35  52
ENDBRANCH  28  29
ENDBRANCH   4  28
TORSDOF 16
ENDMDL
MODEL 5
REMARK VINA RESULT:      -6.6      2.189      6.926
REMARK  Name = 
REMARK  17 active torsions:
REMARK  status: ('A' for Active; 'I' for Inactive)
REMARK    1  A    between atoms: C_1  and  C_2
REMARK    2  A    between atoms: C_3  and  O_35
REMARK    3  A    between atoms: C_5  and  O_34
REMARK    4  A    between atoms: C_6  and  O_33
REMARK    5  A    between atoms: C_8  and  O_11
REMARK    6  A    between atoms: O_11  and  C_12
REMARK    7  A    between atoms: C_13  and  C_25
REMARK    8  A    between atoms: C_17  and  O_24
REMARK    9  A    between atoms: C_19  and  O_23
REMARK   10  A    between atoms: C_27  and  O_32
REMARK   11  A    between atoms: C_28  and  O_31
REMARK   12  A    between atoms: O_35  and  C_36
REMARK   13  A    between atoms: C_38  and  O_48
REMARK   14  A    between atoms: C_39  and  O_47
REMARK   15  A    between atoms: C_40  and  O_46
REMARK   16  A    between atoms: C_42  and  C_44
REMARK   17  A    between atoms: C_44  and  O_45
REMARK                            x       y       z     vdW  Elec       q    Type
REMARK                         _______ _______ _______ _____ _____    ______ ____
ROOT
ATOM      1  C   UNL     1       8.664   0.091  21.835  0.00  0.00    +0.041 C 
ATOM      2  C   UNL     1       7.835  -0.891  22.683  0.00  0.00    +0.151 C 
ATOM      3  O   UNL     1       7.441  -0.335  23.956  0.00  0.00    -0.334 OA
ATOM      4  C   UNL     1       8.569  -0.141  24.831  0.00  0.00    +0.339 C 
ATOM      5  C   UNL     1       9.211  -1.507  25.184  0.00  0.00    +0.214 C 
ATOM      6  C   UNL     1       9.690  -2.152  23.888  0.00  0.00    +0.180 C 
ATOM      7  C   UNL     1       8.562  -2.248  22.845  0.00  0.00    +0.181 C 
ENDROOT
BRANCH   6   8
ATOM      8  O   UNL     1      10.213  -3.464  24.154  0.00  0.00    -0.386 OA
ATOM      9  H   UNL     1      11.164  -3.310  24.327  0.00  0.00    +0.210 HD
ENDBRANCH   6   8
BRANCH   5  10
ATOM     10  O   UNL     1       8.296  -2.370  25.889  0.00  0.00    -0.383 OA
ATOM     11  H   UNL     1       8.764  -3.217  25.987  0.00  0.00    +0.210 HD
ENDBRANCH   5  10
BRANCH   7  12
ATOM     12  O   UNL     1       7.721  -3.343  23.270  0.00  0.00    -0.340 OA
BRANCH  12  13
ATOM     13  C   UNL     1       6.317  -3.088  23.373  0.00  0.00    +0.282 C 
ATOM     14  O   UNL     1       5.897  -3.369  24.717  0.00  0.00    -0.341 OA
ATOM     15  C   UNL     1       6.060  -4.744  25.110  0.00  0.00    +0.178 C 
ATOM     16  C   UNL     1       5.338  -5.709  24.147  0.00  0.00    +0.177 C 
ATOM     17  C   UNL     1       5.708  -5.408  22.695  0.00  0.00    +0.179 C 
ATOM     18  C   UNL     1       5.463  -3.925  22.392  0.00  0.00    +0.201 C 
BRANCH  18  19
ATOM     19  O   UNL     1       5.708  -3.641  21.008  0.00  0.00    -0.384 OA
ATOM     20  H   UNL     1       6.511  -4.125  20.734  0.00  0.00    +0.210 HD
ENDBRANCH  18  19
BRANCH  17  21
ATOM     21  O   UNL     1       4.932  -6.240  21.815  0.00  0.00    -0.386 OA
ATOM     22  H   UNL     1       3.993  -5.985  21.904  0.00  0.00    +0.210 HD
ENDBRANCH  17  21
BRANCH  16  23
ATOM     23  O   UNL     1       3.913  -5.588  24.273  0.00  0.00    -0.386 OA
ATOM     24  H   UNL     1       3.615  -6.402  24.723  0.00  0.00    +0.210 HD
ENDBRANCH  16  23
BRANCH  15  25
ATOM     25  C   UNL     1       5.527  -4.923  26.544  0.00  0.00    +0.190 C 
BRANCH  25  26
ATOM     26  O   UNL     1       5.913  -3.863  27.422  0.00  0.00    -0.392 OA
ATOM     27  H   UNL     1       6.598  -3.332  26.984  0.00  0.00    +0.210 HD
ENDBRANCH  25  26
ENDBRANCH  15  25
ENDBRANCH  12  13
ENDBRANCH   7  12
BRANCH   4  28
ATOM     28  O   UNL     1       8.242   0.590  26.022  0.00  0.00    -0.453 OA
BRANCH  28  29
ATOM     29  C   UNL     1       6.886   0.916  26.188  0.00  0.00    +0.214 A 
ATOM     30  C   UNL     1       5.919  -0.026  26.855  0.00  0.00    +0.238 A 
ATOM     31  O   UNL     1       6.194  -1.193  27.113  0.00  0.00    -0.283 OA
ATOM     32  C   UNL     1       4.571   0.439  27.138  0.00  0.00    +0.109 A 
ATOM     33  C   UNL     1       4.185   1.659  26.602  0.00  0.00    +0.147 A 
ATOM     34  C   UNL     1       2.865   2.086  26.767  0.00  0.00    +0.092 A 
ATOM     35  C   UNL     1       1.959   1.271  27.456  0.00  0.00    +0.124 A 
ATOM     36  C   UNL     1       2.347   0.056  28.012  0.00  0.00    +0.091 A 
ATOM     37  O   UNL     1       5.041   2.468  25.895  0.00  0.00    -0.451 OA
ATOM     38  C   UNL     1       3.662  -0.354  27.861  0.00  0.00    +0.135 A 
ATOM     39  C   UNL     1       6.378   2.084  25.730  0.00  0.00    +0.181 A 
BRANCH  39  40
ATOM     40  C   UNL     1       7.197   3.108  24.998  0.00  0.00    +0.025 A 
ATOM     41  C   UNL     1       7.218   3.130  23.588  0.00  0.00    +0.015 A 
ATOM     42  C   UNL     1       7.949   4.097  22.879  0.00  0.00    +0.050 A 
ATOM     43  C   UNL     1       8.670   5.052  23.576  0.00  0.00    +0.158 A 
ATOM     44  C   UNL     1       8.698   5.032  24.965  0.00  0.00    +0.159 A 
ATOM     45  C   UNL     1       7.986   4.064  25.674  0.00  0.00    +0.060 A 
BRANCH  44  46
ATOM     46  O   UNL     1       9.440   5.994  25.596  0.00  0.00    -0.503 OA
ATOM     47  H   UNL     1       8.942   6.297  26.377  0.00  0.00    +0.292 HD
ENDBRANCH  44  46
BRANCH  43  48
ATOM     48  O   UNL     1       9.347   6.019  22.892  0.00  0.00    -0.503 OA
ATOM     49  H   UNL     1       9.067   5.903  21.961  0.00  0.00    +0.292 HD
ENDBRANCH  43  48
ENDBRANCH  39  40
BRANCH  38  50
ATOM     50  O   UNL     1       4.047  -1.527  28.446  0.00  0.00    -0.506 OA
ATOM     51  H   UNL     1       3.288  -1.971  28.857  0.00  0.00    +0.292 HD
ENDBRANCH  38  50
BRANCH  35  52
ATOM     52  O   UNL     1       0.653   1.622  27.629  0.00  0.00    -0.507 OA
ATOM     53  H   UNL     1       0.544   2.005  28.512  0.00  0.00    +0.292 HD
ENDBRANCH  35  52
ENDBRANCH  28  29
ENDBRANCH   4  28
TORSDOF 16
ENDMDL
MODEL 6
REMARK VINA RESULT:      -6.4      2.346      7.341
REMARK  Name = 
REMARK  17 active torsions:
REMARK  status: ('A' for Active; 'I' for Inactive)
REMARK    1  A    between atoms: C_1  and  C_2
REMARK    2  A    between atoms: C_3  and  O_35
REMARK    3  A    between atoms: C_5  and  O_34
REMARK    4  A    between atoms: C_6  and  O_33
REMARK    5  A    between atoms: C_8  and  O_11
REMARK    6  A    between atoms: O_11  and  C_12
REMARK    7  A    between atoms: C_13  and  C_25
REMARK    8  A    between atoms: C_17  and  O_24
REMARK    9  A    between atoms: C_19  and  O_23
REMARK   10  A    between atoms: C_27  and  O_32
REMARK   11  A    between atoms: C_28  and  O_31
REMARK   12  A    between atoms: O_35  and  C_36
REMARK   13  A    between atoms: C_38  and  O_48
REMARK   14  A    between atoms: C_39  and  O_47
REMARK   15  A    between atoms: C_40  and  O_46
REMARK   16  A    between atoms: C_42  and  C_44
REMARK   17  A    between atoms: C_44  and  O_45
REMARK                            x       y       z     vdW  Elec       q    Type
REMARK                         _______ _______ _______ _____ _____    ______ ____
ROOT
ATOM      1  C   UNL     1       9.443  -0.448  21.485  0.00  0.00    +0.041 C 
ATOM      2  C   UNL     1       8.324  -1.029  22.368  0.00  0.00    +0.151 C 
ATOM      3  O   UNL     1       7.995  -0.177  23.486  0.00  0.00    -0.334 OA
ATOM      4  C   UNL     1       9.065  -0.113  24.448  0.00  0.00    +0.339 C 
ATOM      5  C   UNL     1       9.299  -1.511  25.079  0.00  0.00    +0.214 C 
ATOM      6  C   UNL     1       9.688  -2.474  23.962  0.00  0.00    +0.180 C 
ATOM      7  C   UNL     1       8.656  -2.473  22.820  0.00  0.00    +0.181 C 
ENDROOT
BRANCH   6   8
ATOM      8  O   UNL     1       9.826  -3.805  24.485  0.00  0.00    -0.386 OA
ATOM      9  H   UNL     1      10.793  -3.961  24.481  0.00  0.00    +0.210 HD
ENDBRANCH   6   8
BRANCH   5  10
ATOM     10  O   UNL     1       8.138  -1.982  25.794  0.00  0.00    -0.383 OA
ATOM     11  H   UNL     1       8.120  -2.945  25.648  0.00  0.00    +0.210 HD
ENDBRANCH   5  10
BRANCH   7  12
ATOM     12  O   UNL     1       7.528  -3.234  23.304  0.00  0.00    -0.340 OA
BRANCH  12  13
ATOM     13  C   UNL     1       6.222  -2.755  22.968  0.00  0.00    +0.282 C 
ATOM     14  O   UNL     1       5.517  -2.455  24.183  0.00  0.00    -0.341 OA
ATOM     15  C   UNL     1       5.292  -3.596  25.031  0.00  0.00    +0.178 C 
ATOM     16  C   UNL     1       4.555  -4.730  24.290  0.00  0.00    +0.177 C 
ATOM     17  C   UNL     1       5.236  -5.044  22.958  0.00  0.00    +0.179 C 
ATOM     18  C   UNL     1       5.390  -3.758  22.136  0.00  0.00    +0.201 C 
BRANCH  18  19
ATOM     19  O   UNL     1       5.936  -4.044  20.841  0.00  0.00    -0.384 OA
ATOM     20  H   UNL     1       5.325  -4.650  20.380  0.00  0.00    +0.210 HD
ENDBRANCH  18  19
BRANCH  17  21
ATOM     21  O   UNL     1       4.462  -6.017  22.235  0.00  0.00    -0.386 OA
ATOM     22  H   UNL     1       3.634  -5.591  21.942  0.00  0.00    +0.210 HD
ENDBRANCH  17  21
BRANCH  16  23
ATOM     23  O   UNL     1       3.194  -4.362  24.013  0.00  0.00    -0.386 OA
ATOM     24  H   UNL     1       2.875  -3.902  24.813  0.00  0.00    +0.210 HD
ENDBRANCH  16  23
BRANCH  15  25
ATOM     25  C   UNL     1       4.486  -3.152  26.266  0.00  0.00    +0.190 C 
BRANCH  25  26
ATOM     26  O   UNL     1       5.210  -2.264  27.120  0.00  0.00    -0.392 OA
ATOM     27  H   UNL     1       5.941  -1.874  26.612  0.00  0.00    +0.210 HD
ENDBRANCH  25  26
ENDBRANCH  15  25
ENDBRANCH  12  13
ENDBRANCH   7  12
BRANCH   4  28
ATOM     28  O   UNL     1       8.853   0.875  25.467  0.00  0.00    -0.453 OA
BRANCH  28  29
ATOM     29  C   UNL     1       7.709   1.676  25.314  0.00  0.00    +0.214 A 
ATOM     30  C   UNL     1       6.337   1.181  25.690  0.00  0.00    +0.238 A 
ATOM     31  O   UNL     1       6.101   0.008  25.959  0.00  0.00    -0.283 OA
ATOM     32  C   UNL     1       5.225   2.115  25.658  0.00  0.00    +0.109 A 
ATOM     33  C   UNL     1       5.446   3.364  25.095  0.00  0.00    +0.147 A 
ATOM     34  C   UNL     1       4.372   4.245  24.954  0.00  0.00    +0.092 A 
ATOM     35  C   UNL     1       3.096   3.849  25.371  0.00  0.00    +0.124 A 
ATOM     36  C   UNL     1       2.873   2.606  25.955  0.00  0.00    +0.091 A 
ATOM     37  O   UNL     1       6.680   3.772  24.648  0.00  0.00    -0.451 OA
ATOM     38  C   UNL     1       3.945   1.742  26.109  0.00  0.00    +0.135 A 
ATOM     39  C   UNL     1       7.784   2.924  24.795  0.00  0.00    +0.181 A 
BRANCH  39  40
ATOM     40  C   UNL     1       9.067   3.544  24.324  0.00  0.00    +0.025 A 
ATOM     41  C   UNL     1       9.982   2.795  23.554  0.00  0.00    +0.015 A 
ATOM     42  C   UNL     1      11.174   3.361  23.074  0.00  0.00    +0.050 A 
ATOM     43  C   UNL     1      11.464   4.684  23.360  0.00  0.00    +0.158 A 
ATOM     44  C   UNL     1      10.600   5.436  24.146  0.00  0.00    +0.159 A 
ATOM     45  C   UNL     1       9.421   4.874  24.640  0.00  0.00    +0.060 A 
BRANCH  44  46
ATOM     46  O   UNL     1      10.948   6.734  24.406  0.00  0.00    -0.503 OA
ATOM     47  H   UNL     1      11.387   6.761  25.276  0.00  0.00    +0.292 HD
ENDBRANCH  44  46
BRANCH  43  48
ATOM     48  O   UNL     1      12.600   5.250  22.859  0.00  0.00    -0.503 OA
ATOM     49  H   UNL     1      12.486   5.211  21.887  0.00  0.00    +0.292 HD
ENDBRANCH  43  48
ENDBRANCH  39  40
BRANCH  38  50
ATOM     50  O   UNL     1       3.727   0.540  26.722  0.00  0.00    -0.506 OA
ATOM     51  H   UNL     1       3.155   0.650  27.497  0.00  0.00    +0.292 HD
ENDBRANCH  38  50
BRANCH  35  52
ATOM     52  O   UNL     1       2.005   4.655  25.239  0.00  0.00    -0.507 OA
ATOM     53  H   UNL     1       2.255   5.442  24.732  0.00  0.00    +0.292 HD
ENDBRANCH  35  52
ENDBRANCH  28  29
ENDBRANCH   4  28
TORSDOF 16
ENDMDL
MODEL 7
REMARK VINA RESULT:      -6.4      2.711      5.713
REMARK  Name = 
REMARK  17 active torsions:
REMARK  status: ('A' for Active; 'I' for Inactive)
REMARK    1  A    between atoms: C_1  and  C_2
REMARK    2  A    between atoms: C_3  and  O_35
REMARK    3  A    between atoms: C_5  and  O_34
REMARK    4  A    between atoms: C_6  and  O_33
REMARK    5  A    between atoms: C_8  and  O_11
REMARK    6  A    between atoms: O_11  and  C_12
REMARK    7  A    between atoms: C_13  and  C_25
REMARK    8  A    between atoms: C_17  and  O_24
REMARK    9  A    between atoms: C_19  and  O_23
REMARK   10  A    between atoms: C_27  and  O_32
REMARK   11  A    between atoms: C_28  and  O_31
REMARK   12  A    between atoms: O_35  and  C_36
REMARK   13  A    between atoms: C_38  and  O_48
REMARK   14  A    between atoms: C_39  and  O_47
REMARK   15  A    between atoms: C_40  and  O_46
REMARK   16  A    between atoms: C_42  and  C_44
REMARK   17  A    between atoms: C_44  and  O_45
REMARK                            x       y       z     vdW  Elec       q    Type
REMARK                         _______ _______ _______ _____ _____    ______ ____
ROOT
ATOM      1  C   UNL     1       8.583   1.129  21.523  0.00  0.00    +0.041 C 
ATOM      2  C   UNL     1       8.427   2.027  22.764  0.00  0.00    +0.151 C 
ATOM      3  O   UNL     1       7.680   1.390  23.823  0.00  0.00    -0.334 OA
ATOM      4  C   UNL     1       6.295   1.207  23.471  0.00  0.00    +0.339 C 
ATOM      5  C   UNL     1       5.607   2.584  23.281  0.00  0.00    +0.214 C 
ATOM      6  C   UNL     1       6.318   3.315  22.148  0.00  0.00    +0.180 C 
ATOM      7  C   UNL     1       7.835   3.408  22.389  0.00  0.00    +0.181 C 
ENDROOT
BRANCH   6   8
ATOM      8  O   UNL     1       5.773   4.635  21.994  0.00  0.00    -0.386 OA
ATOM      9  H   UNL     1       4.968   4.626  22.552  0.00  0.00    +0.210 HD
ENDBRANCH   6   8
BRANCH   5  10
ATOM     10  O   UNL     1       5.617   3.365  24.493  0.00  0.00    -0.383 OA
ATOM     11  H   UNL     1       6.165   2.860  25.120  0.00  0.00    +0.210 HD
ENDBRANCH   5  10
BRANCH   7  12
ATOM     12  O   UNL     1       8.016   4.438  23.385  0.00  0.00    -0.340 OA
BRANCH  12  13
ATOM     13  C   UNL     1       8.839   4.123  24.511  0.00  0.00    +0.282 C 
ATOM     14  O   UNL     1       8.211   4.637  25.696  0.00  0.00    -0.341 OA
ATOM     15  C   UNL     1       8.077   6.070  25.718  0.00  0.00    +0.178 C 
ATOM     16  C   UNL     1       9.432   6.780  25.520  0.00  0.00    +0.177 C 
ATOM     17  C   UNL     1      10.167   6.221  24.301  0.00  0.00    +0.179 C 
ATOM     18  C   UNL     1      10.271   4.695  24.411  0.00  0.00    +0.201 C 
BRANCH  18  19
ATOM     19  O   UNL     1      11.045   4.159  23.329  0.00  0.00    -0.384 OA
ATOM     20  H   UNL     1      10.430   3.878  22.624  0.00  0.00    +0.210 HD
ENDBRANCH  18  19
BRANCH  17  21
ATOM     21  O   UNL     1      11.475   6.813  24.211  0.00  0.00    -0.386 OA
ATOM     22  H   UNL     1      11.988   6.318  23.544  0.00  0.00    +0.210 HD
ENDBRANCH  17  21
BRANCH  16  23
ATOM     23  O   UNL     1      10.278   6.598  26.667  0.00  0.00    -0.386 OA
ATOM     24  H   UNL     1      11.153   6.949  26.411  0.00  0.00    +0.210 HD
ENDBRANCH  16  23
BRANCH  15  25
ATOM     25  C   UNL     1       7.442   6.495  27.055  0.00  0.00    +0.190 C 
BRANCH  25  26
ATOM     26  O   UNL     1       8.121   5.961  28.194  0.00  0.00    -0.392 OA
ATOM     27  H   UNL     1       9.042   6.268  28.177  0.00  0.00    +0.210 HD
ENDBRANCH  25  26
ENDBRANCH  15  25
ENDBRANCH  12  13
ENDBRANCH   7  12
BRANCH   4  28
ATOM     28  O   UNL     1       5.573   0.403  24.415  0.00  0.00    -0.453 OA
BRANCH  28  29
ATOM     29  C   UNL     1       6.217  -0.770  24.840  0.00  0.00    +0.214 A 
ATOM     30  C   UNL     1       6.513  -1.902  23.891  0.00  0.00    +0.238 A 
ATOM     31  O   UNL     1       6.047  -1.963  22.759  0.00  0.00    -0.283 OA
ATOM     32  C   UNL     1       7.324  -3.013  24.361  0.00  0.00    +0.109 A 
ATOM     33  C   UNL     1       7.618  -3.070  25.715  0.00  0.00    +0.147 A 
ATOM     34  C   UNL     1       8.306  -4.179  26.214  0.00  0.00    +0.092 A 
ATOM     35  C   UNL     1       8.671  -5.212  25.344  0.00  0.00    +0.124 A 
ATOM     36  C   UNL     1       8.395  -5.150  23.981  0.00  0.00    +0.091 A 
ATOM     37  O   UNL     1       7.248  -2.087  26.601  0.00  0.00    -0.451 OA
ATOM     38  C   UNL     1       7.729  -4.040  23.488  0.00  0.00    +0.135 A 
ATOM     39  C   UNL     1       6.579  -0.950  26.132  0.00  0.00    +0.181 A 
BRANCH  39  40
ATOM     40  C   UNL     1       6.309   0.059  27.211  0.00  0.00    +0.025 A 
ATOM     41  C   UNL     1       5.312  -0.180  28.179  0.00  0.00    +0.015 A 
ATOM     42  C   UNL     1       5.063   0.731  29.217  0.00  0.00    +0.050 A 
ATOM     43  C   UNL     1       5.809   1.896  29.296  0.00  0.00    +0.158 A 
ATOM     44  C   UNL     1       6.772   2.176  28.335  0.00  0.00    +0.159 A 
ATOM     45  C   UNL     1       7.013   1.280  27.292  0.00  0.00    +0.060 A 
BRANCH  44  46
ATOM     46  O   UNL     1       7.467   3.349  28.459  0.00  0.00    -0.503 OA
ATOM     47  H   UNL     1       6.935   4.059  28.056  0.00  0.00    +0.292 HD
ENDBRANCH  44  46
BRANCH  43  48
ATOM     48  O   UNL     1       5.599   2.764  30.328  0.00  0.00    -0.503 OA
ATOM     49  H   UNL     1       6.433   3.272  30.395  0.00  0.00    +0.292 HD
ENDBRANCH  43  48
ENDBRANCH  39  40
BRANCH  38  50
ATOM     50  O   UNL     1       7.499  -3.966  22.143  0.00  0.00    -0.506 OA
ATOM     51  H   UNL     1       7.458  -3.041  21.853  0.00  0.00    +0.292 HD
ENDBRANCH  38  50
BRANCH  35  52
ATOM     52  O   UNL     1       9.321  -6.330  25.775  0.00  0.00    -0.507 OA
ATOM     53  H   UNL     1       9.456  -6.926  25.023  0.00  0.00    +0.292 HD
ENDBRANCH  35  52
ENDBRANCH  28  29
ENDBRANCH   4  28
TORSDOF 16
ENDMDL
MODEL 8
REMARK VINA RESULT:      -6.3      2.646      5.248
REMARK  Name = 
REMARK  17 active torsions:
REMARK  status: ('A' for Active; 'I' for Inactive)
REMARK    1  A    between atoms: C_1  and  C_2
REMARK    2  A    between atoms: C_3  and  O_35
REMARK    3  A    between atoms: C_5  and  O_34
REMARK    4  A    between atoms: C_6  and  O_33
REMARK    5  A    between atoms: C_8  and  O_11
REMARK    6  A    between atoms: O_11  and  C_12
REMARK    7  A    between atoms: C_13  and  C_25
REMARK    8  A    between atoms: C_17  and  O_24
REMARK    9  A    between atoms: C_19  and  O_23
REMARK   10  A    between atoms: C_27  and  O_32
REMARK   11  A    between atoms: C_28  and  O_31
REMARK   12  A    between atoms: O_35  and  C_36
REMARK   13  A    between atoms: C_38  and  O_48
REMARK   14  A    between atoms: C_39  and  O_47
REMARK   15  A    between atoms: C_40  and  O_46
REMARK   16  A    between atoms: C_42  and  C_44
REMARK   17  A    between atoms: C_44  and  O_45
REMARK                            x       y       z     vdW  Elec       q    Type
REMARK                         _______ _______ _______ _____ _____    ______ ____
ROOT
ATOM      1  C   UNL     1      10.477   0.097  25.051  0.00  0.00    +0.041 C 
ATOM      2  C   UNL     1       9.390   1.161  24.815  0.00  0.00    +0.151 C 
ATOM      3  O   UNL     1       8.056   0.609  24.823  0.00  0.00    -0.334 OA
ATOM      4  C   UNL     1       7.820  -0.245  23.687  0.00  0.00    +0.339 C 
ATOM      5  C   UNL     1       7.894   0.580  22.376  0.00  0.00    +0.214 C 
ATOM      6  C   UNL     1       9.293   1.176  22.270  0.00  0.00    +0.180 C 
ATOM      7  C   UNL     1       9.671   1.977  23.529  0.00  0.00    +0.181 C 
ENDROOT
BRANCH   6   8
ATOM      8  O   UNL     1       9.382   2.025  21.115  0.00  0.00    -0.386 OA
ATOM      9  H   UNL     1      10.204   2.537  21.259  0.00  0.00    +0.210 HD
ENDBRANCH   6   8
BRANCH   5  10
ATOM     10  O   UNL     1       6.883   1.608  22.326  0.00  0.00    -0.383 OA
ATOM     11  H   UNL     1       7.365   2.447  22.434  0.00  0.00    +0.210 HD
ENDBRANCH   5  10
BRANCH   7  12
ATOM     12  O   UNL     1       8.955   3.227  23.433  0.00  0.00    -0.340 OA
BRANCH  12  13
ATOM     13  C   UNL     1       9.179   4.192  24.465  0.00  0.00    +0.282 C 
ATOM     14  O   UNL     1       8.315   3.889  25.572  0.00  0.00    -0.341 OA
ATOM     15  C   UNL     1       6.912   3.985  25.267  0.00  0.00    +0.178 C 
ATOM     16  C   UNL     1       6.537   5.370  24.702  0.00  0.00    +0.177 C 
ATOM     17  C   UNL     1       7.471   5.763  23.558  0.00  0.00    +0.179 C 
ATOM     18  C   UNL     1       8.930   5.650  24.015  0.00  0.00    +0.201 C 
BRANCH  18  19
ATOM     19  O   UNL     1       9.822   6.110  22.990  0.00  0.00    -0.384 OA
ATOM     20  H   UNL     1       9.815   7.087  22.997  0.00  0.00    +0.210 HD
ENDBRANCH  18  19
BRANCH  17  21
ATOM     21  O   UNL     1       7.176   7.105  23.132  0.00  0.00    -0.386 OA
ATOM     22  H   UNL     1       6.213   7.173  22.983  0.00  0.00    +0.210 HD
ENDBRANCH  17  21
BRANCH  16  23
ATOM     23  O   UNL     1       6.633   6.381  25.718  0.00  0.00    -0.386 OA
ATOM     24  H   UNL     1       5.891   6.994  25.555  0.00  0.00    +0.210 HD
ENDBRANCH  16  23
BRANCH  15  25
ATOM     25  C   UNL     1       6.100   3.690  26.542  0.00  0.00    +0.190 C 
BRANCH  25  26
ATOM     26  O   UNL     1       4.708   3.981  26.401  0.00  0.00    -0.392 OA
ATOM     27  H   UNL     1       4.223   3.522  27.106  0.00  0.00    +0.210 HD
ENDBRANCH  25  26
ENDBRANCH  15  25
ENDBRANCH  12  13
ENDBRANCH   7  12
BRANCH   4  28
ATOM     28  O   UNL     1       6.580  -0.964  23.767  0.00  0.00    -0.453 OA
BRANCH  28  29
ATOM     29  C   UNL     1       5.971  -0.994  25.032  0.00  0.00    +0.214 A 
ATOM     30  C   UNL     1       5.020   0.084  25.481  0.00  0.00    +0.238 A 
ATOM     31  O   UNL     1       4.871   1.138  24.873  0.00  0.00    -0.283 OA
ATOM     32  C   UNL     1       4.303  -0.094  26.733  0.00  0.00    +0.109 A 
ATOM     33  C   UNL     1       4.677  -1.153  27.546  0.00  0.00    +0.147 A 
ATOM     34  C   UNL     1       4.081  -1.290  28.801  0.00  0.00    +0.092 A 
ATOM     35  C   UNL     1       3.129  -0.351  29.218  0.00  0.00    +0.124 A 
ATOM     36  C   UNL     1       2.737   0.702  28.398  0.00  0.00    +0.091 A 
ATOM     37  O   UNL     1       5.629  -2.075  27.180  0.00  0.00    -0.451 OA
ATOM     38  C   UNL     1       3.319   0.823  27.147  0.00  0.00    +0.135 A 
ATOM     39  C   UNL     1       6.231  -1.983  25.919  0.00  0.00    +0.181 A 
BRANCH  39  40
ATOM     40  C   UNL     1       7.193  -3.103  25.645  0.00  0.00    +0.025 A 
ATOM     41  C   UNL     1       8.173  -3.451  26.598  0.00  0.00    +0.015 A 
ATOM     42  C   UNL     1       9.063  -4.515  26.381  0.00  0.00    +0.050 A 
ATOM     43  C   UNL     1       8.984  -5.241  25.204  0.00  0.00    +0.158 A 
ATOM     44  C   UNL     1       8.053  -4.898  24.231  0.00  0.00    +0.159 A 
ATOM     45  C   UNL     1       7.176  -3.831  24.436  0.00  0.00    +0.060 A 
BRANCH  44  46
ATOM     46  O   UNL     1       8.032  -5.645  23.085  0.00  0.00    -0.503 OA
ATOM     47  H   UNL     1       8.586  -5.195  22.421  0.00  0.00    +0.292 HD
ENDBRANCH  44  46
BRANCH  43  48
ATOM     48  O   UNL     1       9.818  -6.303  25.008  0.00  0.00    -0.503 OA
ATOM     49  H   UNL     1       9.500  -6.716  24.180  0.00  0.00    +0.292 HD
ENDBRANCH  43  48
ENDBRANCH  39  40
BRANCH  38  50
ATOM     50  O   UNL     1       2.897   1.834  26.330  0.00  0.00    -0.506 OA
ATOM     51  H   UNL     1       1.972   1.701  26.069  0.00  0.00    +0.292 HD
ENDBRANCH  38  50
BRANCH  35  52
ATOM     52  O   UNL     1       2.530  -0.418  30.440  0.00  0.00    -0.507 OA
ATOM     53  H   UNL     1       3.209  -0.351  31.128  0.00  0.00    +0.292 HD
ENDBRANCH  35  52
ENDBRANCH  28  29
ENDBRANCH   4  28
TORSDOF 16
ENDMDL
MODEL 9
REMARK VINA RESULT:      -6.2      1.905      3.136
REMARK  Name = 
REMARK  17 active torsions:
REMARK  status: ('A' for Active; 'I' for Inactive)
REMARK    1  A    between atoms: C_1  and  C_2
REMARK    2  A    between atoms: C_3  and  O_35
REMARK    3  A    between atoms: C_5  and  O_34
REMARK    4  A    between atoms: C_6  and  O_33
REMARK    5  A    between atoms: C_8  and  O_11
REMARK    6  A    between atoms: O_11  and  C_12
REMARK    7  A    between atoms: C_13  and  C_25
REMARK    8  A    between atoms: C_17  and  O_24
REMARK    9  A    between atoms: C_19  and  O_23
REMARK   10  A    between atoms: C_27  and  O_32
REMARK   11  A    between atoms: C_28  and  O_31
REMARK   12  A    between atoms: O_35  and  C_36
REMARK   13  A    between atoms: C_38  and  O_48
REMARK   14  A    between atoms: C_39  and  O_47
REMARK   15  A    between atoms: C_40  and  O_46
REMARK   16  A    between atoms: C_42  and  C_44
REMARK   17  A    between atoms: C_44  and  O_45
REMARK                            x       y       z     vdW  Elec       q    Type
REMARK                         _______ _______ _______ _____ _____    ______ ____
ROOT
ATOM      1  C   UNL     1       4.229  -0.514  27.408  0.00  0.00    +0.041 C 
ATOM      2  C   UNL     1       4.933   0.339  26.338  0.00  0.00    +0.151 C 
ATOM      3  O   UNL     1       6.056  -0.338  25.734  0.00  0.00    -0.334 OA
ATOM      4  C   UNL     1       7.141  -0.518  26.664  0.00  0.00    +0.339 C 
ATOM      5  C   UNL     1       7.705   0.859  27.099  0.00  0.00    +0.214 C 
ATOM      6  C   UNL     1       6.584   1.633  27.784  0.00  0.00    +0.180 C 
ATOM      7  C   UNL     1       5.329   1.729  26.897  0.00  0.00    +0.181 C 
ENDROOT
BRANCH   6   8
ATOM      8  O   UNL     1       7.033   2.955  28.125  0.00  0.00    -0.386 OA
ATOM      9  H   UNL     1       6.605   3.136  28.987  0.00  0.00    +0.210 HD
ENDBRANCH   6   8
BRANCH   5  10
ATOM     10  O   UNL     1       8.245   1.599  25.986  0.00  0.00    -0.383 OA
ATOM     11  H   UNL     1       9.049   1.117  25.722  0.00  0.00    +0.210 HD
ENDBRANCH   5  10
BRANCH   7  12
ATOM     12  O   UNL     1       5.626   2.726  25.896  0.00  0.00    -0.340 OA
BRANCH  12  13
ATOM     13  C   UNL     1       4.777   3.876  25.845  0.00  0.00    +0.282 C 
ATOM     14  O   UNL     1       3.780   3.666  24.833  0.00  0.00    -0.341 OA
ATOM     15  C   UNL     1       4.311   3.532  23.502  0.00  0.00    +0.178 C 
ATOM     16  C   UNL     1       5.184   4.740  23.103  0.00  0.00    +0.177 C 
ATOM     17  C   UNL     1       6.224   5.040  24.183  0.00  0.00    +0.179 C 
ATOM     18  C   UNL     1       5.533   5.191  25.544  0.00  0.00    +0.201 C 
BRANCH  18  19
ATOM     19  O   UNL     1       6.478   5.572  26.554  0.00  0.00    -0.384 OA
ATOM     20  H   UNL     1       6.901   4.762  26.897  0.00  0.00    +0.210 HD
ENDBRANCH  18  19
BRANCH  17  21
ATOM     21  O   UNL     1       6.942   6.239  23.843  0.00  0.00    -0.386 OA
ATOM     22  H   UNL     1       7.280   6.636  24.669  0.00  0.00    +0.210 HD
ENDBRANCH  17  21
BRANCH  16  23
ATOM     23  O   UNL     1       4.380   5.917  22.926  0.00  0.00    -0.386 OA
ATOM     24  H   UNL     1       4.766   6.390  22.164  0.00  0.00    +0.210 HD
ENDBRANCH  16  23
BRANCH  15  25
ATOM     25  C   UNL     1       3.144   3.366  22.510  0.00  0.00    +0.190 C 
BRANCH  25  26
ATOM     26  O   UNL     1       3.443   3.864  21.204  0.00  0.00    -0.392 OA
ATOM     27  H   UNL     1       2.811   4.569  20.989  0.00  0.00    +0.210 HD
ENDBRANCH  25  26
ENDBRANCH  15  25
ENDBRANCH  12  13
ENDBRANCH   7  12
BRANCH   4  28
ATOM     28  O   UNL     1       8.188  -1.359  26.157  0.00  0.00    -0.453 OA
BRANCH  28  29
ATOM     29  C   UNL     1       7.847  -2.167  25.059  0.00  0.00    +0.214 A 
ATOM     30  C   UNL     1       7.185  -3.507  25.237  0.00  0.00    +0.238 A 
ATOM     31  O   UNL     1       7.081  -4.063  26.325  0.00  0.00    -0.283 OA
ATOM     32  C   UNL     1       6.715  -4.216  24.058  0.00  0.00    +0.109 A 
ATOM     33  C   UNL     1       7.076  -3.713  22.816  0.00  0.00    +0.147 A 
ATOM     34  C   UNL     1       6.730  -4.427  21.667  0.00  0.00    +0.092 A 
ATOM     35  C   UNL     1       6.038  -5.638  21.791  0.00  0.00    +0.124 A 
ATOM     36  C   UNL     1       5.657  -6.136  23.033  0.00  0.00    +0.091 A 
ATOM     37  O   UNL     1       7.781  -2.543  22.662  0.00  0.00    -0.451 OA
ATOM     38  C   UNL     1       5.987  -5.415  24.168  0.00  0.00    +0.135 A 
ATOM     39  C   UNL     1       8.125  -1.788  23.790  0.00  0.00    +0.181 A 
BRANCH  39  40
ATOM     40  C   UNL     1       8.827  -0.507  23.447  0.00  0.00    +0.025 A 
ATOM     41  C   UNL     1      10.119  -0.244  23.950  0.00  0.00    +0.015 A 
ATOM     42  C   UNL     1      10.811   0.932  23.618  0.00  0.00    +0.050 A 
ATOM     43  C   UNL     1      10.216   1.860  22.779  0.00  0.00    +0.158 A 
ATOM     44  C   UNL     1       8.930   1.645  22.298  0.00  0.00    +0.159 A 
ATOM     45  C   UNL     1       8.231   0.485  22.638  0.00  0.00    +0.060 A 
BRANCH  44  46
ATOM     46  O   UNL     1       8.391   2.605  21.485  0.00  0.00    -0.503 OA
ATOM     47  H   UNL     1       8.999   2.743  20.737  0.00  0.00    +0.292 HD
ENDBRANCH  44  46
BRANCH  43  48
ATOM     48  O   UNL     1      10.902   2.983  22.420  0.00  0.00    -0.503 OA
ATOM     49  H   UNL     1      10.514   3.694  22.969  0.00  0.00    +0.292 HD
ENDBRANCH  43  48
ENDBRANCH  39  40
BRANCH  38  50
ATOM     50  O   UNL     1       5.572  -5.888  25.381  0.00  0.00    -0.506 OA
ATOM     51  H   UNL     1       5.238  -5.164  25.935  0.00  0.00    +0.292 HD
ENDBRANCH  38  50
BRANCH  35  52
ATOM     52  O   UNL     1       5.693  -6.392  20.709  0.00  0.00    -0.507 OA
ATOM     53  H   UNL     1       6.459  -6.465  20.119  0.00  0.00    +0.292 HD
ENDBRANCH  35  52
ENDBRANCH  28  29
ENDBRANCH   4  28
TORSDOF 16
ENDMDL
