MODEL 1
REMARK VINA RESULT:      -7.4      0.000      0.000
REMARK  Name = 
REMARK  15 active torsions:
REMARK  status: ('A' for Active; 'I' for Inactive)
REMARK    1  A    between atoms: C_1  and  C_2
REMARK    2  A    between atoms: C_2  and  C_3
REMARK    3  A    between atoms: C_3  and  C_4
REMARK    4  A    between atoms: C_4  and  C_5
REMARK    5  A    between atoms: C_5  and  C_6
REMARK    6  A    between atoms: C_6  and  C_7
REMARK    7  A    between atoms: C_7  and  C_8
REMARK    8  A    between atoms: C_8  and  O_10
REMARK    9  A    between atoms: O_10  and  C_11
REMARK   10  A    between atoms: C_12  and  O_32
REMARK   11  A    between atoms: C_16  and  O_17
REMARK   12  A    between atoms: C_19  and  C_24
REMARK   13  A    between atoms: C_20  and  O_23
REMARK   14  A    between atoms: C_26  and  O_31
REMARK   15  A    between atoms: C_27  and  O_30
REMARK                            x       y       z     vdW  Elec       q    Type
REMARK                         _______ _______ _______ _____ _____    ______ ____
ROOT
ATOM      1  C   UNL     1       8.561   0.460  22.897  0.00  0.00    +0.215 A 
ATOM      2  C   UNL     1       7.166   0.463  22.818  0.00  0.00    +0.166 A 
ATOM      3  C   UNL     1       6.443  -0.654  23.216  0.00  0.00    +0.096 A 
ATOM      4  C   UNL     1       7.118  -1.800  23.649  0.00  0.00    +0.147 A 
ATOM      5  O   UNL     1       6.314  -2.855  24.003  0.00  0.00    -0.451 OA
ATOM      6  C   UNL     1       6.899  -4.033  24.431  0.00  0.00    +0.181 A 
ATOM      7  C   UNL     1       8.228  -4.237  24.444  0.00  0.00    +0.208 A 
ATOM      8  C   UNL     1       9.144  -3.143  24.013  0.00  0.00    +0.238 A 
ATOM      9  O   UNL     1      10.347  -3.382  23.922  0.00  0.00    -0.283 OA
ATOM     10  C   UNL     1       8.516  -1.850  23.664  0.00  0.00    +0.113 A 
ATOM     11  C   UNL     1       9.241  -0.704  23.296  0.00  0.00    +0.178 A 
ENDROOT
BRANCH   6  12
ATOM     12  C   UNL     1       5.926  -5.105  24.772  0.00  0.00    +0.025 A 
ATOM     13  C   UNL     1       5.052  -5.614  23.793  0.00  0.00    +0.015 A 
ATOM     14  C   UNL     1       4.173  -6.665  24.085  0.00  0.00    +0.050 A 
ATOM     15  C   UNL     1       4.175  -7.220  25.355  0.00  0.00    +0.158 A 
ATOM     16  C   UNL     1       5.018  -6.725  26.340  0.00  0.00    +0.159 A 
ATOM     17  C   UNL     1       5.865  -5.656  26.066  0.00  0.00    +0.060 A 
BRANCH  15  18
ATOM     18  O   UNL     1       3.351  -8.270  25.632  0.00  0.00    -0.503 OA
ATOM     19  H   UNL     1       2.493  -7.854  25.852  0.00  0.00    +0.292 HD
ENDBRANCH  15  18
BRANCH  16  20
ATOM     20  O   UNL     1       5.000  -7.330  27.566  0.00  0.00    -0.503 OA
ATOM     21  H   UNL     1       5.804  -7.873  27.644  0.00  0.00    +0.292 HD
ENDBRANCH  16  20
ENDBRANCH   6  12
BRANCH   2  22
ATOM     22  O   UNL     1       6.519   1.547  22.300  0.00  0.00    -0.503 OA
ATOM     23  H   UNL     1       5.659   1.264  21.945  0.00  0.00    +0.292 HD
ENDBRANCH   2  22
BRANCH   7  24
ATOM     24  O   UNL     1       8.782  -5.472  24.745  0.00  0.00    -0.501 OA
ATOM     25  H   UNL     1       8.378  -5.745  25.590  0.00  0.00    +0.292 HD
ENDBRANCH   7  24
BRANCH  11  26
ATOM     26  O   UNL     1      10.607  -0.689  23.323  0.00  0.00    -0.503 OA
ATOM     27  H   UNL     1      10.912   0.237  23.295  0.00  0.00    +0.292 HD
ENDBRANCH  11  26
BRANCH   1  28
ATOM     28  O   UNL     1       9.326   1.535  22.421  0.00  0.00    -0.418 OA
BRANCH  28  29
ATOM     29  C   UNL     1       9.819   2.375  23.417  0.00  0.00    +0.313 C 
ATOM     30  O   UNL     1      10.751   2.099  24.181  0.00  0.00    -0.250 OA
BRANCH  29  31
ATOM     31  C   UNL     1       9.027   3.657  23.403  0.00  0.00    +0.121 C 
BRANCH  31  32
ATOM     32  C   UNL     1       8.892   4.311  24.767  0.00  0.00    +0.011 C 
BRANCH  32  33
ATOM     33  C   UNL     1       9.392   5.754  24.761  0.00  0.00    +0.001 C 
BRANCH  33  34
ATOM     34  C   UNL     1      10.344   5.993  23.595  0.00  0.00    +0.000 C 
BRANCH  34  35
ATOM     35  C   UNL     1      11.795   6.008  24.067  0.00  0.00    -0.000 C 
BRANCH  35  37
ATOM     36  C   UNL     1      13.248   5.625  22.052  0.00  0.00    +0.004 C 
ATOM     37  C   UNL     1      12.630   4.996  23.288  0.00  0.00    -0.003 C 
ENDBRANCH  35  37
ENDBRANCH  34  35
ENDBRANCH  33  34
ENDBRANCH  32  33
ENDBRANCH  31  32
ENDBRANCH  29  31
ENDBRANCH  28  29
ENDBRANCH   1  28
TORSDOF 14
ENDMDL
MODEL 2
REMARK VINA RESULT:      -7.3      2.642      8.832
REMARK  Name = 
REMARK  15 active torsions:
REMARK  status: ('A' for Active; 'I' for Inactive)
REMARK    1  A    between atoms: C_1  and  C_2
REMARK    2  A    between atoms: C_2  and  C_3
REMARK    3  A    between atoms: C_3  and  C_4
REMARK    4  A    between atoms: C_4  and  C_5
REMARK    5  A    between atoms: C_5  and  C_6
REMARK    6  A    between atoms: C_6  and  C_7
REMARK    7  A    between atoms: C_7  and  C_8
REMARK    8  A    between atoms: C_8  and  O_10
REMARK    9  A    between atoms: O_10  and  C_11
REMARK   10  A    between atoms: C_12  and  O_32
REMARK   11  A    between atoms: C_16  and  O_17
REMARK   12  A    between atoms: C_19  and  C_24
REMARK   13  A    between atoms: C_20  and  O_23
REMARK   14  A    between atoms: C_26  and  O_31
REMARK   15  A    between atoms: C_27  and  O_30
REMARK                            x       y       z     vdW  Elec       q    Type
REMARK                         _______ _______ _______ _____ _____    ______ ____
ROOT
ATOM      1  C   UNL     1       5.824  -4.543  27.915  0.00  0.00    +0.215 A 
ATOM      2  C   UNL     1       5.299  -3.256  27.774  0.00  0.00    +0.166 A 
ATOM      3  C   UNL     1       5.881  -2.360  26.886  0.00  0.00    +0.096 A 
ATOM      4  C   UNL     1       7.023  -2.733  26.172  0.00  0.00    +0.147 A 
ATOM      5  O   UNL     1       7.532  -1.770  25.335  0.00  0.00    -0.451 OA
ATOM      6  C   UNL     1       8.669  -2.050  24.600  0.00  0.00    +0.181 A 
ATOM      7  C   UNL     1       9.363  -3.196  24.718  0.00  0.00    +0.208 A 
ATOM      8  C   UNL     1       8.887  -4.251  25.658  0.00  0.00    +0.238 A 
ATOM      9  O   UNL     1       9.592  -5.241  25.838  0.00  0.00    -0.283 OA
ATOM     10  C   UNL     1       7.609  -3.990  26.356  0.00  0.00    +0.113 A 
ATOM     11  C   UNL     1       6.994  -4.906  27.227  0.00  0.00    +0.178 A 
ENDROOT
BRANCH   6  12
ATOM     12  C   UNL     1       9.130  -0.926  23.742  0.00  0.00    +0.025 A 
ATOM     13  C   UNL     1       8.764  -0.868  22.384  0.00  0.00    +0.015 A 
ATOM     14  C   UNL     1       9.140   0.216  21.581  0.00  0.00    +0.050 A 
ATOM     15  C   UNL     1       9.872   1.254  22.138  0.00  0.00    +0.158 A 
ATOM     16  C   UNL     1      10.255   1.211  23.471  0.00  0.00    +0.159 A 
ATOM     17  C   UNL     1       9.918   0.118  24.263  0.00  0.00    +0.060 A 
BRANCH  15  18
ATOM     18  O   UNL     1      10.204   2.331  21.370  0.00  0.00    -0.503 OA
ATOM     19  H   UNL     1      10.558   1.940  20.545  0.00  0.00    +0.292 HD
ENDBRANCH  15  18
BRANCH  16  20
ATOM     20  O   UNL     1      10.951   2.275  23.975  0.00  0.00    -0.503 OA
ATOM     21  H   UNL     1      11.595   2.558  23.301  0.00  0.00    +0.292 HD
ENDBRANCH  16  20
ENDBRANCH   6  12
BRANCH   2  22
ATOM     22  O   UNL     1       4.245  -2.865  28.548  0.00  0.00    -0.503 OA
ATOM     23  H   UNL     1       4.393  -1.953  28.850  0.00  0.00    +0.292 HD
ENDBRANCH   2  22
BRANCH   7  24
ATOM     24  O   UNL     1      10.574  -3.395  24.073  0.00  0.00    -0.501 OA
ATOM     25  H   UNL     1      11.059  -4.047  24.614  0.00  0.00    +0.292 HD
ENDBRANCH   7  24
BRANCH  11  26
ATOM     26  O   UNL     1       7.508  -6.158  27.419  0.00  0.00    -0.503 OA
ATOM     27  H   UNL     1       7.542  -6.618  26.559  0.00  0.00    +0.292 HD
ENDBRANCH  11  26
BRANCH   1  28
ATOM     28  O   UNL     1       5.318  -5.442  28.866  0.00  0.00    -0.418 OA
BRANCH  28  29
ATOM     29  C   UNL     1       4.986  -6.694  28.353  0.00  0.00    +0.313 C 
ATOM     30  O   UNL     1       5.568  -7.750  28.625  0.00  0.00    -0.250 OA
BRANCH  29  31
ATOM     31  C   UNL     1       3.813  -6.536  27.420  0.00  0.00    +0.121 C 
BRANCH  31  32
ATOM     32  C   UNL     1       4.106  -6.955  25.989  0.00  0.00    +0.011 C 
BRANCH  32  33
ATOM     33  C   UNL     1       3.964  -5.791  25.011  0.00  0.00    +0.001 C 
BRANCH  33  34
ATOM     34  C   UNL     1       5.184  -5.692  24.104  0.00  0.00    +0.000 C 
BRANCH  34  35
ATOM     35  C   UNL     1       5.233  -4.341  23.396  0.00  0.00    -0.000 C 
BRANCH  35  37
ATOM     36  C   UNL     1       7.272  -5.521  22.521  0.00  0.00    +0.004 C 
ATOM     37  C   UNL     1       6.487  -4.222  22.535  0.00  0.00    -0.003 C 
ENDBRANCH  35  37
ENDBRANCH  34  35
ENDBRANCH  33  34
ENDBRANCH  32  33
ENDBRANCH  31  32
ENDBRANCH  29  31
ENDBRANCH  28  29
ENDBRANCH   1  28
TORSDOF 14
ENDMDL
MODEL 3
REMARK VINA RESULT:      -7.2      2.589      9.072
REMARK  Name = 
REMARK  15 active torsions:
REMARK  status: ('A' for Active; 'I' for Inactive)
REMARK    1  A    between atoms: C_1  and  C_2
REMARK    2  A    between atoms: C_2  and  C_3
REMARK    3  A    between atoms: C_3  and  C_4
REMARK    4  A    between atoms: C_4  and  C_5
REMARK    5  A    between atoms: C_5  and  C_6
REMARK    6  A    between atoms: C_6  and  C_7
REMARK    7  A    between atoms: C_7  and  C_8
REMARK    8  A    between atoms: C_8  and  O_10
REMARK    9  A    between atoms: O_10  and  C_11
REMARK   10  A    between atoms: C_12  and  O_32
REMARK   11  A    between atoms: C_16  and  O_17
REMARK   12  A    between atoms: C_19  and  C_24
REMARK   13  A    between atoms: C_20  and  O_23
REMARK   14  A    between atoms: C_26  and  O_31
REMARK   15  A    between atoms: C_27  and  O_30
REMARK                            x       y       z     vdW  Elec       q    Type
REMARK                         _______ _______ _______ _____ _____    ______ ____
ROOT
ATOM      1  C   UNL     1       5.734  -4.504  27.868  0.00  0.00    +0.215 A 
ATOM      2  C   UNL     1       7.033  -4.783  27.436  0.00  0.00    +0.166 A 
ATOM      3  C   UNL     1       7.699  -3.886  26.610  0.00  0.00    +0.096 A 
ATOM      4  C   UNL     1       7.048  -2.730  26.172  0.00  0.00    +0.147 A 
ATOM      5  O   UNL     1       7.786  -1.919  25.345  0.00  0.00    -0.451 OA
ATOM      6  C   UNL     1       7.214  -0.759  24.854  0.00  0.00    +0.181 A 
ATOM      7  C   UNL     1       5.933  -0.414  25.076  0.00  0.00    +0.208 A 
ATOM      8  C   UNL     1       5.071  -1.291  25.919  0.00  0.00    +0.238 A 
ATOM      9  O   UNL     1       3.876  -1.022  26.018  0.00  0.00    -0.283 OA
ATOM     10  C   UNL     1       5.722  -2.470  26.531  0.00  0.00    +0.113 A 
ATOM     11  C   UNL     1       5.065  -3.361  27.398  0.00  0.00    +0.178 A 
ENDROOT
BRANCH   6  12
ATOM     12  C   UNL     1       8.106   0.026  23.959  0.00  0.00    +0.025 A 
ATOM     13  C   UNL     1       8.255  -0.332  22.606  0.00  0.00    +0.015 A 
ATOM     14  C   UNL     1       9.044   0.434  21.739  0.00  0.00    +0.050 A 
ATOM     15  C   UNL     1       9.676   1.570  22.220  0.00  0.00    +0.158 A 
ATOM     16  C   UNL     1       9.555   1.934  23.553  0.00  0.00    +0.159 A 
ATOM     17  C   UNL     1       8.804   1.155  24.428  0.00  0.00    +0.060 A 
BRANCH  15  18
ATOM     18  O   UNL     1      10.411   2.342  21.369  0.00  0.00    -0.503 OA
ATOM     19  H   UNL     1      10.220   1.975  20.482  0.00  0.00    +0.292 HD
ENDBRANCH  15  18
BRANCH  16  20
ATOM     20  O   UNL     1      10.176   3.080  23.966  0.00  0.00    -0.503 OA
ATOM     21  H   UNL     1      10.142   3.106  24.939  0.00  0.00    +0.292 HD
ENDBRANCH  16  20
ENDBRANCH   6  12
BRANCH   2  22
ATOM     22  O   UNL     1       7.626  -5.961  27.786  0.00  0.00    -0.503 OA
ATOM     23  H   UNL     1       7.114  -6.375  28.501  0.00  0.00    +0.292 HD
ENDBRANCH   2  22
BRANCH   7  24
ATOM     24  O   UNL     1       5.347   0.680  24.459  0.00  0.00    -0.501 OA
ATOM     25  H   UNL     1       4.412   0.436  24.319  0.00  0.00    +0.292 HD
ENDBRANCH   7  24
BRANCH  11  26
ATOM     26  O   UNL     1       3.780  -3.138  27.806  0.00  0.00    -0.503 OA
ATOM     27  H   UNL     1       3.504  -3.870  28.388  0.00  0.00    +0.292 HD
ENDBRANCH  11  26
BRANCH   1  28
ATOM     28  O   UNL     1       5.000  -5.427  28.629  0.00  0.00    -0.418 OA
BRANCH  28  29
ATOM     29  C   UNL     1       4.916  -6.698  28.064  0.00  0.00    +0.313 C 
ATOM     30  O   UNL     1       5.575  -7.679  28.424  0.00  0.00    -0.250 OA
BRANCH  29  31
ATOM     31  C   UNL     1       3.899  -6.665  26.952  0.00  0.00    +0.121 C 
BRANCH  31  32
ATOM     32  C   UNL     1       4.499  -6.825  25.566  0.00  0.00    +0.011 C 
BRANCH  32  33
ATOM     33  C   UNL     1       4.071  -5.702  24.624  0.00  0.00    +0.001 C 
BRANCH  33  34
ATOM     34  C   UNL     1       5.262  -5.176  23.831  0.00  0.00    +0.000 C 
BRANCH  34  35
ATOM     35  C   UNL     1       4.969  -3.793  23.256  0.00  0.00    -0.000 C 
BRANCH  35  37
ATOM     36  C   UNL     1       7.371  -3.921  22.523  0.00  0.00    +0.004 C 
ATOM     37  C   UNL     1       5.977  -3.431  22.170  0.00  0.00    -0.003 C 
ENDBRANCH  35  37
ENDBRANCH  34  35
ENDBRANCH  33  34
ENDBRANCH  32  33
ENDBRANCH  31  32
ENDBRANCH  29  31
ENDBRANCH  28  29
ENDBRANCH   1  28
TORSDOF 14
ENDMDL
MODEL 4
REMARK VINA RESULT:      -7.1      2.124      9.064
REMARK  Name = 
REMARK  15 active torsions:
REMARK  status: ('A' for Active; 'I' for Inactive)
REMARK    1  A    between atoms: C_1  and  C_2
REMARK    2  A    between atoms: C_2  and  C_3
REMARK    3  A    between atoms: C_3  and  C_4
REMARK    4  A    between atoms: C_4  and  C_5
REMARK    5  A    between atoms: C_5  and  C_6
REMARK    6  A    between atoms: C_6  and  C_7
REMARK    7  A    between atoms: C_7  and  C_8
REMARK    8  A    between atoms: C_8  and  O_10
REMARK    9  A    between atoms: O_10  and  C_11
REMARK   10  A    between atoms: C_12  and  O_32
REMARK   11  A    between atoms: C_16  and  O_17
REMARK   12  A    between atoms: C_19  and  C_24
REMARK   13  A    between atoms: C_20  and  O_23
REMARK   14  A    between atoms: C_26  and  O_31
REMARK   15  A    between atoms: C_27  and  O_30
REMARK                            x       y       z     vdW  Elec       q    Type
REMARK                         _______ _______ _______ _____ _____    ______ ____
ROOT
ATOM      1  C   UNL     1       8.201  -2.267  23.401  0.00  0.00    +0.215 A 
ATOM      2  C   UNL     1       9.522  -2.183  23.845  0.00  0.00    +0.166 A 
ATOM      3  C   UNL     1      10.136  -0.943  23.974  0.00  0.00    +0.096 A 
ATOM      4  C   UNL     1       9.444   0.215  23.609  0.00  0.00    +0.147 A 
ATOM      5  O   UNL     1      10.144   1.388  23.756  0.00  0.00    -0.451 OA
ATOM      6  C   UNL     1       9.540   2.581  23.405  0.00  0.00    +0.181 A 
ATOM      7  C   UNL     1       8.320   2.656  22.846  0.00  0.00    +0.208 A 
ATOM      8  C   UNL     1       7.541   1.407  22.610  0.00  0.00    +0.238 A 
ATOM      9  O   UNL     1       6.479   1.482  21.996  0.00  0.00    -0.283 OA
ATOM     10  C   UNL     1       8.147   0.146  23.090  0.00  0.00    +0.113 A 
ATOM     11  C   UNL     1       7.518  -1.107  22.998  0.00  0.00    +0.178 A 
ENDROOT
BRANCH   6  12
ATOM     12  C   UNL     1      10.403   3.777  23.597  0.00  0.00    +0.025 A 
ATOM     13  C   UNL     1       9.881   4.949  24.178  0.00  0.00    +0.015 A 
ATOM     14  C   UNL     1      10.698   6.060  24.420  0.00  0.00    +0.050 A 
ATOM     15  C   UNL     1      12.043   6.000  24.092  0.00  0.00    +0.158 A 
ATOM     16  C   UNL     1      12.576   4.861  23.505  0.00  0.00    +0.159 A 
ATOM     17  C   UNL     1      11.761   3.769  23.228  0.00  0.00    +0.060 A 
BRANCH  15  18
ATOM     18  O   UNL     1      12.850   7.065  24.364  0.00  0.00    -0.503 OA
ATOM     19  H   UNL     1      12.279   7.847  24.216  0.00  0.00    +0.292 HD
ENDBRANCH  15  18
BRANCH  16  20
ATOM     20  O   UNL     1      13.916   4.846  23.230  0.00  0.00    -0.503 OA
ATOM     21  H   UNL     1      14.341   5.534  23.773  0.00  0.00    +0.292 HD
ENDBRANCH  16  20
ENDBRANCH   6  12
BRANCH   2  22
ATOM     22  O   UNL     1      10.225  -3.324  24.104  0.00  0.00    -0.503 OA
ATOM     23  H   UNL     1      10.765  -3.548  23.327  0.00  0.00    +0.292 HD
ENDBRANCH   2  22
BRANCH   7  24
ATOM     24  O   UNL     1       7.795   3.851  22.378  0.00  0.00    -0.501 OA
ATOM     25  H   UNL     1       8.084   3.922  21.449  0.00  0.00    +0.292 HD
ENDBRANCH   7  24
BRANCH  11  26
ATOM     26  O   UNL     1       6.240  -1.227  22.528  0.00  0.00    -0.503 OA
ATOM     27  H   UNL     1       6.111  -2.136  22.199  0.00  0.00    +0.292 HD
ENDBRANCH  11  26
BRANCH   1  28
ATOM     28  O   UNL     1       7.580  -3.505  23.174  0.00  0.00    -0.418 OA
BRANCH  28  29
ATOM     29  C   UNL     1       7.245  -4.200  24.335  0.00  0.00    +0.313 C 
ATOM     30  O   UNL     1       8.003  -4.955  24.953  0.00  0.00    -0.250 OA
BRANCH  29  31
ATOM     31  C   UNL     1       5.819  -3.875  24.696  0.00  0.00    +0.121 C 
BRANCH  31  32
ATOM     32  C   UNL     1       5.675  -3.089  25.988  0.00  0.00    +0.011 C 
BRANCH  32  33
ATOM     33  C   UNL     1       4.774  -1.868  25.818  0.00  0.00    +0.001 C 
BRANCH  33  34
ATOM     34  C   UNL     1       5.533  -0.585  26.137  0.00  0.00    +0.000 C 
BRANCH  34  35
ATOM     35  C   UNL     1       6.941  -0.892  26.639  0.00  0.00    -0.000 C 
BRANCH  35  37
ATOM     36  C   UNL     1       7.271   1.584  26.360  0.00  0.00    +0.004 C 
ATOM     37  C   UNL     1       7.605   0.363  27.198  0.00  0.00    -0.003 C 
ENDBRANCH  35  37
ENDBRANCH  34  35
ENDBRANCH  33  34
ENDBRANCH  32  33
ENDBRANCH  31  32
ENDBRANCH  29  31
ENDBRANCH  28  29
ENDBRANCH   1  28
TORSDOF 14
ENDMDL
MODEL 5
REMARK VINA RESULT:      -7.0      1.828      2.488
REMARK  Name = 
REMARK  15 active torsions:
REMARK  status: ('A' for Active; 'I' for Inactive)
REMARK    1  A    between atoms: C_1  and  C_2
REMARK    2  A    between atoms: C_2  and  C_3
REMARK    3  A    between atoms: C_3  and  C_4
REMARK    4  A    between atoms: C_4  and  C_5
REMARK    5  A    between atoms: C_5  and  C_6
REMARK    6  A    between atoms: C_6  and  C_7
REMARK    7  A    between atoms: C_7  and  C_8
REMARK    8  A    between atoms: C_8  and  O_10
REMARK    9  A    between atoms: O_10  and  C_11
REMARK   10  A    between atoms: C_12  and  O_32
REMARK   11  A    between atoms: C_16  and  O_17
REMARK   12  A    between atoms: C_19  and  C_24
REMARK   13  A    between atoms: C_20  and  O_23
REMARK   14  A    between atoms: C_26  and  O_31
REMARK   15  A    between atoms: C_27  and  O_30
REMARK                            x       y       z     vdW  Elec       q    Type
REMARK                         _______ _______ _______ _____ _____    ______ ____
ROOT
ATOM      1  C   UNL     1       9.908  -0.722  23.656  0.00  0.00    +0.215 A 
ATOM      2  C   UNL     1       9.682  -0.456  25.008  0.00  0.00    +0.166 A 
ATOM      3  C   UNL     1       8.918  -1.330  25.771  0.00  0.00    +0.096 A 
ATOM      4  C   UNL     1       8.334  -2.449  25.170  0.00  0.00    +0.147 A 
ATOM      5  O   UNL     1       7.583  -3.239  26.005  0.00  0.00    -0.451 OA
ATOM      6  C   UNL     1       6.958  -4.360  25.489  0.00  0.00    +0.181 A 
ATOM      7  C   UNL     1       6.976  -4.682  24.183  0.00  0.00    +0.208 A 
ATOM      8  C   UNL     1       7.727  -3.824  23.224  0.00  0.00    +0.238 A 
ATOM      9  O   UNL     1       7.640  -4.066  22.022  0.00  0.00    -0.283 OA
ATOM     10  C   UNL     1       8.485  -2.691  23.800  0.00  0.00    +0.113 A 
ATOM     11  C   UNL     1       9.291  -1.824  23.041  0.00  0.00    +0.178 A 
ENDROOT
BRANCH   6  12
ATOM     12  C   UNL     1       6.165  -5.126  26.487  0.00  0.00    +0.025 A 
ATOM     13  C   UNL     1       4.767  -5.231  26.359  0.00  0.00    +0.015 A 
ATOM     14  C   UNL     1       4.015  -5.998  27.257  0.00  0.00    +0.050 A 
ATOM     15  C   UNL     1       4.662  -6.676  28.279  0.00  0.00    +0.158 A 
ATOM     16  C   UNL     1       6.037  -6.575  28.433  0.00  0.00    +0.159 A 
ATOM     17  C   UNL     1       6.783  -5.783  27.567  0.00  0.00    +0.060 A 
BRANCH  15  18
ATOM     18  O   UNL     1       3.938  -7.458  29.131  0.00  0.00    -0.503 OA
ATOM     19  H   UNL     1       3.558  -6.827  29.776  0.00  0.00    +0.292 HD
ENDBRANCH  15  18
BRANCH  16  20
ATOM     20  O   UNL     1       6.625  -7.289  29.441  0.00  0.00    -0.503 OA
ATOM     21  H   UNL     1       7.551  -7.456  29.188  0.00  0.00    +0.292 HD
ENDBRANCH  16  20
ENDBRANCH   6  12
BRANCH   2  22
ATOM     22  O   UNL     1      10.172   0.689  25.566  0.00  0.00    -0.503 OA
ATOM     23  H   UNL     1       9.748   1.455  25.142  0.00  0.00    +0.292 HD
ENDBRANCH   2  22
BRANCH   7  24
ATOM     24  O   UNL     1       6.228  -5.732  23.673  0.00  0.00    -0.501 OA
ATOM     25  H   UNL     1       6.801  -6.170  23.015  0.00  0.00    +0.292 HD
ENDBRANCH   7  24
BRANCH  11  26
ATOM     26  O   UNL     1       9.497  -2.033  21.707  0.00  0.00    -0.503 OA
ATOM     27  H   UNL     1       9.284  -1.214  21.224  0.00  0.00    +0.292 HD
ENDBRANCH  11  26
BRANCH   1  28
ATOM     28  O   UNL     1      10.599   0.184  22.836  0.00  0.00    -0.418 OA
BRANCH  28  29
ATOM     29  C   UNL     1       9.780   1.090  22.165  0.00  0.00    +0.313 C 
ATOM     30  O   UNL     1       9.019   0.804  21.234  0.00  0.00    -0.250 OA
BRANCH  29  31
ATOM     31  C   UNL     1       9.986   2.458  22.762  0.00  0.00    +0.121 C 
BRANCH  31  32
ATOM     32  C   UNL     1       8.721   3.072  23.339  0.00  0.00    +0.011 C 
BRANCH  32  33
ATOM     33  C   UNL     1       9.028   4.076  24.448  0.00  0.00    +0.001 C 
BRANCH  33  34
ATOM     34  C   UNL     1       8.632   5.486  24.027  0.00  0.00    +0.000 C 
BRANCH  34  35
ATOM     35  C   UNL     1       9.826   6.242  23.453  0.00  0.00    -0.000 C 
BRANCH  35  37
ATOM     36  C   UNL     1      12.239   5.550  23.324  0.00  0.00    +0.004 C 
ATOM     37  C   UNL     1      11.095   5.938  24.244  0.00  0.00    -0.003 C 
ENDBRANCH  35  37
ENDBRANCH  34  35
ENDBRANCH  33  34
ENDBRANCH  32  33
ENDBRANCH  31  32
ENDBRANCH  29  31
ENDBRANCH  28  29
ENDBRANCH   1  28
TORSDOF 14
ENDMDL
MODEL 6
REMARK VINA RESULT:      -6.9      2.696      4.036
REMARK  Name = 
REMARK  15 active torsions:
REMARK  status: ('A' for Active; 'I' for Inactive)
REMARK    1  A    between atoms: C_1  and  C_2
REMARK    2  A    between atoms: C_2  and  C_3
REMARK    3  A    between atoms: C_3  and  C_4
REMARK    4  A    between atoms: C_4  and  C_5
REMARK    5  A    between atoms: C_5  and  C_6
REMARK    6  A    between atoms: C_6  and  C_7
REMARK    7  A    between atoms: C_7  and  C_8
REMARK    8  A    between atoms: C_8  and  O_10
REMARK    9  A    between atoms: O_10  and  C_11
REMARK   10  A    between atoms: C_12  and  O_32
REMARK   11  A    between atoms: C_16  and  O_17
REMARK   12  A    between atoms: C_19  and  C_24
REMARK   13  A    between atoms: C_20  and  O_23
REMARK   14  A    between atoms: C_26  and  O_31
REMARK   15  A    between atoms: C_27  and  O_30
REMARK                            x       y       z     vdW  Elec       q    Type
REMARK                         _______ _______ _______ _____ _____    ______ ____
ROOT
ATOM      1  C   UNL     1       7.018   3.506  24.165  0.00  0.00    +0.215 A 
ATOM      2  C   UNL     1       6.738   3.130  22.849  0.00  0.00    +0.166 A 
ATOM      3  C   UNL     1       6.556   1.790  22.531  0.00  0.00    +0.096 A 
ATOM      4  C   UNL     1       6.705   0.815  23.522  0.00  0.00    +0.147 A 
ATOM      5  O   UNL     1       6.523  -0.480  23.103  0.00  0.00    -0.451 OA
ATOM      6  C   UNL     1       6.665  -1.509  24.016  0.00  0.00    +0.181 A 
ATOM      7  C   UNL     1       7.055  -1.321  25.289  0.00  0.00    +0.208 A 
ATOM      8  C   UNL     1       7.323   0.061  25.779  0.00  0.00    +0.238 A 
ATOM      9  O   UNL     1       7.787   0.207  26.908  0.00  0.00    -0.283 OA
ATOM     10  C   UNL     1       7.061   1.165  24.829  0.00  0.00    +0.113 A 
ATOM     11  C   UNL     1       7.206   2.525  25.153  0.00  0.00    +0.178 A 
ENDROOT
BRANCH   6  12
ATOM     12  C   UNL     1       6.457  -2.865  23.439  0.00  0.00    +0.025 A 
ATOM     13  C   UNL     1       7.558  -3.651  23.050  0.00  0.00    +0.015 A 
ATOM     14  C   UNL     1       7.380  -4.952  22.562  0.00  0.00    +0.050 A 
ATOM     15  C   UNL     1       6.100  -5.476  22.475  0.00  0.00    +0.158 A 
ATOM     16  C   UNL     1       5.000  -4.714  22.840  0.00  0.00    +0.159 A 
ATOM     17  C   UNL     1       5.168  -3.408  23.288  0.00  0.00    +0.060 A 
BRANCH  15  18
ATOM     18  O   UNL     1       5.926  -6.757  22.040  0.00  0.00    -0.503 OA
ATOM     19  H   UNL     1       5.638  -6.660  21.109  0.00  0.00    +0.292 HD
ENDBRANCH  15  18
BRANCH  16  20
ATOM     20  O   UNL     1       3.762  -5.292  22.762  0.00  0.00    -0.503 OA
ATOM     21  H   UNL     1       3.738  -5.840  21.957  0.00  0.00    +0.292 HD
ENDBRANCH  16  20
ENDBRANCH   6  12
BRANCH   2  22
ATOM     22  O   UNL     1       6.693   4.077  21.867  0.00  0.00    -0.503 OA
ATOM     23  H   UNL     1       7.234   4.839  22.136  0.00  0.00    +0.292 HD
ENDBRANCH   2  22
BRANCH   7  24
ATOM     24  O   UNL     1       7.322  -2.380  26.143  0.00  0.00    -0.501 OA
ATOM     25  H   UNL     1       7.354  -3.174  25.577  0.00  0.00    +0.292 HD
ENDBRANCH   7  24
BRANCH  11  26
ATOM     26  O   UNL     1       7.521   2.922  26.422  0.00  0.00    -0.503 OA
ATOM     27  H   UNL     1       8.485   3.059  26.478  0.00  0.00    +0.292 HD
ENDBRANCH  11  26
BRANCH   1  28
ATOM     28  O   UNL     1       7.295   4.839  24.504  0.00  0.00    -0.418 OA
BRANCH  28  29
ATOM     29  C   UNL     1       8.623   5.079  24.850  0.00  0.00    +0.313 C 
ATOM     30  O   UNL     1       9.029   5.301  25.997  0.00  0.00    -0.250 OA
BRANCH  29  31
ATOM     31  C   UNL     1       9.465   5.022  23.602  0.00  0.00    +0.121 C 
BRANCH  31  32
ATOM     32  C   UNL     1      10.691   4.133  23.727  0.00  0.00    +0.011 C 
BRANCH  32  33
ATOM     33  C   UNL     1      10.469   2.761  23.096  0.00  0.00    +0.001 C 
BRANCH  33  34
ATOM     34  C   UNL     1      10.600   1.656  24.138  0.00  0.00    +0.000 C 
BRANCH  34  35
ATOM     35  C   UNL     1      10.428   0.280  23.502  0.00  0.00    -0.000 C 
BRANCH  35  37
ATOM     36  C   UNL     1       9.524  -0.932  21.493  0.00  0.00    +0.004 C 
ATOM     37  C   UNL     1       9.992   0.404  22.045  0.00  0.00    -0.003 C 
ENDBRANCH  35  37
ENDBRANCH  34  35
ENDBRANCH  33  34
ENDBRANCH  32  33
ENDBRANCH  31  32
ENDBRANCH  29  31
ENDBRANCH  28  29
ENDBRANCH   1  28
TORSDOF 14
ENDMDL
MODEL 7
REMARK VINA RESULT:      -6.9      1.477      2.888
REMARK  Name = 
REMARK  15 active torsions:
REMARK  status: ('A' for Active; 'I' for Inactive)
REMARK    1  A    between atoms: C_1  and  C_2
REMARK    2  A    between atoms: C_2  and  C_3
REMARK    3  A    between atoms: C_3  and  C_4
REMARK    4  A    between atoms: C_4  and  C_5
REMARK    5  A    between atoms: C_5  and  C_6
REMARK    6  A    between atoms: C_6  and  C_7
REMARK    7  A    between atoms: C_7  and  C_8
REMARK    8  A    between atoms: C_8  and  O_10
REMARK    9  A    between atoms: O_10  and  C_11
REMARK   10  A    between atoms: C_12  and  O_32
REMARK   11  A    between atoms: C_16  and  O_17
REMARK   12  A    between atoms: C_19  and  C_24
REMARK   13  A    between atoms: C_20  and  O_23
REMARK   14  A    between atoms: C_26  and  O_31
REMARK   15  A    between atoms: C_27  and  O_30
REMARK                            x       y       z     vdW  Elec       q    Type
REMARK                         _______ _______ _______ _____ _____    ______ ____
ROOT
ATOM      1  C   UNL     1       8.891  -0.126  22.709  0.00  0.00    +0.215 A 
ATOM      2  C   UNL     1       9.355  -1.414  22.433  0.00  0.00    +0.166 A 
ATOM      3  C   UNL     1       8.584  -2.519  22.772  0.00  0.00    +0.096 A 
ATOM      4  C   UNL     1       7.367  -2.340  23.435  0.00  0.00    +0.147 A 
ATOM      5  O   UNL     1       6.690  -3.495  23.742  0.00  0.00    -0.451 OA
ATOM      6  C   UNL     1       5.482  -3.410  24.411  0.00  0.00    +0.181 A 
ATOM      7  C   UNL     1       4.962  -2.253  24.855  0.00  0.00    +0.208 A 
ATOM      8  C   UNL     1       5.687  -0.975  24.600  0.00  0.00    +0.238 A 
ATOM      9  O   UNL     1       5.258   0.058  25.110  0.00  0.00    -0.283 OA
ATOM     10  C   UNL     1       6.920  -1.062  23.788  0.00  0.00    +0.113 A 
ATOM     11  C   UNL     1       7.685   0.054  23.409  0.00  0.00    +0.178 A 
ENDROOT
BRANCH   6  12
ATOM     12  C   UNL     1       4.854  -4.727  24.698  0.00  0.00    +0.025 A 
ATOM     13  C   UNL     1       3.983  -5.321  23.765  0.00  0.00    +0.015 A 
ATOM     14  C   UNL     1       3.433  -6.588  23.996  0.00  0.00    +0.050 A 
ATOM     15  C   UNL     1       3.763  -7.272  25.156  0.00  0.00    +0.158 A 
ATOM     16  C   UNL     1       4.608  -6.700  26.095  0.00  0.00    +0.159 A 
ATOM     17  C   UNL     1       5.127  -5.426  25.889  0.00  0.00    +0.060 A 
BRANCH  15  18
ATOM     18  O   UNL     1       3.262  -8.523  25.365  0.00  0.00    -0.503 OA
ATOM     19  H   UNL     1       4.031  -9.043  25.679  0.00  0.00    +0.292 HD
ENDBRANCH  15  18
BRANCH  16  20
ATOM     20  O   UNL     1       4.924  -7.431  27.207  0.00  0.00    -0.503 OA
ATOM     21  H   UNL     1       4.151  -7.979  27.434  0.00  0.00    +0.292 HD
ENDBRANCH  16  20
ENDBRANCH   6  12
BRANCH   2  22
ATOM     22  O   UNL     1      10.589  -1.586  21.877  0.00  0.00    -0.503 OA
ATOM     23  H   UNL     1      10.520  -2.214  21.138  0.00  0.00    +0.292 HD
ENDBRANCH   2  22
BRANCH   7  24
ATOM     24  O   UNL     1       3.821  -2.210  25.641  0.00  0.00    -0.501 OA
ATOM     25  H   UNL     1       3.168  -2.777  25.190  0.00  0.00    +0.292 HD
ENDBRANCH   7  24
BRANCH  11  26
ATOM     26  O   UNL     1       7.279   1.326  23.700  0.00  0.00    -0.503 OA
ATOM     27  H   UNL     1       7.833   1.674  24.423  0.00  0.00    +0.292 HD
ENDBRANCH  11  26
BRANCH   1  28
ATOM     28  O   UNL     1       9.681   1.007  22.462  0.00  0.00    -0.418 OA
BRANCH  28  29
ATOM     29  C   UNL     1      10.466   1.405  23.542  0.00  0.00    +0.313 C 
ATOM     30  O   UNL     1      11.232   0.668  24.172  0.00  0.00    -0.250 OA
BRANCH  29  31
ATOM     31  C   UNL     1      10.219   2.869  23.803  0.00  0.00    +0.121 C 
BRANCH  31  32
ATOM     32  C   UNL     1      11.338   3.776  23.320  0.00  0.00    +0.011 C 
BRANCH  32  33
ATOM     33  C   UNL     1      11.075   5.241  23.664  0.00  0.00    +0.001 C 
BRANCH  33  34
ATOM     34  C   UNL     1       9.668   5.423  24.221  0.00  0.00    +0.000 C 
BRANCH  34  35
ATOM     35  C   UNL     1       9.019   6.687  23.666  0.00  0.00    -0.000 C 
BRANCH  35  37
ATOM     36  C   UNL     1       7.380   5.020  22.742  0.00  0.00    +0.004 C 
ATOM     37  C   UNL     1       8.072   6.353  22.518  0.00  0.00    -0.003 C 
ENDBRANCH  35  37
ENDBRANCH  34  35
ENDBRANCH  33  34
ENDBRANCH  32  33
ENDBRANCH  31  32
ENDBRANCH  29  31
ENDBRANCH  28  29
ENDBRANCH   1  28
TORSDOF 14
ENDMDL
MODEL 8
REMARK VINA RESULT:      -6.8      2.211      3.613
REMARK  Name = 
REMARK  15 active torsions:
REMARK  status: ('A' for Active; 'I' for Inactive)
REMARK    1  A    between atoms: C_1  and  C_2
REMARK    2  A    between atoms: C_2  and  C_3
REMARK    3  A    between atoms: C_3  and  C_4
REMARK    4  A    between atoms: C_4  and  C_5
REMARK    5  A    between atoms: C_5  and  C_6
REMARK    6  A    between atoms: C_6  and  C_7
REMARK    7  A    between atoms: C_7  and  C_8
REMARK    8  A    between atoms: C_8  and  O_10
REMARK    9  A    between atoms: O_10  and  C_11
REMARK   10  A    between atoms: C_12  and  O_32
REMARK   11  A    between atoms: C_16  and  O_17
REMARK   12  A    between atoms: C_19  and  C_24
REMARK   13  A    between atoms: C_20  and  O_23
REMARK   14  A    between atoms: C_26  and  O_31
REMARK   15  A    between atoms: C_27  and  O_30
REMARK                            x       y       z     vdW  Elec       q    Type
REMARK                         _______ _______ _______ _____ _____    ______ ____
ROOT
ATOM      1  C   UNL     1       9.948  -0.768  23.665  0.00  0.00    +0.215 A 
ATOM      2  C   UNL     1       9.767  -0.539  25.031  0.00  0.00    +0.166 A 
ATOM      3  C   UNL     1       8.998  -1.414  25.789  0.00  0.00    +0.096 A 
ATOM      4  C   UNL     1       8.366  -2.496  25.170  0.00  0.00    +0.147 A 
ATOM      5  O   UNL     1       7.616  -3.291  26.002  0.00  0.00    -0.451 OA
ATOM      6  C   UNL     1       6.945  -4.377  25.470  0.00  0.00    +0.181 A 
ATOM      7  C   UNL     1       6.918  -4.660  24.156  0.00  0.00    +0.208 A 
ATOM      8  C   UNL     1       7.668  -3.793  23.202  0.00  0.00    +0.238 A 
ATOM      9  O   UNL     1       7.541  -3.996  21.997  0.00  0.00    -0.283 OA
ATOM     10  C   UNL     1       8.473  -2.701  23.791  0.00  0.00    +0.113 A 
ATOM     11  C   UNL     1       9.283  -1.834  23.036  0.00  0.00    +0.178 A 
ENDROOT
BRANCH   6  12
ATOM     12  C   UNL     1       6.157  -5.151  26.467  0.00  0.00    +0.025 A 
ATOM     13  C   UNL     1       4.763  -5.286  26.324  0.00  0.00    +0.015 A 
ATOM     14  C   UNL     1       4.018  -6.062  27.221  0.00  0.00    +0.050 A 
ATOM     15  C   UNL     1       4.667  -6.716  28.257  0.00  0.00    +0.158 A 
ATOM     16  C   UNL     1       6.038  -6.585  28.424  0.00  0.00    +0.159 A 
ATOM     17  C   UNL     1       6.777  -5.785  27.560  0.00  0.00    +0.060 A 
BRANCH  15  18
ATOM     18  O   UNL     1       3.951  -7.506  29.107  0.00  0.00    -0.503 OA
ATOM     19  H   UNL     1       4.417  -7.425  29.965  0.00  0.00    +0.292 HD
ENDBRANCH  15  18
BRANCH  16  20
ATOM     20  O   UNL     1       6.630  -7.277  29.445  0.00  0.00    -0.503 OA
ATOM     21  H   UNL     1       7.128  -8.018  29.056  0.00  0.00    +0.292 HD
ENDBRANCH  16  20
ENDBRANCH   6  12
BRANCH   2  22
ATOM     22  O   UNL     1      10.304   0.575  25.609  0.00  0.00    -0.503 OA
ATOM     23  H   UNL     1       9.711   1.330  25.455  0.00  0.00    +0.292 HD
ENDBRANCH   2  22
BRANCH   7  24
ATOM     24  O   UNL     1       6.127  -5.671  23.635  0.00  0.00    -0.501 OA
ATOM     25  H   UNL     1       5.406  -5.803  24.280  0.00  0.00    +0.292 HD
ENDBRANCH   7  24
BRANCH  11  26
ATOM     26  O   UNL     1       9.447  -2.008  21.690  0.00  0.00    -0.503 OA
ATOM     27  H   UNL     1       8.778  -2.641  21.371  0.00  0.00    +0.292 HD
ENDBRANCH  11  26
BRANCH   1  28
ATOM     28  O   UNL     1      10.643   0.142  22.854  0.00  0.00    -0.418 OA
BRANCH  28  29
ATOM     29  C   UNL     1       9.841   1.127  22.281  0.00  0.00    +0.313 C 
ATOM     30  O   UNL     1       8.994   0.930  21.402  0.00  0.00    -0.250 OA
BRANCH  29  31
ATOM     31  C   UNL     1      10.184   2.453  22.909  0.00  0.00    +0.121 C 
BRANCH  31  32
ATOM     32  C   UNL     1       8.977   3.336  23.177  0.00  0.00    +0.011 C 
BRANCH  32  33
ATOM     33  C   UNL     1       8.178   2.860  24.388  0.00  0.00    +0.001 C 
BRANCH  33  34
ATOM     34  C   UNL     1       6.703   3.209  24.236  0.00  0.00    +0.000 C 
BRANCH  34  35
ATOM     35  C   UNL     1       5.945   2.087  23.533  0.00  0.00    -0.000 C 
BRANCH  35  37
ATOM     36  C   UNL     1       5.671   0.143  25.103  0.00  0.00    +0.004 C 
ATOM     37  C   UNL     1       6.478   0.721  23.954  0.00  0.00    -0.003 C 
ENDBRANCH  35  37
ENDBRANCH  34  35
ENDBRANCH  33  34
ENDBRANCH  32  33
ENDBRANCH  31  32
ENDBRANCH  29  31
ENDBRANCH  28  29
ENDBRANCH   1  28
TORSDOF 14
ENDMDL
MODEL 9
REMARK VINA RESULT:      -6.6      1.870      3.391
REMARK  Name = 
REMARK  15 active torsions:
REMARK  status: ('A' for Active; 'I' for Inactive)
REMARK    1  A    between atoms: C_1  and  C_2
REMARK    2  A    between atoms: C_2  and  C_3
REMARK    3  A    between atoms: C_3  and  C_4
REMARK    4  A    between atoms: C_4  and  C_5
REMARK    5  A    between atoms: C_5  and  C_6
REMARK    6  A    between atoms: C_6  and  C_7
REMARK    7  A    between atoms: C_7  and  C_8
REMARK    8  A    between atoms: C_8  and  O_10
REMARK    9  A    between atoms: O_10  and  C_11
REMARK   10  A    between atoms: C_12  and  O_32
REMARK   11  A    between atoms: C_16  and  O_17
REMARK   12  A    between atoms: C_19  and  C_24
REMARK   13  A    between atoms: C_20  and  O_23
REMARK   14  A    between atoms: C_26  and  O_31
REMARK   15  A    between atoms: C_27  and  O_30
REMARK                            x       y       z     vdW  Elec       q    Type
REMARK                         _______ _______ _______ _____ _____    ______ ____
ROOT
ATOM      1  C   UNL     1       9.710  -0.484  23.538  0.00  0.00    +0.215 A 
ATOM      2  C   UNL     1       9.645  -1.510  22.591  0.00  0.00    +0.166 A 
ATOM      3  C   UNL     1       8.763  -2.568  22.770  0.00  0.00    +0.096 A 
ATOM      4  C   UNL     1       7.977  -2.629  23.924  0.00  0.00    +0.147 A 
ATOM      5  O   UNL     1       7.152  -3.723  24.014  0.00  0.00    -0.451 OA
ATOM      6  C   UNL     1       6.349  -3.871  25.131  0.00  0.00    +0.181 A 
ATOM      7  C   UNL     1       6.387  -3.037  26.185  0.00  0.00    +0.208 A 
ATOM      8  C   UNL     1       7.309  -1.866  26.163  0.00  0.00    +0.238 A 
ATOM      9  O   UNL     1       7.415  -1.180  27.178  0.00  0.00    -0.283 OA
ATOM     10  C   UNL     1       8.082  -1.653  24.920  0.00  0.00    +0.113 A 
ATOM     11  C   UNL     1       8.949  -0.565  24.716  0.00  0.00    +0.178 A 
ENDROOT
BRANCH   6  12
ATOM     12  C   UNL     1       5.512  -5.100  25.118  0.00  0.00    +0.025 A 
ATOM     13  C   UNL     1       5.461  -5.940  26.247  0.00  0.00    +0.015 A 
ATOM     14  C   UNL     1       4.630  -7.068  26.271  0.00  0.00    +0.050 A 
ATOM     15  C   UNL     1       3.837  -7.351  25.170  0.00  0.00    +0.158 A 
ATOM     16  C   UNL     1       3.882  -6.545  24.041  0.00  0.00    +0.159 A 
ATOM     17  C   UNL     1       4.734  -5.447  23.997  0.00  0.00    +0.060 A 
BRANCH  15  18
ATOM     18  O   UNL     1       2.996  -8.425  25.205  0.00  0.00    -0.503 OA
ATOM     19  H   UNL     1       2.173  -8.075  25.602  0.00  0.00    +0.292 HD
ENDBRANCH  15  18
BRANCH  16  20
ATOM     20  O   UNL     1       3.057  -6.856  22.996  0.00  0.00    -0.503 OA
ATOM     21  H   UNL     1       3.041  -7.825  22.904  0.00  0.00    +0.292 HD
ENDBRANCH  16  20
ENDBRANCH   6  12
BRANCH   2  22
ATOM     22  O   UNL     1      10.487  -1.495  21.517  0.00  0.00    -0.503 OA
ATOM     23  H   UNL     1      10.191  -2.161  20.873  0.00  0.00    +0.292 HD
ENDBRANCH   2  22
BRANCH   7  24
ATOM     24  O   UNL     1       5.673  -3.284  27.347  0.00  0.00    -0.501 OA
ATOM     25  H   UNL     1       5.264  -2.433  27.593  0.00  0.00    +0.292 HD
ENDBRANCH   7  24
BRANCH  11  26
ATOM     26  O   UNL     1       9.066   0.433  25.643  0.00  0.00    -0.503 OA
ATOM     27  H   UNL     1       9.969   0.416  26.011  0.00  0.00    +0.292 HD
ENDBRANCH  11  26
BRANCH   1  28
ATOM     28  O   UNL     1      10.651   0.551  23.435  0.00  0.00    -0.418 OA
BRANCH  28  29
ATOM     29  C   UNL     1      10.233   1.631  22.661  0.00  0.00    +0.313 C 
ATOM     30  O   UNL     1       9.693   1.543  21.552  0.00  0.00    -0.250 OA
BRANCH  29  31
ATOM     31  C   UNL     1      10.551   2.906  23.399  0.00  0.00    +0.121 C 
BRANCH  31  32
ATOM     32  C   UNL     1       9.383   3.463  24.195  0.00  0.00    +0.011 C 
BRANCH  32  33
ATOM     33  C   UNL     1       8.490   4.364  23.346  0.00  0.00    +0.001 C 
BRANCH  33  34
ATOM     34  C   UNL     1       7.019   4.026  23.558  0.00  0.00    +0.000 C 
BRANCH  34  35
ATOM     35  C   UNL     1       6.858   2.884  24.557  0.00  0.00    -0.000 C 
BRANCH  35  37
ATOM     36  C   UNL     1       6.527   1.244  22.681  0.00  0.00    +0.004 C 
ATOM     37  C   UNL     1       5.969   1.783  23.987  0.00  0.00    -0.003 C 
ENDBRANCH  35  37
ENDBRANCH  34  35
ENDBRANCH  33  34
ENDBRANCH  32  33
ENDBRANCH  31  32
ENDBRANCH  29  31
ENDBRANCH  28  29
ENDBRANCH   1  28
TORSDOF 14
ENDMDL
