MODEL 1
REMARK VINA RESULT:      -7.5      0.000      0.000
REMARK  Name = 
REMARK  16 active torsions:
REMARK  status: ('A' for Active; 'I' for Inactive)
REMARK    1  A    between atoms: C_1  and  C_2
REMARK    2  A    between atoms: C_3  and  O_42
REMARK    3  A    between atoms: C_4  and  O_41
REMARK    4  A    between atoms: C_5  and  O_40
REMARK    5  A    between atoms: C_6  and  O_8
REMARK    6  A    between atoms: O_8  and  C_9
REMARK    7  A    between atoms: C_10  and  O_39
REMARK    8  A    between atoms: C_11  and  O_38
REMARK    9  A    between atoms: C_12  and  C_37
REMARK   10  A    between atoms: C_14  and  O_15
REMARK   11  A    between atoms: O_15  and  C_16
REMARK   12  A    between atoms: C_17  and  C_29
REMARK   13  A    between atoms: C_21  and  O_28
REMARK   14  A    between atoms: C_23  and  O_27
REMARK   15  A    between atoms: C_31  and  O_36
REMARK   16  A    between atoms: C_32  and  O_35
REMARK                            x       y       z     vdW  Elec       q    Type
REMARK                         _______ _______ _______ _____ _____    ______ ____
ROOT
ATOM      1  O   UNL     1       5.378  -2.695  24.878  0.00  0.00    -0.453 OA
ENDROOT
BRANCH   1   2
ATOM      2  C   UNL     1       5.238  -1.799  25.943  0.00  0.00    +0.214 A 
ATOM      3  C   UNL     1       5.314  -0.306  25.743  0.00  0.00    +0.238 A 
ATOM      4  O   UNL     1       5.382   0.195  24.628  0.00  0.00    -0.283 OA
ATOM      5  C   UNL     1       5.223   0.562  26.923  0.00  0.00    +0.109 A 
ATOM      6  C   UNL     1       4.895  -0.031  28.135  0.00  0.00    +0.147 A 
ATOM      7  C   UNL     1       4.666   0.751  29.270  0.00  0.00    +0.092 A 
ATOM      8  C   UNL     1       4.799   2.138  29.176  0.00  0.00    +0.124 A 
ATOM      9  C   UNL     1       5.172   2.745  27.980  0.00  0.00    +0.091 A 
ATOM     10  O   UNL     1       4.763  -1.384  28.284  0.00  0.00    -0.451 OA
ATOM     11  C   UNL     1       5.388   1.950  26.857  0.00  0.00    +0.135 A 
ATOM     12  C   UNL     1       4.982  -2.234  27.202  0.00  0.00    +0.181 A 
BRANCH  12  13
ATOM     13  C   UNL     1       4.868  -3.672  27.618  0.00  0.00    +0.025 A 
ATOM     14  C   UNL     1       3.591  -4.279  27.706  0.00  0.00    +0.015 A 
ATOM     15  C   UNL     1       3.426  -5.592  28.169  0.00  0.00    +0.050 A 
ATOM     16  C   UNL     1       4.546  -6.324  28.527  0.00  0.00    +0.158 A 
ATOM     17  C   UNL     1       5.813  -5.763  28.428  0.00  0.00    +0.159 A 
ATOM     18  C   UNL     1       5.976  -4.441  28.011  0.00  0.00    +0.060 A 
BRANCH  16  19
ATOM     19  O   UNL     1       4.396  -7.602  28.978  0.00  0.00    -0.503 OA
ATOM     20  H   UNL     1       4.306  -8.142  28.167  0.00  0.00    +0.292 HD
ENDBRANCH  16  19
BRANCH  17  21
ATOM     21  O   UNL     1       6.881  -6.556  28.753  0.00  0.00    -0.503 OA
ATOM     22  H   UNL     1       7.492  -6.031  29.299  0.00  0.00    +0.292 HD
ENDBRANCH  17  21
ENDBRANCH  12  13
BRANCH   8  23
ATOM     23  O   UNL     1       4.573   2.956  30.240  0.00  0.00    -0.507 OA
ATOM     24  H   UNL     1       4.475   2.416  31.043  0.00  0.00    +0.292 HD
ENDBRANCH   8  23
BRANCH  11  25
ATOM     25  O   UNL     1       5.778   2.561  25.698  0.00  0.00    -0.506 OA
ATOM     26  H   UNL     1       5.331   3.414  25.598  0.00  0.00    +0.292 HD
ENDBRANCH  11  25
ENDBRANCH   1   2
BRANCH   1  28
ATOM     27  C   UNL     1       6.564  -2.640  22.712  0.00  0.00    +0.221 C 
ATOM     28  C   UNL     1       6.665  -2.874  24.251  0.00  0.00    +0.340 C 
ATOM     29  O   UNL     1       7.213  -4.170  24.578  0.00  0.00    -0.334 OA
ATOM     30  C   UNL     1       6.644  -5.316  23.956  0.00  0.00    +0.150 C 
ATOM     31  C   UNL     1       5.362  -5.734  24.670  0.00  0.00    +0.041 C 
ATOM     32  C   UNL     1       6.511  -5.153  22.439  0.00  0.00    +0.174 C 
ATOM     33  C   UNL     1       5.815  -3.836  22.096  0.00  0.00    +0.180 C 
BRANCH  32  34
ATOM     34  O   UNL     1       5.807  -6.242  21.829  0.00  0.00    -0.387 OA
ATOM     35  H   UNL     1       5.370  -5.916  21.021  0.00  0.00    +0.210 HD
ENDBRANCH  32  34
BRANCH  33  36
ATOM     36  O   UNL     1       5.637  -3.715  20.676  0.00  0.00    -0.386 OA
ATOM     37  H   UNL     1       6.259  -3.024  20.367  0.00  0.00    +0.210 HD
ENDBRANCH  33  36
BRANCH  27  38
ATOM     38  O   UNL     1       7.882  -2.398  22.163  0.00  0.00    -0.337 OA
BRANCH  38  42
ATOM     39  C   UNL     1       7.783   1.768  21.775  0.00  0.00    +0.041 C 
ATOM     40  C   UNL     1       9.014   0.962  21.331  0.00  0.00    +0.149 C 
ATOM     41  O   UNL     1       8.692  -0.442  21.168  0.00  0.00    -0.343 OA
ATOM     42  C   UNL     1       8.422  -1.101  22.411  0.00  0.00    +0.282 C 
ATOM     43  C   UNL     1       9.695  -1.070  23.284  0.00  0.00    +0.201 C 
ATOM     44  C   UNL     1      10.056   0.387  23.571  0.00  0.00    +0.179 C 
ATOM     45  C   UNL     1      10.225   1.173  22.261  0.00  0.00    +0.174 C 
BRANCH  43  46
ATOM     46  O   UNL     1      10.822  -1.681  22.624  0.00  0.00    -0.384 OA
ATOM     47  H   UNL     1      10.503  -1.981  21.747  0.00  0.00    +0.210 HD
ENDBRANCH  43  46
BRANCH  44  48
ATOM     48  O   UNL     1      11.270   0.458  24.334  0.00  0.00    -0.386 OA
ATOM     49  H   UNL     1      11.674  -0.431  24.254  0.00  0.00    +0.210 HD
ENDBRANCH  44  48
BRANCH  45  50
ATOM     50  O   UNL     1      10.404   2.570  22.523  0.00  0.00    -0.387 OA
ATOM     51  H   UNL     1       9.608   3.032  22.202  0.00  0.00    +0.210 HD
ENDBRANCH  45  50
ENDBRANCH  38  42
ENDBRANCH  27  38
ENDBRANCH   1  28
TORSDOF 14
ENDMDL
MODEL 2
REMARK VINA RESULT:      -7.2      2.566      7.329
REMARK  Name = 
REMARK  16 active torsions:
REMARK  status: ('A' for Active; 'I' for Inactive)
REMARK    1  A    between atoms: C_1  and  C_2
REMARK    2  A    between atoms: C_3  and  O_42
REMARK    3  A    between atoms: C_4  and  O_41
REMARK    4  A    between atoms: C_5  and  O_40
REMARK    5  A    between atoms: C_6  and  O_8
REMARK    6  A    between atoms: O_8  and  C_9
REMARK    7  A    between atoms: C_10  and  O_39
REMARK    8  A    between atoms: C_11  and  O_38
REMARK    9  A    between atoms: C_12  and  C_37
REMARK   10  A    between atoms: C_14  and  O_15
REMARK   11  A    between atoms: O_15  and  C_16
REMARK   12  A    between atoms: C_17  and  C_29
REMARK   13  A    between atoms: C_21  and  O_28
REMARK   14  A    between atoms: C_23  and  O_27
REMARK   15  A    between atoms: C_31  and  O_36
REMARK   16  A    between atoms: C_32  and  O_35
REMARK                            x       y       z     vdW  Elec       q    Type
REMARK                         _______ _______ _______ _____ _____    ______ ____
ROOT
ATOM      1  O   UNL     1       6.917   1.822  25.320  0.00  0.00    -0.453 OA
ENDROOT
BRANCH   1   2
ATOM      2  C   UNL     1       8.078   2.397  24.792  0.00  0.00    +0.214 A 
ATOM      3  C   UNL     1       8.456   3.829  25.074  0.00  0.00    +0.238 A 
ATOM      4  O   UNL     1       7.832   4.519  25.871  0.00  0.00    -0.283 OA
ATOM      5  C   UNL     1       9.655   4.375  24.428  0.00  0.00    +0.109 A 
ATOM      6  C   UNL     1      10.473   3.492  23.735  0.00  0.00    +0.147 A 
ATOM      7  C   UNL     1      11.693   3.918  23.207  0.00  0.00    +0.092 A 
ATOM      8  C   UNL     1      12.070   5.254  23.361  0.00  0.00    +0.124 A 
ATOM      9  C   UNL     1      11.242   6.163  24.014  0.00  0.00    +0.091 A 
ATOM     10  O   UNL     1      10.146   2.177  23.546  0.00  0.00    -0.451 OA
ATOM     11  C   UNL     1      10.032   5.718  24.541  0.00  0.00    +0.135 A 
ATOM     12  C   UNL     1       8.942   1.675  24.035  0.00  0.00    +0.181 A 
BRANCH  12  13
ATOM     13  C   UNL     1       8.757   0.240  23.637  0.00  0.00    +0.025 A 
ATOM     14  C   UNL     1       7.653  -0.131  22.831  0.00  0.00    +0.015 A 
ATOM     15  C   UNL     1       7.391  -1.468  22.503  0.00  0.00    +0.050 A 
ATOM     16  C   UNL     1       8.252  -2.453  22.960  0.00  0.00    +0.158 A 
ATOM     17  C   UNL     1       9.357  -2.117  23.731  0.00  0.00    +0.159 A 
ATOM     18  C   UNL     1       9.594  -0.791  24.097  0.00  0.00    +0.060 A 
BRANCH  16  19
ATOM     19  O   UNL     1       8.006  -3.757  22.645  0.00  0.00    -0.503 OA
ATOM     20  H   UNL     1       8.743  -4.253  23.054  0.00  0.00    +0.292 HD
ENDBRANCH  16  19
BRANCH  17  21
ATOM     21  O   UNL     1      10.193  -3.133  24.110  0.00  0.00    -0.503 OA
ATOM     22  H   UNL     1       9.663  -3.805  24.573  0.00  0.00    +0.292 HD
ENDBRANCH  17  21
ENDBRANCH  12  13
BRANCH   8  23
ATOM     23  O   UNL     1      13.253   5.727  22.884  0.00  0.00    -0.507 OA
ATOM     24  H   UNL     1      13.103   6.163  22.028  0.00  0.00    +0.292 HD
ENDBRANCH   8  23
BRANCH  11  25
ATOM     25  O   UNL     1       9.220   6.630  25.156  0.00  0.00    -0.506 OA
ATOM     26  H   UNL     1       9.536   6.812  26.054  0.00  0.00    +0.292 HD
ENDBRANCH  11  25
ENDBRANCH   1   2
BRANCH   1  28
ATOM     27  C   UNL     1       5.911  -0.281  26.137  0.00  0.00    +0.221 C 
ATOM     28  C   UNL     1       7.015   0.802  26.336  0.00  0.00    +0.340 C 
ATOM     29  O   UNL     1       6.977   1.395  27.654  0.00  0.00    -0.334 OA
ATOM     30  C   UNL     1       5.731   1.887  28.133  0.00  0.00    +0.150 C 
ATOM     31  C   UNL     1       5.443   3.270  27.558  0.00  0.00    +0.041 C 
ATOM     32  C   UNL     1       4.596   0.872  27.963  0.00  0.00    +0.174 C 
ATOM     33  C   UNL     1       4.558   0.339  26.531  0.00  0.00    +0.180 C 
BRANCH  32  34
ATOM     34  O   UNL     1       3.317   1.415  28.309  0.00  0.00    -0.387 OA
ATOM     35  H   UNL     1       2.640   1.003  27.742  0.00  0.00    +0.210 HD
ENDBRANCH  32  34
BRANCH  33  36
ATOM     36  O   UNL     1       3.455  -0.565  26.360  0.00  0.00    -0.386 OA
ATOM     37  H   UNL     1       3.585  -1.299  26.997  0.00  0.00    +0.210 HD
ENDBRANCH  33  36
BRANCH  27  38
ATOM     38  O   UNL     1       6.265  -1.484  26.861  0.00  0.00    -0.337 OA
BRANCH  38  42
ATOM     39  C   UNL     1       4.764  -3.813  23.725  0.00  0.00    +0.041 C 
ATOM     40  C   UNL     1       4.713  -4.315  25.176  0.00  0.00    +0.149 C 
ATOM     41  O   UNL     1       4.893  -3.226  26.115  0.00  0.00    -0.343 OA
ATOM     42  C   UNL     1       6.222  -2.692  26.104  0.00  0.00    +0.282 C 
ATOM     43  C   UNL     1       7.210  -3.790  26.554  0.00  0.00    +0.201 C 
ATOM     44  C   UNL     1       7.139  -4.949  25.561  0.00  0.00    +0.179 C 
ATOM     45  C   UNL     1       5.698  -5.472  25.436  0.00  0.00    +0.174 C 
BRANCH  43  46
ATOM     46  O   UNL     1       6.885  -4.310  27.860  0.00  0.00    -0.384 OA
ATOM     47  H   UNL     1       7.663  -4.828  28.155  0.00  0.00    +0.210 HD
ENDBRANCH  43  46
BRANCH  44  48
ATOM     48  O   UNL     1       8.003  -6.017  25.978  0.00  0.00    -0.386 OA
ATOM     49  H   UNL     1       7.965  -6.675  25.252  0.00  0.00    +0.210 HD
ENDBRANCH  44  48
BRANCH  45  50
ATOM     50  O   UNL     1       5.597  -6.446  24.392  0.00  0.00    -0.387 OA
ATOM     51  H   UNL     1       6.239  -7.153  24.588  0.00  0.00    +0.210 HD
ENDBRANCH  45  50
ENDBRANCH  38  42
ENDBRANCH  27  38
ENDBRANCH   1  28
TORSDOF 14
ENDMDL
MODEL 3
REMARK VINA RESULT:      -7.1      2.432      6.646
REMARK  Name = 
REMARK  16 active torsions:
REMARK  status: ('A' for Active; 'I' for Inactive)
REMARK    1  A    between atoms: C_1  and  C_2
REMARK    2  A    between atoms: C_3  and  O_42
REMARK    3  A    between atoms: C_4  and  O_41
REMARK    4  A    between atoms: C_5  and  O_40
REMARK    5  A    between atoms: C_6  and  O_8
REMARK    6  A    between atoms: O_8  and  C_9
REMARK    7  A    between atoms: C_10  and  O_39
REMARK    8  A    between atoms: C_11  and  O_38
REMARK    9  A    between atoms: C_12  and  C_37
REMARK   10  A    between atoms: C_14  and  O_15
REMARK   11  A    between atoms: O_15  and  C_16
REMARK   12  A    between atoms: C_17  and  C_29
REMARK   13  A    between atoms: C_21  and  O_28
REMARK   14  A    between atoms: C_23  and  O_27
REMARK   15  A    between atoms: C_31  and  O_36
REMARK   16  A    between atoms: C_32  and  O_35
REMARK                            x       y       z     vdW  Elec       q    Type
REMARK                         _______ _______ _______ _____ _____    ______ ____
ROOT
ATOM      1  O   UNL     1       5.042  -2.335  26.387  0.00  0.00    -0.453 OA
ENDROOT
BRANCH   1   2
ATOM      2  C   UNL     1       4.538  -3.356  25.574  0.00  0.00    +0.214 A 
ATOM      3  C   UNL     1       3.140  -3.894  25.747  0.00  0.00    +0.238 A 
ATOM      4  O   UNL     1       2.341  -3.384  26.524  0.00  0.00    -0.283 OA
ATOM      5  C   UNL     1       2.711  -5.010  24.896  0.00  0.00    +0.109 A 
ATOM      6  C   UNL     1       3.554  -5.391  23.861  0.00  0.00    +0.147 A 
ATOM      7  C   UNL     1       3.151  -6.358  22.936  0.00  0.00    +0.092 A 
ATOM      8  C   UNL     1       1.898  -6.958  23.084  0.00  0.00    +0.124 A 
ATOM      9  C   UNL     1       1.060  -6.620  24.142  0.00  0.00    +0.091 A 
ATOM     10  O   UNL     1       4.794  -4.844  23.678  0.00  0.00    -0.451 OA
ATOM     11  C   UNL     1       1.475  -5.648  25.050  0.00  0.00    +0.135 A 
ATOM     12  C   UNL     1       5.273  -3.879  24.561  0.00  0.00    +0.181 A 
BRANCH  12  13
ATOM     13  C   UNL     1       6.681  -3.488  24.217  0.00  0.00    +0.025 A 
ATOM     14  C   UNL     1       6.915  -2.423  23.313  0.00  0.00    +0.015 A 
ATOM     15  C   UNL     1       8.207  -2.076  22.897  0.00  0.00    +0.050 A 
ATOM     16  C   UNL     1       9.288  -2.779  23.404  0.00  0.00    +0.158 A 
ATOM     17  C   UNL     1       9.091  -3.812  24.310  0.00  0.00    +0.159 A 
ATOM     18  C   UNL     1       7.802  -4.189  24.691  0.00  0.00    +0.060 A 
BRANCH  16  19
ATOM     19  O   UNL     1      10.549  -2.448  23.005  0.00  0.00    -0.503 OA
ATOM     20  H   UNL     1      11.037  -3.296  22.997  0.00  0.00    +0.292 HD
ENDBRANCH  16  19
BRANCH  17  21
ATOM     21  O   UNL     1      10.203  -4.435  24.809  0.00  0.00    -0.503 OA
ATOM     22  H   UNL     1       9.944  -5.323  25.111  0.00  0.00    +0.292 HD
ENDBRANCH  17  21
ENDBRANCH  12  13
BRANCH   8  23
ATOM     23  O   UNL     1       1.442  -7.893  22.207  0.00  0.00    -0.507 OA
ATOM     24  H   UNL     1       0.470  -7.911  22.235  0.00  0.00    +0.292 HD
ENDBRANCH   8  23
BRANCH  11  25
ATOM     25  O   UNL     1       0.650  -5.347  26.097  0.00  0.00    -0.506 OA
ATOM     26  H   UNL     1       1.066  -4.693  26.679  0.00  0.00    +0.292 HD
ENDBRANCH  11  25
ENDBRANCH   1   2
BRANCH   1  28
ATOM     27  C   UNL     1       6.283  -0.219  26.092  0.00  0.00    +0.221 C 
ATOM     28  C   UNL     1       4.914  -0.957  25.978  0.00  0.00    +0.340 C 
ATOM     29  O   UNL     1       3.868  -0.300  26.728  0.00  0.00    -0.334 OA
ATOM     30  C   UNL     1       4.122   0.028  28.089  0.00  0.00    +0.150 C 
ATOM     31  C   UNL     1       3.927  -1.193  28.982  0.00  0.00    +0.041 C 
ATOM     32  C   UNL     1       5.459   0.753  28.276  0.00  0.00    +0.174 C 
ATOM     33  C   UNL     1       6.589  -0.011  27.587  0.00  0.00    +0.180 C 
BRANCH  32  34
ATOM     34  O   UNL     1       5.786   0.956  29.655  0.00  0.00    -0.387 OA
ATOM     35  H   UNL     1       6.393   0.248  29.939  0.00  0.00    +0.210 HD
ENDBRANCH  32  34
BRANCH  33  36
ATOM     36  O   UNL     1       7.850   0.639  27.816  0.00  0.00    -0.386 OA
ATOM     37  H   UNL     1       8.391   0.506  27.010  0.00  0.00    +0.210 HD
ENDBRANCH  33  36
BRANCH  27  38
ATOM     38  O   UNL     1       6.258   0.992  25.300  0.00  0.00    -0.337 OA
BRANCH  38  42
ATOM     39  C   UNL     1      10.354   0.947  24.442  0.00  0.00    +0.041 C 
ATOM     40  C   UNL     1       9.510   2.207  24.198  0.00  0.00    +0.149 C 
ATOM     41  O   UNL     1       8.257   2.149  24.924  0.00  0.00    -0.343 OA
ATOM     42  C   UNL     1       7.355   1.164  24.405  0.00  0.00    +0.282 C 
ATOM     43  C   UNL     1       6.974   1.543  22.957  0.00  0.00    +0.201 C 
ATOM     44  C   UNL     1       8.241   1.547  22.103  0.00  0.00    +0.179 C 
ATOM     45  C   UNL     1       9.296   2.493  22.698  0.00  0.00    +0.174 C 
BRANCH  43  46
ATOM     46  O   UNL     1       6.386   2.858  22.877  0.00  0.00    -0.384 OA
ATOM     47  H   UNL     1       5.414   2.730  22.873  0.00  0.00    +0.210 HD
ENDBRANCH  43  46
BRANCH  44  48
ATOM     48  O   UNL     1       7.935   1.952  20.760  0.00  0.00    -0.386 OA
ATOM     49  H   UNL     1       8.287   2.864  20.682  0.00  0.00    +0.210 HD
ENDBRANCH  44  48
BRANCH  45  50
ATOM     50  O   UNL     1      10.539   2.379  21.995  0.00  0.00    -0.387 OA
ATOM     51  H   UNL     1      10.332   2.140  21.073  0.00  0.00    +0.210 HD
ENDBRANCH  45  50
ENDBRANCH  38  42
ENDBRANCH  27  38
ENDBRANCH   1  28
TORSDOF 14
ENDMDL
MODEL 4
REMARK VINA RESULT:      -7.1      2.327      3.755
REMARK  Name = 
REMARK  16 active torsions:
REMARK  status: ('A' for Active; 'I' for Inactive)
REMARK    1  A    between atoms: C_1  and  C_2
REMARK    2  A    between atoms: C_3  and  O_42
REMARK    3  A    between atoms: C_4  and  O_41
REMARK    4  A    between atoms: C_5  and  O_40
REMARK    5  A    between atoms: C_6  and  O_8
REMARK    6  A    between atoms: O_8  and  C_9
REMARK    7  A    between atoms: C_10  and  O_39
REMARK    8  A    between atoms: C_11  and  O_38
REMARK    9  A    between atoms: C_12  and  C_37
REMARK   10  A    between atoms: C_14  and  O_15
REMARK   11  A    between atoms: O_15  and  C_16
REMARK   12  A    between atoms: C_17  and  C_29
REMARK   13  A    between atoms: C_21  and  O_28
REMARK   14  A    between atoms: C_23  and  O_27
REMARK   15  A    between atoms: C_31  and  O_36
REMARK   16  A    between atoms: C_32  and  O_35
REMARK                            x       y       z     vdW  Elec       q    Type
REMARK                         _______ _______ _______ _____ _____    ______ ____
ROOT
ATOM      1  O   UNL     1       6.627  -1.011  24.426  0.00  0.00    -0.453 OA
ENDROOT
BRANCH   1   2
ATOM      2  C   UNL     1       5.559  -0.810  25.307  0.00  0.00    +0.214 A 
ATOM      3  C   UNL     1       5.252   0.547  25.890  0.00  0.00    +0.238 A 
ATOM      4  O   UNL     1       5.845   1.556  25.529  0.00  0.00    -0.283 OA
ATOM      5  C   UNL     1       4.155   0.659  26.858  0.00  0.00    +0.109 A 
ATOM      6  C   UNL     1       3.348  -0.455  27.050  0.00  0.00    +0.147 A 
ATOM      7  C   UNL     1       2.211  -0.379  27.857  0.00  0.00    +0.092 A 
ATOM      8  C   UNL     1       1.911   0.827  28.495  0.00  0.00    +0.124 A 
ATOM      9  C   UNL     1       2.734   1.940  28.350  0.00  0.00    +0.091 A 
ATOM     10  O   UNL     1       3.603  -1.662  26.458  0.00  0.00    -0.451 OA
ATOM     11  C   UNL     1       3.860   1.848  27.534  0.00  0.00    +0.135 A 
ATOM     12  C   UNL     1       4.722  -1.823  25.644  0.00  0.00    +0.181 A 
BRANCH  12  13
ATOM     13  C   UNL     1       4.847  -3.244  25.178  0.00  0.00    +0.025 A 
ATOM     14  C   UNL     1       4.498  -3.582  23.847  0.00  0.00    +0.015 A 
ATOM     15  C   UNL     1       4.518  -4.907  23.391  0.00  0.00    +0.050 A 
ATOM     16  C   UNL     1       4.913  -5.911  24.258  0.00  0.00    +0.158 A 
ATOM     17  C   UNL     1       5.284  -5.607  25.561  0.00  0.00    +0.159 A 
ATOM     18  C   UNL     1       5.222  -4.295  26.032  0.00  0.00    +0.060 A 
BRANCH  16  19
ATOM     19  O   UNL     1       4.937  -7.203  23.823  0.00  0.00    -0.503 OA
ATOM     20  H   UNL     1       4.178  -7.630  24.271  0.00  0.00    +0.292 HD
ENDBRANCH  16  19
BRANCH  17  21
ATOM     21  O   UNL     1       5.710  -6.640  26.353  0.00  0.00    -0.503 OA
ATOM     22  H   UNL     1       6.624  -6.452  26.630  0.00  0.00    +0.292 HD
ENDBRANCH  17  21
ENDBRANCH  12  13
BRANCH   8  23
ATOM     23  O   UNL     1       0.810   0.970  29.280  0.00  0.00    -0.507 OA
ATOM     24  H   UNL     1       0.428   0.094  29.460  0.00  0.00    +0.292 HD
ENDBRANCH   8  23
BRANCH  11  25
ATOM     25  O   UNL     1       4.670   2.944  27.424  0.00  0.00    -0.506 OA
ATOM     26  H   UNL     1       5.299   2.975  28.159  0.00  0.00    +0.292 HD
ENDBRANCH  11  25
ENDBRANCH   1   2
BRANCH   1  28
ATOM     27  C   UNL     1       8.548   0.423  23.832  0.00  0.00    +0.221 C 
ATOM     28  C   UNL     1       7.965  -0.636  24.817  0.00  0.00    +0.340 C 
ATOM     29  O   UNL     1       8.805  -1.805  24.933  0.00  0.00    -0.334 OA
ATOM     30  C   UNL     1       9.232  -2.447  23.737  0.00  0.00    +0.150 C 
ATOM     31  C   UNL     1       8.133  -3.354  23.193  0.00  0.00    +0.041 C 
ATOM     32  C   UNL     1       9.814  -1.461  22.719  0.00  0.00    +0.174 C 
ATOM     33  C   UNL     1       8.863  -0.285  22.502  0.00  0.00    +0.180 C 
BRANCH  32  34
ATOM     34  O   UNL     1      10.110  -2.081  21.462  0.00  0.00    -0.387 OA
ATOM     35  H   UNL     1       9.881  -3.026  21.519  0.00  0.00    +0.210 HD
ENDBRANCH  32  34
BRANCH  33  36
ATOM     36  O   UNL     1       9.384   0.605  21.501  0.00  0.00    -0.386 OA
ATOM     37  H   UNL     1       9.074   1.506  21.731  0.00  0.00    +0.210 HD
ENDBRANCH  33  36
BRANCH  27  38
ATOM     38  O   UNL     1       9.673   1.098  24.445  0.00  0.00    -0.337 OA
BRANCH  38  42
ATOM     39  C   UNL     1       7.987   4.737  25.642  0.00  0.00    +0.041 C 
ATOM     40  C   UNL     1       8.114   4.377  24.154  0.00  0.00    +0.149 C 
ATOM     41  O   UNL     1       8.329   2.955  23.974  0.00  0.00    -0.343 OA
ATOM     42  C   UNL     1       9.619   2.523  24.425  0.00  0.00    +0.282 C 
ATOM     43  C   UNL     1      10.706   3.215  23.574  0.00  0.00    +0.201 C 
ATOM     44  C   UNL     1      10.597   4.726  23.775  0.00  0.00    +0.179 C 
ATOM     45  C   UNL     1       9.183   5.220  23.431  0.00  0.00    +0.174 C 
BRANCH  43  46
ATOM     46  O   UNL     1      10.548   2.946  22.166  0.00  0.00    -0.384 OA
ATOM     47  H   UNL     1      10.146   3.749  21.772  0.00  0.00    +0.210 HD
ENDBRANCH  43  46
BRANCH  44  48
ATOM     48  O   UNL     1      11.557   5.408  22.954  0.00  0.00    -0.386 OA
ATOM     49  H   UNL     1      11.569   6.330  23.288  0.00  0.00    +0.210 HD
ENDBRANCH  44  48
BRANCH  45  50
ATOM     50  O   UNL     1       9.028   6.603  23.769  0.00  0.00    -0.387 OA
ATOM     51  H   UNL     1       8.127   6.718  24.125  0.00  0.00    +0.210 HD
ENDBRANCH  45  50
ENDBRANCH  38  42
ENDBRANCH  27  38
ENDBRANCH   1  28
TORSDOF 14
ENDMDL
MODEL 5
REMARK VINA RESULT:      -7.1      2.179      7.314
REMARK  Name = 
REMARK  16 active torsions:
REMARK  status: ('A' for Active; 'I' for Inactive)
REMARK    1  A    between atoms: C_1  and  C_2
REMARK    2  A    between atoms: C_3  and  O_42
REMARK    3  A    between atoms: C_4  and  O_41
REMARK    4  A    between atoms: C_5  and  O_40
REMARK    5  A    between atoms: C_6  and  O_8
REMARK    6  A    between atoms: O_8  and  C_9
REMARK    7  A    between atoms: C_10  and  O_39
REMARK    8  A    between atoms: C_11  and  O_38
REMARK    9  A    between atoms: C_12  and  C_37
REMARK   10  A    between atoms: C_14  and  O_15
REMARK   11  A    between atoms: O_15  and  C_16
REMARK   12  A    between atoms: C_17  and  C_29
REMARK   13  A    between atoms: C_21  and  O_28
REMARK   14  A    between atoms: C_23  and  O_27
REMARK   15  A    between atoms: C_31  and  O_36
REMARK   16  A    between atoms: C_32  and  O_35
REMARK                            x       y       z     vdW  Elec       q    Type
REMARK                         _______ _______ _______ _____ _____    ______ ____
ROOT
ATOM      1  O   UNL     1       7.101  -1.571  25.546  0.00  0.00    -0.453 OA
ENDROOT
BRANCH   1   2
ATOM      2  C   UNL     1       6.195  -0.532  25.784  0.00  0.00    +0.214 A 
ATOM      3  C   UNL     1       5.008  -0.704  26.699  0.00  0.00    +0.238 A 
ATOM      4  O   UNL     1       4.848  -1.717  27.367  0.00  0.00    -0.283 OA
ATOM      5  C   UNL     1       4.069   0.415  26.842  0.00  0.00    +0.109 A 
ATOM      6  C   UNL     1       4.421   1.629  26.267  0.00  0.00    +0.147 A 
ATOM      7  C   UNL     1       3.638   2.766  26.474  0.00  0.00    +0.092 A 
ATOM      8  C   UNL     1       2.478   2.660  27.245  0.00  0.00    +0.124 A 
ATOM      9  C   UNL     1       2.087   1.441  27.791  0.00  0.00    +0.091 A 
ATOM     10  O   UNL     1       5.539   1.784  25.495  0.00  0.00    -0.451 OA
ATOM     11  C   UNL     1       2.885   0.319  27.581  0.00  0.00    +0.135 A 
ATOM     12  C   UNL     1       6.369   0.696  25.234  0.00  0.00    +0.181 A 
BRANCH  12  13
ATOM     13  C   UNL     1       7.479   1.079  24.299  0.00  0.00    +0.025 A 
ATOM     14  C   UNL     1       8.700   1.573  24.821  0.00  0.00    +0.015 A 
ATOM     15  C   UNL     1       9.733   2.023  23.988  0.00  0.00    +0.050 A 
ATOM     16  C   UNL     1       9.565   1.958  22.615  0.00  0.00    +0.158 A 
ATOM     17  C   UNL     1       8.390   1.455  22.074  0.00  0.00    +0.159 A 
ATOM     18  C   UNL     1       7.341   1.050  22.901  0.00  0.00    +0.060 A 
BRANCH  16  19
ATOM     19  O   UNL     1      10.566   2.392  21.796  0.00  0.00    -0.503 OA
ATOM     20  H   UNL     1      10.848   3.247  22.180  0.00  0.00    +0.292 HD
ENDBRANCH  16  19
BRANCH  17  21
ATOM     21  O   UNL     1       8.306   1.375  20.710  0.00  0.00    -0.503 OA
ATOM     22  H   UNL     1       9.203   1.232  20.359  0.00  0.00    +0.292 HD
ENDBRANCH  17  21
ENDBRANCH  12  13
BRANCH   8  23
ATOM     23  O   UNL     1       1.682   3.735  27.497  0.00  0.00    -0.507 OA
ATOM     24  H   UNL     1       2.236   4.525  27.611  0.00  0.00    +0.292 HD
ENDBRANCH   8  23
BRANCH  11  25
ATOM     25  O   UNL     1       2.472  -0.875  28.104  0.00  0.00    -0.506 OA
ATOM     26  H   UNL     1       3.104  -1.190  28.767  0.00  0.00    +0.292 HD
ENDBRANCH  11  25
ENDBRANCH   1   2
BRANCH   1  28
ATOM     27  C   UNL     1       6.690  -4.002  25.398  0.00  0.00    +0.221 C 
ATOM     28  C   UNL     1       6.752  -2.639  24.641  0.00  0.00    +0.340 C 
ATOM     29  O   UNL     1       7.661  -2.671  23.519  0.00  0.00    -0.334 OA
ATOM     30  C   UNL     1       8.980  -3.159  23.737  0.00  0.00    +0.150 C 
ATOM     31  C   UNL     1       9.859  -2.075  24.353  0.00  0.00    +0.041 C 
ATOM     32  C   UNL     1       8.994  -4.497  24.482  0.00  0.00    +0.174 C 
ATOM     33  C   UNL     1       8.130  -4.423  25.741  0.00  0.00    +0.180 C 
BRANCH  32  34
ATOM     34  O   UNL     1      10.318  -4.919  24.831  0.00  0.00    -0.387 OA
ATOM     35  H   UNL     1      10.894  -4.809  24.053  0.00  0.00    +0.210 HD
ENDBRANCH  32  34
BRANCH  33  36
ATOM     36  O   UNL     1       8.194  -5.660  26.470  0.00  0.00    -0.386 OA
ATOM     37  H   UNL     1       7.470  -5.642  27.129  0.00  0.00    +0.210 HD
ENDBRANCH  33  36
BRANCH  27  38
ATOM     38  O   UNL     1       5.942  -4.965  24.616  0.00  0.00    -0.337 OA
BRANCH  38  42
ATOM     39  C   UNL     1       3.530  -5.557  27.985  0.00  0.00    +0.041 C 
ATOM     40  C   UNL     1       4.083  -6.750  27.189  0.00  0.00    +0.149 C 
ATOM     41  O   UNL     1       5.192  -6.351  26.346  0.00  0.00    -0.343 OA
ATOM     42  C   UNL     1       4.790  -5.513  25.254  0.00  0.00    +0.282 C 
ATOM     43  C   UNL     1       3.839  -6.307  24.334  0.00  0.00    +0.201 C 
ATOM     44  C   UNL     1       2.597  -6.698  25.134  0.00  0.00    +0.179 C 
ATOM     45  C   UNL     1       2.988  -7.488  26.394  0.00  0.00    +0.174 C 
BRANCH  43  46
ATOM     46  O   UNL     1       4.445  -7.521  23.843  0.00  0.00    -0.384 OA
ATOM     47  H   UNL     1       4.183  -7.603  22.902  0.00  0.00    +0.210 HD
ENDBRANCH  43  46
BRANCH  44  48
ATOM     48  O   UNL     1       1.712  -7.490  24.327  0.00  0.00    -0.386 OA
ATOM     49  H   UNL     1       2.045  -7.388  23.410  0.00  0.00    +0.210 HD
ENDBRANCH  44  48
BRANCH  45  50
ATOM     50  O   UNL     1       1.846  -7.716  27.228  0.00  0.00    -0.387 OA
ATOM     51  H   UNL     1       1.237  -8.298  26.737  0.00  0.00    +0.210 HD
ENDBRANCH  45  50
ENDBRANCH  38  42
ENDBRANCH  27  38
ENDBRANCH   1  28
TORSDOF 14
ENDMDL
MODEL 6
REMARK VINA RESULT:      -7.1      2.141      7.225
REMARK  Name = 
REMARK  16 active torsions:
REMARK  status: ('A' for Active; 'I' for Inactive)
REMARK    1  A    between atoms: C_1  and  C_2
REMARK    2  A    between atoms: C_3  and  O_42
REMARK    3  A    between atoms: C_4  and  O_41
REMARK    4  A    between atoms: C_5  and  O_40
REMARK    5  A    between atoms: C_6  and  O_8
REMARK    6  A    between atoms: O_8  and  C_9
REMARK    7  A    between atoms: C_10  and  O_39
REMARK    8  A    between atoms: C_11  and  O_38
REMARK    9  A    between atoms: C_12  and  C_37
REMARK   10  A    between atoms: C_14  and  O_15
REMARK   11  A    between atoms: O_15  and  C_16
REMARK   12  A    between atoms: C_17  and  C_29
REMARK   13  A    between atoms: C_21  and  O_28
REMARK   14  A    between atoms: C_23  and  O_27
REMARK   15  A    between atoms: C_31  and  O_36
REMARK   16  A    between atoms: C_32  and  O_35
REMARK                            x       y       z     vdW  Elec       q    Type
REMARK                         _______ _______ _______ _____ _____    ______ ____
ROOT
ATOM      1  O   UNL     1       7.722   0.339  24.867  0.00  0.00    -0.453 OA
ENDROOT
BRANCH   1   2
ATOM      2  C   UNL     1       6.850   0.900  25.806  0.00  0.00    +0.214 A 
ATOM      3  C   UNL     1       6.093   0.052  26.797  0.00  0.00    +0.238 A 
ATOM      4  O   UNL     1       6.293  -1.151  26.906  0.00  0.00    -0.283 OA
ATOM      5  C   UNL     1       5.148   0.714  27.704  0.00  0.00    +0.109 A 
ATOM      6  C   UNL     1       5.135   2.102  27.721  0.00  0.00    +0.147 A 
ATOM      7  C   UNL     1       4.356   2.795  28.649  0.00  0.00    +0.092 A 
ATOM      8  C   UNL     1       3.565   2.071  29.546  0.00  0.00    +0.124 A 
ATOM      9  C   UNL     1       3.531   0.680  29.513  0.00  0.00    +0.091 A 
ATOM     10  O   UNL     1       5.882   2.858  26.859  0.00  0.00    -0.451 OA
ATOM     11  C   UNL     1       4.321   0.006  28.585  0.00  0.00    +0.135 A 
ATOM     12  C   UNL     1       6.680   2.243  25.897  0.00  0.00    +0.181 A 
BRANCH  12  13
ATOM     13  C   UNL     1       7.336   3.263  25.012  0.00  0.00    +0.025 A 
ATOM     14  C   UNL     1       8.357   4.095  25.533  0.00  0.00    +0.015 A 
ATOM     15  C   UNL     1       8.940   5.117  24.772  0.00  0.00    +0.050 A 
ATOM     16  C   UNL     1       8.523   5.302  23.464  0.00  0.00    +0.158 A 
ATOM     17  C   UNL     1       7.541   4.486  22.918  0.00  0.00    +0.159 A 
ATOM     18  C   UNL     1       6.927   3.497  23.688  0.00  0.00    +0.060 A 
BRANCH  16  19
ATOM     19  O   UNL     1       9.085   6.293  22.715  0.00  0.00    -0.503 OA
ATOM     20  H   UNL     1       9.321   6.989  23.361  0.00  0.00    +0.292 HD
ENDBRANCH  16  19
BRANCH  17  21
ATOM     21  O   UNL     1       7.208   4.691  21.606  0.00  0.00    -0.503 OA
ATOM     22  H   UNL     1       7.927   4.338  21.052  0.00  0.00    +0.292 HD
ENDBRANCH  17  21
ENDBRANCH  12  13
BRANCH   8  23
ATOM     23  O   UNL     1       2.797   2.687  30.485  0.00  0.00    -0.507 OA
ATOM     24  H   UNL     1       1.915   2.278  30.496  0.00  0.00    +0.292 HD
ENDBRANCH   8  23
BRANCH  11  25
ATOM     25  O   UNL     1       4.257  -1.359  28.550  0.00  0.00    -0.506 OA
ATOM     26  H   UNL     1       3.847  -1.657  27.725  0.00  0.00    +0.292 HD
ENDBRANCH  11  25
ENDBRANCH   1   2
BRANCH   1  28
ATOM     27  C   UNL     1       7.524  -1.886  23.812  0.00  0.00    +0.221 C 
ATOM     28  C   UNL     1       7.193  -0.364  23.723  0.00  0.00    +0.340 C 
ATOM     29  O   UNL     1       7.668   0.234  22.497  0.00  0.00    -0.334 OA
ATOM     30  C   UNL     1       9.024   0.016  22.124  0.00  0.00    +0.150 C 
ATOM     31  C   UNL     1       9.948   0.962  22.884  0.00  0.00    +0.041 C 
ATOM     32  C   UNL     1       9.420  -1.462  22.193  0.00  0.00    +0.174 C 
ATOM     33  C   UNL     1       9.030  -2.063  23.544  0.00  0.00    +0.180 C 
BRANCH  32  34
ATOM     34  O   UNL     1      10.818  -1.668  21.961  0.00  0.00    -0.387 OA
ATOM     35  H   UNL     1      10.993  -1.565  21.007  0.00  0.00    +0.210 HD
ENDBRANCH  32  34
BRANCH  33  36
ATOM     36  O   UNL     1       9.458  -3.432  23.628  0.00  0.00    -0.386 OA
ATOM     37  H   UNL     1       9.011  -3.824  24.407  0.00  0.00    +0.210 HD
ENDBRANCH  33  36
BRANCH  27  38
ATOM     38  O   UNL     1       6.655  -2.632  22.926  0.00  0.00    -0.337 OA
BRANCH  38  42
ATOM     39  C   UNL     1       5.554  -4.907  26.262  0.00  0.00    +0.041 C 
ATOM     40  C   UNL     1       6.116  -5.577  24.999  0.00  0.00    +0.149 C 
ATOM     41  O   UNL     1       6.799  -4.618  24.154  0.00  0.00    -0.343 OA
ATOM     42  C   UNL     1       5.907  -3.680  23.539  0.00  0.00    +0.282 C 
ATOM     43  C   UNL     1       4.945  -4.441  22.601  0.00  0.00    +0.201 C 
ATOM     44  C   UNL     1       4.124  -5.424  23.436  0.00  0.00    +0.179 C 
ATOM     45  C   UNL     1       5.044  -6.370  24.224  0.00  0.00    +0.174 C 
BRANCH  43  46
ATOM     46  O   UNL     1       5.650  -5.200  21.598  0.00  0.00    -0.384 OA
ATOM     47  H   UNL     1       6.231  -5.826  22.079  0.00  0.00    +0.210 HD
ENDBRANCH  43  46
BRANCH  44  48
ATOM     48  O   UNL     1       3.256  -6.193  22.589  0.00  0.00    -0.386 OA
ATOM     49  H   UNL     1       3.830  -6.882  22.194  0.00  0.00    +0.210 HD
ENDBRANCH  44  48
BRANCH  45  50
ATOM     50  O   UNL     1       4.287  -7.183  25.128  0.00  0.00    -0.387 OA
ATOM     51  H   UNL     1       4.688  -8.071  25.128  0.00  0.00    +0.210 HD
ENDBRANCH  45  50
ENDBRANCH  38  42
ENDBRANCH  27  38
ENDBRANCH   1  28
TORSDOF 14
ENDMDL
MODEL 7
REMARK VINA RESULT:      -7.1      1.704      2.035
REMARK  Name = 
REMARK  16 active torsions:
REMARK  status: ('A' for Active; 'I' for Inactive)
REMARK    1  A    between atoms: C_1  and  C_2
REMARK    2  A    between atoms: C_3  and  O_42
REMARK    3  A    between atoms: C_4  and  O_41
REMARK    4  A    between atoms: C_5  and  O_40
REMARK    5  A    between atoms: C_6  and  O_8
REMARK    6  A    between atoms: O_8  and  C_9
REMARK    7  A    between atoms: C_10  and  O_39
REMARK    8  A    between atoms: C_11  and  O_38
REMARK    9  A    between atoms: C_12  and  C_37
REMARK   10  A    between atoms: C_14  and  O_15
REMARK   11  A    between atoms: O_15  and  C_16
REMARK   12  A    between atoms: C_17  and  C_29
REMARK   13  A    between atoms: C_21  and  O_28
REMARK   14  A    between atoms: C_23  and  O_27
REMARK   15  A    between atoms: C_31  and  O_36
REMARK   16  A    between atoms: C_32  and  O_35
REMARK                            x       y       z     vdW  Elec       q    Type
REMARK                         _______ _______ _______ _____ _____    ______ ____
ROOT
ATOM      1  O   UNL     1       7.833  -2.598  26.240  0.00  0.00    -0.453 OA
ENDROOT
BRANCH   1   2
ATOM      2  C   UNL     1       6.875  -1.742  26.793  0.00  0.00    +0.214 A 
ATOM      3  C   UNL     1       7.148  -0.274  27.007  0.00  0.00    +0.238 A 
ATOM      4  O   UNL     1       8.172   0.260  26.599  0.00  0.00    -0.283 OA
ATOM      5  C   UNL     1       6.113   0.541  27.654  0.00  0.00    +0.109 A 
ATOM      6  C   UNL     1       4.873  -0.045  27.872  0.00  0.00    +0.147 A 
ATOM      7  C   UNL     1       3.807   0.710  28.363  0.00  0.00    +0.092 A 
ATOM      8  C   UNL     1       4.011   2.060  28.661  0.00  0.00    +0.124 A 
ATOM      9  C   UNL     1       5.259   2.652  28.491  0.00  0.00    +0.091 A 
ATOM     10  O   UNL     1       4.623  -1.364  27.608  0.00  0.00    -0.451 OA
ATOM     11  C   UNL     1       6.310   1.885  27.992  0.00  0.00    +0.135 A 
ATOM     12  C   UNL     1       5.637  -2.187  27.122  0.00  0.00    +0.181 A 
BRANCH  12  13
ATOM     13  C   UNL     1       5.160  -3.604  26.991  0.00  0.00    +0.025 A 
ATOM     14  C   UNL     1       4.068  -3.903  26.140  0.00  0.00    +0.015 A 
ATOM     15  C   UNL     1       3.533  -5.196  26.048  0.00  0.00    +0.050 A 
ATOM     16  C   UNL     1       4.105  -6.214  26.792  0.00  0.00    +0.158 A 
ATOM     17  C   UNL     1       5.193  -5.956  27.616  0.00  0.00    +0.159 A 
ATOM     18  C   UNL     1       5.698  -4.661  27.744  0.00  0.00    +0.060 A 
BRANCH  16  19
ATOM     19  O   UNL     1       3.593  -7.475  26.708  0.00  0.00    -0.503 OA
ATOM     20  H   UNL     1       4.237  -8.037  27.184  0.00  0.00    +0.292 HD
ENDBRANCH  16  19
BRANCH  17  21
ATOM     21  O   UNL     1       5.741  -7.016  28.288  0.00  0.00    -0.503 OA
ATOM     22  H   UNL     1       5.625  -6.862  29.242  0.00  0.00    +0.292 HD
ENDBRANCH  17  21
ENDBRANCH  12  13
BRANCH   8  23
ATOM     23  O   UNL     1       3.008   2.853  29.127  0.00  0.00    -0.507 OA
ATOM     24  H   UNL     1       2.787   2.589  30.036  0.00  0.00    +0.292 HD
ENDBRANCH   8  23
BRANCH  11  25
ATOM     25  O   UNL     1       7.534   2.476  27.856  0.00  0.00    -0.506 OA
ATOM     26  H   UNL     1       7.445   3.441  27.842  0.00  0.00    +0.292 HD
ENDBRANCH  11  25
ENDBRANCH   1   2
BRANCH   1  28
ATOM     27  C   UNL     1       7.191  -2.099  23.908  0.00  0.00    +0.221 C 
ATOM     28  C   UNL     1       8.354  -2.341  24.919  0.00  0.00    +0.340 C 
ATOM     29  O   UNL     1       9.235  -3.408  24.504  0.00  0.00    -0.334 OA
ATOM     30  C   UNL     1       8.654  -4.653  24.136  0.00  0.00    +0.150 C 
ATOM     31  C   UNL     1       8.322  -5.478  25.375  0.00  0.00    +0.041 C 
ATOM     32  C   UNL     1       7.497  -4.490  23.144  0.00  0.00    +0.174 C 
ATOM     33  C   UNL     1       6.497  -3.449  23.648  0.00  0.00    +0.180 C 
BRANCH  32  34
ATOM     34  O   UNL     1       6.818  -5.724  22.885  0.00  0.00    -0.387 OA
ATOM     35  H   UNL     1       5.872  -5.608  23.091  0.00  0.00    +0.210 HD
ENDBRANCH  32  34
BRANCH  33  36
ATOM     36  O   UNL     1       5.384  -3.343  22.746  0.00  0.00    -0.386 OA
ATOM     37  H   UNL     1       5.499  -4.040  22.066  0.00  0.00    +0.210 HD
ENDBRANCH  33  36
BRANCH  27  38
ATOM     38  O   UNL     1       7.697  -1.435  22.725  0.00  0.00    -0.337 OA
BRANCH  38  42
ATOM     39  C   UNL     1       6.699   2.328  24.261  0.00  0.00    +0.041 C 
ATOM     40  C   UNL     1       6.824   2.101  22.747  0.00  0.00    +0.149 C 
ATOM     41  O   UNL     1       6.766   0.690  22.421  0.00  0.00    -0.343 OA
ATOM     42  C   UNL     1       7.923  -0.033  22.858  0.00  0.00    +0.282 C 
ATOM     43  C   UNL     1       9.164   0.509  22.117  0.00  0.00    +0.201 C 
ATOM     44  C   UNL     1       9.343   1.984  22.476  0.00  0.00    +0.179 C 
ATOM     45  C   UNL     1       8.071   2.782  22.148  0.00  0.00    +0.174 C 
BRANCH  43  46
ATOM     46  O   UNL     1       9.024   0.420  20.684  0.00  0.00    -0.384 OA
ATOM     47  H   UNL     1       8.839   1.328  20.364  0.00  0.00    +0.210 HD
ENDBRANCH  43  46
BRANCH  44  48
ATOM     48  O   UNL     1      10.456   2.540  21.759  0.00  0.00    -0.386 OA
ATOM     49  H   UNL     1      11.126   1.825  21.734  0.00  0.00    +0.210 HD
ENDBRANCH  44  48
BRANCH  45  50
ATOM     50  O   UNL     1       8.173   4.127  22.629  0.00  0.00    -0.387 OA
ATOM     51  H   UNL     1       8.774   4.607  22.030  0.00  0.00    +0.210 HD
ENDBRANCH  45  50
ENDBRANCH  38  42
ENDBRANCH  27  38
ENDBRANCH   1  28
TORSDOF 14
ENDMDL
MODEL 8
REMARK VINA RESULT:      -7.0      2.412      4.644
REMARK  Name = 
REMARK  16 active torsions:
REMARK  status: ('A' for Active; 'I' for Inactive)
REMARK    1  A    between atoms: C_1  and  C_2
REMARK    2  A    between atoms: C_3  and  O_42
REMARK    3  A    between atoms: C_4  and  O_41
REMARK    4  A    between atoms: C_5  and  O_40
REMARK    5  A    between atoms: C_6  and  O_8
REMARK    6  A    between atoms: O_8  and  C_9
REMARK    7  A    between atoms: C_10  and  O_39
REMARK    8  A    between atoms: C_11  and  O_38
REMARK    9  A    between atoms: C_12  and  C_37
REMARK   10  A    between atoms: C_14  and  O_15
REMARK   11  A    between atoms: O_15  and  C_16
REMARK   12  A    between atoms: C_17  and  C_29
REMARK   13  A    between atoms: C_21  and  O_28
REMARK   14  A    between atoms: C_23  and  O_27
REMARK   15  A    between atoms: C_31  and  O_36
REMARK   16  A    between atoms: C_32  and  O_35
REMARK                            x       y       z     vdW  Elec       q    Type
REMARK                         _______ _______ _______ _____ _____    ______ ____
ROOT
ATOM      1  O   UNL     1       6.669  -0.826  24.190  0.00  0.00    -0.453 OA
ENDROOT
BRANCH   1   2
ATOM      2  C   UNL     1       5.644  -1.041  25.118  0.00  0.00    +0.214 A 
ATOM      3  C   UNL     1       5.198   0.035  26.076  0.00  0.00    +0.238 A 
ATOM      4  O   UNL     1       5.627   1.180  26.009  0.00  0.00    -0.283 OA
ATOM      5  C   UNL     1       4.162  -0.294  27.062  0.00  0.00    +0.109 A 
ATOM      6  C   UNL     1       3.525  -1.522  26.942  0.00  0.00    +0.147 A 
ATOM      7  C   UNL     1       2.444  -1.845  27.765  0.00  0.00    +0.092 A 
ATOM      8  C   UNL     1       2.029  -0.927  28.732  0.00  0.00    +0.124 A 
ATOM      9  C   UNL     1       2.685   0.290  28.895  0.00  0.00    +0.091 A 
ATOM     10  O   UNL     1       3.899  -2.462  26.020  0.00  0.00    -0.451 OA
ATOM     11  C   UNL     1       3.756   0.599  28.060  0.00  0.00    +0.135 A 
ATOM     12  C   UNL     1       4.973  -2.219  25.167  0.00  0.00    +0.181 A 
BRANCH  12  13
ATOM     13  C   UNL     1       5.256  -3.416  24.307  0.00  0.00    +0.025 A 
ATOM     14  C   UNL     1       5.519  -4.670  24.910  0.00  0.00    +0.015 A 
ATOM     15  C   UNL     1       5.870  -5.797  24.153  0.00  0.00    +0.050 A 
ATOM     16  C   UNL     1       5.937  -5.686  22.774  0.00  0.00    +0.158 A 
ATOM     17  C   UNL     1       5.660  -4.475  22.153  0.00  0.00    +0.159 A 
ATOM     18  C   UNL     1       5.355  -3.341  22.907  0.00  0.00    +0.060 A 
BRANCH  16  19
ATOM     19  O   UNL     1       6.276  -6.776  22.029  0.00  0.00    -0.503 OA
ATOM     20  H   UNL     1       6.894  -7.281  22.596  0.00  0.00    +0.292 HD
ENDBRANCH  16  19
BRANCH  17  21
ATOM     21  O   UNL     1       5.698  -4.445  20.785  0.00  0.00    -0.503 OA
ATOM     22  H   UNL     1       6.488  -4.932  20.493  0.00  0.00    +0.292 HD
ENDBRANCH  17  21
ENDBRANCH  12  13
BRANCH   8  23
ATOM     23  O   UNL     1       0.972  -1.175  29.552  0.00  0.00    -0.507 OA
ATOM     24  H   UNL     1       1.018  -2.094  29.865  0.00  0.00    +0.292 HD
ENDBRANCH   8  23
BRANCH  11  25
ATOM     25  O   UNL     1       4.404   1.787  28.252  0.00  0.00    -0.506 OA
ATOM     26  H   UNL     1       5.343   1.634  28.434  0.00  0.00    +0.292 HD
ENDBRANCH  11  25
ENDBRANCH   1   2
BRANCH   1  28
ATOM     27  C   UNL     1       8.215   0.921  23.376  0.00  0.00    +0.221 C 
ATOM     28  C   UNL     1       7.812  -0.022  24.552  0.00  0.00    +0.340 C 
ATOM     29  O   UNL     1       8.904  -0.860  24.988  0.00  0.00    -0.334 OA
ATOM     30  C   UNL     1       9.617  -1.600  24.004  0.00  0.00    +0.150 C 
ATOM     31  C   UNL     1       8.858  -2.870  23.633  0.00  0.00    +0.041 C 
ATOM     32  C   UNL     1      10.041  -0.735  22.813  0.00  0.00    +0.174 C 
ATOM     33  C   UNL     1       8.852   0.059  22.271  0.00  0.00    +0.180 C 
BRANCH  32  34
ATOM     34  O   UNL     1      10.629  -1.503  21.757  0.00  0.00    -0.387 OA
ATOM     35  H   UNL     1      10.748  -0.926  20.981  0.00  0.00    +0.210 HD
ENDBRANCH  32  34
BRANCH  33  36
ATOM     36  O   UNL     1       9.240   0.821  21.117  0.00  0.00    -0.386 OA
ATOM     37  H   UNL     1      10.097   0.459  20.809  0.00  0.00    +0.210 HD
ENDBRANCH  33  36
BRANCH  27  38
ATOM     38  O   UNL     1       9.050   1.995  23.870  0.00  0.00    -0.337 OA
BRANCH  38  42
ATOM     39  C   UNL     1       5.908   4.610  22.975  0.00  0.00    +0.041 C 
ATOM     40  C   UNL     1       7.247   4.699  22.227  0.00  0.00    +0.149 C 
ATOM     41  O   UNL     1       8.021   3.484  22.388  0.00  0.00    -0.343 OA
ATOM     42  C   UNL     1       8.514   3.308  23.722  0.00  0.00    +0.282 C 
ATOM     43  C   UNL     1       9.484   4.461  24.056  0.00  0.00    +0.201 C 
ATOM     44  C   UNL     1       8.718   5.782  23.988  0.00  0.00    +0.179 C 
ATOM     45  C   UNL     1       8.055   5.955  22.612  0.00  0.00    +0.174 C 
BRANCH  43  46
ATOM     46  O   UNL     1      10.579   4.539  23.120  0.00  0.00    -0.384 OA
ATOM     47  H   UNL     1      10.252   4.161  22.277  0.00  0.00    +0.210 HD
ENDBRANCH  43  46
BRANCH  44  48
ATOM     48  O   UNL     1       9.603   6.885  24.236  0.00  0.00    -0.386 OA
ATOM     49  H   UNL     1       9.234   7.630  23.717  0.00  0.00    +0.210 HD
ENDBRANCH  44  48
BRANCH  45  50
ATOM     50  O   UNL     1       7.206   7.108  22.595  0.00  0.00    -0.387 OA
ATOM     51  H   UNL     1       7.781   7.894  22.546  0.00  0.00    +0.210 HD
ENDBRANCH  45  50
ENDBRANCH  38  42
ENDBRANCH  27  38
ENDBRANCH   1  28
TORSDOF 14
ENDMDL
MODEL 9
REMARK VINA RESULT:      -6.9      2.441      7.659
REMARK  Name = 
REMARK  16 active torsions:
REMARK  status: ('A' for Active; 'I' for Inactive)
REMARK    1  A    between atoms: C_1  and  C_2
REMARK    2  A    between atoms: C_3  and  O_42
REMARK    3  A    between atoms: C_4  and  O_41
REMARK    4  A    between atoms: C_5  and  O_40
REMARK    5  A    between atoms: C_6  and  O_8
REMARK    6  A    between atoms: O_8  and  C_9
REMARK    7  A    between atoms: C_10  and  O_39
REMARK    8  A    between atoms: C_11  and  O_38
REMARK    9  A    between atoms: C_12  and  C_37
REMARK   10  A    between atoms: C_14  and  O_15
REMARK   11  A    between atoms: O_15  and  C_16
REMARK   12  A    between atoms: C_17  and  C_29
REMARK   13  A    between atoms: C_21  and  O_28
REMARK   14  A    between atoms: C_23  and  O_27
REMARK   15  A    between atoms: C_31  and  O_36
REMARK   16  A    between atoms: C_32  and  O_35
REMARK                            x       y       z     vdW  Elec       q    Type
REMARK                         _______ _______ _______ _____ _____    ______ ____
ROOT
ATOM      1  O   UNL     1       6.276  -0.524  25.876  0.00  0.00    -0.453 OA
ENDROOT
BRANCH   1   2
ATOM      2  C   UNL     1       6.351  -1.532  24.908  0.00  0.00    +0.214 A 
ATOM      3  C   UNL     1       5.336  -2.646  24.837  0.00  0.00    +0.238 A 
ATOM      4  O   UNL     1       4.336  -2.656  25.544  0.00  0.00    -0.283 OA
ATOM      5  C   UNL     1       5.525  -3.699  23.834  0.00  0.00    +0.109 A 
ATOM      6  C   UNL     1       6.527  -3.518  22.889  0.00  0.00    +0.147 A 
ATOM      7  C   UNL     1       6.677  -4.416  21.831  0.00  0.00    +0.092 A 
ATOM      8  C   UNL     1       5.821  -5.518  21.749  0.00  0.00    +0.124 A 
ATOM      9  C   UNL     1       4.841  -5.739  22.712  0.00  0.00    +0.091 A 
ATOM     10  O   UNL     1       7.397  -2.463  22.929  0.00  0.00    -0.451 OA
ATOM     11  C   UNL     1       4.701  -4.828  23.757  0.00  0.00    +0.135 A 
ATOM     12  C   UNL     1       7.319  -1.527  23.958  0.00  0.00    +0.181 A 
BRANCH  12  13
ATOM     13  C   UNL     1       8.422  -0.515  23.847  0.00  0.00    +0.025 A 
ATOM     14  C   UNL     1       9.252  -0.253  24.964  0.00  0.00    +0.015 A 
ATOM     15  C   UNL     1      10.239   0.741  24.936  0.00  0.00    +0.050 A 
ATOM     16  C   UNL     1      10.425   1.471  23.774  0.00  0.00    +0.158 A 
ATOM     17  C   UNL     1       9.643   1.220  22.655  0.00  0.00    +0.159 A 
ATOM     18  C   UNL     1       8.628   0.262  22.695  0.00  0.00    +0.060 A 
BRANCH  16  19
ATOM     19  O   UNL     1      11.384   2.440  23.737  0.00  0.00    -0.503 OA
ATOM     20  H   UNL     1      12.008   2.199  24.451  0.00  0.00    +0.292 HD
ENDBRANCH  16  19
BRANCH  17  21
ATOM     21  O   UNL     1       9.909   1.944  21.524  0.00  0.00    -0.503 OA
ATOM     22  H   UNL     1       9.089   2.391  21.250  0.00  0.00    +0.292 HD
ENDBRANCH  17  21
ENDBRANCH  12  13
BRANCH   8  23
ATOM     23  O   UNL     1       5.905  -6.419  20.733  0.00  0.00    -0.507 OA
ATOM     24  H   UNL     1       6.830  -6.704  20.633  0.00  0.00    +0.292 HD
ENDBRANCH   8  23
BRANCH  11  25
ATOM     25  O   UNL     1       3.750  -5.075  24.707  0.00  0.00    -0.506 OA
ATOM     26  H   UNL     1       4.071  -4.814  25.583  0.00  0.00    +0.292 HD
ENDBRANCH  11  25
ENDBRANCH   1   2
BRANCH   1  28
ATOM     27  C   UNL     1       6.070   1.922  26.146  0.00  0.00    +0.221 C 
ATOM     28  C   UNL     1       5.390   0.598  25.681  0.00  0.00    +0.340 C 
ATOM     29  O   UNL     1       4.125   0.366  26.339  0.00  0.00    -0.334 OA
ATOM     30  C   UNL     1       4.079   0.454  27.758  0.00  0.00    +0.150 C 
ATOM     31  C   UNL     1       4.589  -0.836  28.393  0.00  0.00    +0.041 C 
ATOM     32  C   UNL     1       4.736   1.733  28.286  0.00  0.00    +0.174 C 
ATOM     33  C   UNL     1       6.130   1.912  27.684  0.00  0.00    +0.180 C 
BRANCH  32  34
ATOM     34  O   UNL     1       4.822   1.757  29.716  0.00  0.00    -0.387 OA
ATOM     35  H   UNL     1       5.117   2.643  29.995  0.00  0.00    +0.210 HD
ENDBRANCH  32  34
BRANCH  33  36
ATOM     36  O   UNL     1       6.767   3.079  28.229  0.00  0.00    -0.386 OA
ATOM     37  H   UNL     1       7.734   2.932  28.169  0.00  0.00    +0.210 HD
ENDBRANCH  33  36
BRANCH  27  38
ATOM     38  O   UNL     1       5.381   3.058  25.570  0.00  0.00    -0.337 OA
BRANCH  38  42
ATOM     39  C   UNL     1       7.535   6.409  24.285  0.00  0.00    +0.041 C 
ATOM     40  C   UNL     1       6.291   5.930  23.522  0.00  0.00    +0.149 C 
ATOM     41  O   UNL     1       5.483   5.045  24.338  0.00  0.00    -0.343 OA
ATOM     42  C   UNL     1       6.108   3.777  24.576  0.00  0.00    +0.282 C 
ATOM     43  C   UNL     1       6.289   3.045  23.229  0.00  0.00    +0.201 C 
ATOM     44  C   UNL     1       7.202   3.882  22.335  0.00  0.00    +0.179 C 
ATOM     45  C   UNL     1       6.639   5.301  22.158  0.00  0.00    +0.174 C 
BRANCH  43  46
ATOM     46  O   UNL     1       5.037   2.867  22.535  0.00  0.00    -0.384 OA
ATOM     47  H   UNL     1       4.947   3.628  21.923  0.00  0.00    +0.210 HD
ENDBRANCH  43  46
BRANCH  44  48
ATOM     48  O   UNL     1       7.348   3.260  21.049  0.00  0.00    -0.386 OA
ATOM     49  H   UNL     1       6.820   3.815  20.436  0.00  0.00    +0.210 HD
ENDBRANCH  44  48
BRANCH  45  50
ATOM     50  O   UNL     1       7.568   6.136  21.457  0.00  0.00    -0.387 OA
ATOM     51  H   UNL     1       7.072   6.603  20.759  0.00  0.00    +0.210 HD
ENDBRANCH  45  50
ENDBRANCH  38  42
ENDBRANCH  27  38
ENDBRANCH   1  28
TORSDOF 14
ENDMDL
