MODEL 1
REMARK VINA RESULT:      -7.1      0.000      0.000
REMARK  Name = 
REMARK  18 active torsions:
REMARK  status: ('A' for Active; 'I' for Inactive)
REMARK    1  A    between atoms: C_3  and  O_54
REMARK    2  A    between atoms: C_4  and  O_53
REMARK    3  A    between atoms: C_6  and  C_7
REMARK    4  A    between atoms: C_8  and  O_36
REMARK    5  A    between atoms: C_12  and  O_35
REMARK    6  A    between atoms: C_14  and  O_18
REMARK    7  A    between atoms: O_18  and  C_19
REMARK    8  A    between atoms: C_21  and  O_34
REMARK    9  A    between atoms: C_23  and  O_33
REMARK   10  A    between atoms: C_25  and  O_32
REMARK   11  A    between atoms: C_27  and  C_30
REMARK   12  A    between atoms: C_30  and  O_31
REMARK   13  A    between atoms: O_36  and  C_37
REMARK   14  A    between atoms: C_39  and  O_52
REMARK   15  A    between atoms: C_41  and  O_51
REMARK   16  A    between atoms: C_43  and  O_50
REMARK   17  A    between atoms: C_45  and  C_48
REMARK   18  A    between atoms: C_48  and  O_49
REMARK                            x       y       z     vdW  Elec       q    Type
REMARK                         _______ _______ _______ _____ _____    ______ ____
ROOT
ATOM      1  C   UNL     1       6.753  -2.981  26.355  0.00  0.00    +0.181 A 
ATOM      2  O   UNL     1       7.299  -1.702  26.434  0.00  0.00    -0.451 OA
ATOM      3  C   UNL     1       8.208  -1.293  25.492  0.00  0.00    +0.147 A 
ATOM      4  C   UNL     1       8.833  -2.168  24.636  0.00  0.00    +0.109 A 
ATOM      5  C   UNL     1       9.870  -1.691  23.820  0.00  0.00    +0.135 A 
ATOM      6  C   UNL     1      10.251  -0.343  23.851  0.00  0.00    +0.092 A 
ATOM      7  C   UNL     1       9.592   0.549  24.706  0.00  0.00    +0.131 A 
ATOM      8  C   UNL     1       8.351  -3.558  24.602  0.00  0.00    +0.238 A 
ATOM      9  O   UNL     1       8.933  -4.396  23.922  0.00  0.00    -0.283 OA
ATOM     10  C   UNL     1       8.534   0.066  25.486  0.00  0.00    +0.093 A 
ATOM     11  C   UNL     1       7.117  -3.875  25.401  0.00  0.00    +0.214 A 
ENDROOT
BRANCH   1  13
ATOM     12  C   UNL     1       4.837  -2.152  27.777  0.00  0.00    +0.015 A 
ATOM     13  C   UNL     1       5.724  -3.196  27.427  0.00  0.00    +0.025 A 
ATOM     14  C   UNL     1       5.613  -4.400  28.145  0.00  0.00    +0.060 A 
ATOM     15  C   UNL     1       4.626  -4.563  29.113  0.00  0.00    +0.159 A 
ATOM     16  C   UNL     1       3.793  -3.511  29.466  0.00  0.00    +0.158 A 
ATOM     17  C   UNL     1       3.889  -2.298  28.801  0.00  0.00    +0.050 A 
BRANCH  16  18
ATOM     18  O   UNL     1       2.908  -3.712  30.485  0.00  0.00    -0.503 OA
ATOM     19  H   UNL     1       2.516  -2.851  30.713  0.00  0.00    +0.292 HD
ENDBRANCH  16  18
BRANCH  15  20
ATOM     20  O   UNL     1       4.484  -5.777  29.721  0.00  0.00    -0.503 OA
ATOM     21  H   UNL     1       5.398  -6.070  29.912  0.00  0.00    +0.292 HD
ENDBRANCH  15  20
ENDBRANCH   1  13
BRANCH   5  22
ATOM     22  O   UNL     1      10.568  -2.512  22.962  0.00  0.00    -0.506 OA
ATOM     23  H   UNL     1       9.944  -2.849  22.280  0.00  0.00    +0.292 HD
ENDBRANCH   5  22
BRANCH  11  24
ATOM     24  O   UNL     1       6.461  -5.067  25.077  0.00  0.00    -0.453 OA
BRANCH  24  25
ATOM     25  C   UNL     1       5.582  -4.929  23.942  0.00  0.00    +0.340 C 
ATOM     26  O   UNL     1       4.453  -4.106  24.241  0.00  0.00    -0.331 OA
ATOM     27  C   UNL     1       3.140  -4.639  24.452  0.00  0.00    +0.179 C 
ATOM     28  C   UNL     1       2.864  -6.073  23.966  0.00  0.00    +0.177 C 
ATOM     29  C   UNL     1       4.109  -6.957  24.049  0.00  0.00    +0.180 C 
ATOM     30  C   UNL     1       5.250  -6.278  23.295  0.00  0.00    +0.214 C 
BRANCH  30  31
ATOM     31  O   UNL     1       4.875  -6.077  21.914  0.00  0.00    -0.383 OA
ATOM     32  H   UNL     1       5.447  -6.652  21.360  0.00  0.00    +0.210 HD
ENDBRANCH  30  31
BRANCH  29  33
ATOM     33  O   UNL     1       4.427  -7.275  25.399  0.00  0.00    -0.386 OA
ATOM     34  H   UNL     1       5.125  -7.956  25.444  0.00  0.00    +0.210 HD
ENDBRANCH  29  33
BRANCH  28  35
ATOM     35  O   UNL     1       2.374  -5.993  22.610  0.00  0.00    -0.386 OA
ATOM     36  H   UNL     1       3.119  -5.749  22.020  0.00  0.00    +0.210 HD
ENDBRANCH  28  35
BRANCH  27  37
ATOM     37  C   UNL     1       2.694  -4.456  25.913  0.00  0.00    +0.190 C 
BRANCH  37  38
ATOM     38  O   UNL     1       2.204  -5.668  26.489  0.00  0.00    -0.392 OA
ATOM     39  H   UNL     1       1.297  -5.512  26.803  0.00  0.00    +0.210 HD
ENDBRANCH  37  38
ENDBRANCH  27  37
ENDBRANCH  24  25
ENDBRANCH  11  24
BRANCH   7  40
ATOM     40  O   UNL     1      10.067   1.850  24.732  0.00  0.00    -0.461 OA
BRANCH  40  41
ATOM     41  C   UNL     1       9.674   2.663  23.610  0.00  0.00    +0.339 C 
ATOM     42  O   UNL     1       9.682   4.054  23.921  0.00  0.00    -0.331 OA
ATOM     43  C   UNL     1       8.434   4.695  24.210  0.00  0.00    +0.179 C 
ATOM     44  C   UNL     1       7.381   4.362  23.142  0.00  0.00    +0.177 C 
ATOM     45  C   UNL     1       7.120   2.855  23.096  0.00  0.00    +0.180 C 
ATOM     46  C   UNL     1       8.434   2.096  22.864  0.00  0.00    +0.214 C 
BRANCH  46  47
ATOM     47  O   UNL     1       8.699   2.177  21.437  0.00  0.00    -0.383 OA
ATOM     48  H   UNL     1       8.159   2.926  21.104  0.00  0.00    +0.210 HD
ENDBRANCH  46  47
BRANCH  45  49
ATOM     49  O   UNL     1       6.398   2.446  24.253  0.00  0.00    -0.386 OA
ATOM     50  H   UNL     1       5.779   3.149  24.521  0.00  0.00    +0.210 HD
ENDBRANCH  45  49
BRANCH  44  51
ATOM     51  O   UNL     1       7.870   4.799  21.860  0.00  0.00    -0.386 OA
ATOM     52  H   UNL     1       7.102   4.859  21.261  0.00  0.00    +0.210 HD
ENDBRANCH  44  51
BRANCH  43  53
ATOM     53  C   UNL     1       7.944   4.455  25.651  0.00  0.00    +0.190 C 
BRANCH  53  54
ATOM     54  O   UNL     1       6.633   4.971  25.862  0.00  0.00    -0.392 OA
ATOM     55  H   UNL     1       6.709   5.901  26.127  0.00  0.00    +0.210 HD
ENDBRANCH  53  54
ENDBRANCH  43  53
ENDBRANCH  40  41
ENDBRANCH   7  40
TORSDOF 18
ENDMDL
MODEL 2
REMARK VINA RESULT:      -6.7      2.343      9.475
REMARK  Name = 
REMARK  18 active torsions:
REMARK  status: ('A' for Active; 'I' for Inactive)
REMARK    1  A    between atoms: C_3  and  O_54
REMARK    2  A    between atoms: C_4  and  O_53
REMARK    3  A    between atoms: C_6  and  C_7
REMARK    4  A    between atoms: C_8  and  O_36
REMARK    5  A    between atoms: C_12  and  O_35
REMARK    6  A    between atoms: C_14  and  O_18
REMARK    7  A    between atoms: O_18  and  C_19
REMARK    8  A    between atoms: C_21  and  O_34
REMARK    9  A    between atoms: C_23  and  O_33
REMARK   10  A    between atoms: C_25  and  O_32
REMARK   11  A    between atoms: C_27  and  C_30
REMARK   12  A    between atoms: C_30  and  O_31
REMARK   13  A    between atoms: O_36  and  C_37
REMARK   14  A    between atoms: C_39  and  O_52
REMARK   15  A    between atoms: C_41  and  O_51
REMARK   16  A    between atoms: C_43  and  O_50
REMARK   17  A    between atoms: C_45  and  C_48
REMARK   18  A    between atoms: C_48  and  O_49
REMARK                            x       y       z     vdW  Elec       q    Type
REMARK                         _______ _______ _______ _____ _____    ______ ____
ROOT
ATOM      1  C   UNL     1       6.668   1.926  23.144  0.00  0.00    +0.181 A 
ATOM      2  O   UNL     1       6.236   0.645  23.480  0.00  0.00    -0.451 OA
ATOM      3  C   UNL     1       7.099  -0.414  23.364  0.00  0.00    +0.147 A 
ATOM      4  C   UNL     1       8.279  -0.336  22.663  0.00  0.00    +0.109 A 
ATOM      5  C   UNL     1       9.020  -1.508  22.452  0.00  0.00    +0.135 A 
ATOM      6  C   UNL     1       8.587  -2.737  22.966  0.00  0.00    +0.092 A 
ATOM      7  C   UNL     1       7.398  -2.806  23.703  0.00  0.00    +0.131 A 
ATOM      8  C   UNL     1       8.715   0.992  22.198  0.00  0.00    +0.238 A 
ATOM      9  O   UNL     1       9.712   1.101  21.494  0.00  0.00    -0.283 OA
ATOM     10  C   UNL     1       6.690  -1.620  23.937  0.00  0.00    +0.093 A 
ATOM     11  C   UNL     1       7.909   2.176  22.655  0.00  0.00    +0.214 A 
ENDROOT
BRANCH   1  13
ATOM     12  C   UNL     1       4.805   2.840  24.585  0.00  0.00    +0.015 A 
ATOM     13  C   UNL     1       5.601   2.945  23.421  0.00  0.00    +0.025 A 
ATOM     14  C   UNL     1       5.319   4.011  22.546  0.00  0.00    +0.060 A 
ATOM     15  C   UNL     1       4.338   4.946  22.858  0.00  0.00    +0.159 A 
ATOM     16  C   UNL     1       3.544   4.798  23.986  0.00  0.00    +0.158 A 
ATOM     17  C   UNL     1       3.770   3.746  24.860  0.00  0.00    +0.050 A 
BRANCH  16  18
ATOM     18  O   UNL     1       2.541   5.703  24.184  0.00  0.00    -0.503 OA
ATOM     19  H   UNL     1       2.196   5.961  23.312  0.00  0.00    +0.292 HD
ENDBRANCH  16  18
BRANCH  15  20
ATOM     20  O   UNL     1       4.159   6.021  22.035  0.00  0.00    -0.503 OA
ATOM     21  H   UNL     1       4.561   5.756  21.185  0.00  0.00    +0.292 HD
ENDBRANCH  15  20
ENDBRANCH   1  13
BRANCH   5  22
ATOM     22  O   UNL     1      10.193  -1.517  21.730  0.00  0.00    -0.506 OA
ATOM     23  H   UNL     1      10.837  -2.099  22.193  0.00  0.00    +0.292 HD
ENDBRANCH   5  22
BRANCH  11  24
ATOM     24  O   UNL     1       8.524   3.426  22.531  0.00  0.00    -0.453 OA
BRANCH  24  25
ATOM     25  C   UNL     1       9.418   3.719  23.624  0.00  0.00    +0.340 C 
ATOM     26  O   UNL     1       8.712   3.917  24.850  0.00  0.00    -0.331 OA
ATOM     27  C   UNL     1       8.518   5.213  25.431  0.00  0.00    +0.179 C 
ATOM     28  C   UNL     1       9.416   6.360  24.936  0.00  0.00    +0.177 C 
ATOM     29  C   UNL     1       9.803   6.193  23.466  0.00  0.00    +0.180 C 
ATOM     30  C   UNL     1      10.430   4.814  23.272  0.00  0.00    +0.214 C 
BRANCH  30  31
ATOM     31  O   UNL     1      11.600   4.685  24.110  0.00  0.00    -0.383 OA
ATOM     32  H   UNL     1      11.343   4.927  25.025  0.00  0.00    +0.210 HD
ENDBRANCH  30  31
BRANCH  29  33
ATOM     33  O   UNL     1       8.693   6.440  22.610  0.00  0.00    -0.386 OA
ATOM     34  H   UNL     1       7.852   6.403  23.105  0.00  0.00    +0.210 HD
ENDBRANCH  29  33
BRANCH  28  35
ATOM     35  O   UNL     1      10.588   6.400  25.779  0.00  0.00    -0.386 OA
ATOM     36  H   UNL     1      10.571   7.231  26.301  0.00  0.00    +0.210 HD
ENDBRANCH  28  35
BRANCH  27  37
ATOM     37  C   UNL     1       7.035   5.620  25.401  0.00  0.00    +0.190 C 
BRANCH  37  38
ATOM     38  O   UNL     1       6.834   6.901  24.801  0.00  0.00    -0.392 OA
ATOM     39  H   UNL     1       6.180   6.805  24.088  0.00  0.00    +0.210 HD
ENDBRANCH  37  38
ENDBRANCH  27  37
ENDBRANCH  24  25
ENDBRANCH  11  24
BRANCH   7  40
ATOM     40  O   UNL     1       6.999  -4.064  24.122  0.00  0.00    -0.461 OA
BRANCH  40  41
ATOM     41  C   UNL     1       6.103  -4.748  23.225  0.00  0.00    +0.339 C 
ATOM     42  O   UNL     1       4.867  -4.055  23.062  0.00  0.00    -0.331 OA
ATOM     43  C   UNL     1       3.725  -4.517  23.792  0.00  0.00    +0.179 C 
ATOM     44  C   UNL     1       3.544  -6.035  23.634  0.00  0.00    +0.177 C 
ATOM     45  C   UNL     1       4.765  -6.781  24.177  0.00  0.00    +0.180 C 
ATOM     46  C   UNL     1       6.043  -6.278  23.490  0.00  0.00    +0.214 C 
BRANCH  46  47
ATOM     47  O   UNL     1       6.099  -6.953  22.204  0.00  0.00    -0.383 OA
ATOM     48  H   UNL     1       6.718  -7.706  22.320  0.00  0.00    +0.210 HD
ENDBRANCH  46  47
BRANCH  45  49
ATOM     49  O   UNL     1       4.792  -6.709  25.599  0.00  0.00    -0.386 OA
ATOM     50  H   UNL     1       5.703  -6.841  25.919  0.00  0.00    +0.210 HD
ENDBRANCH  45  49
BRANCH  44  51
ATOM     51  O   UNL     1       3.386  -6.337  22.235  0.00  0.00    -0.386 OA
ATOM     52  H   UNL     1       4.274  -6.316  21.832  0.00  0.00    +0.210 HD
ENDBRANCH  44  51
BRANCH  43  53
ATOM     53  C   UNL     1       3.706  -4.047  25.259  0.00  0.00    +0.190 C 
BRANCH  53  54
ATOM     54  O   UNL     1       3.576  -2.631  25.365  0.00  0.00    -0.392 OA
ATOM     55  H   UNL     1       3.938  -2.230  24.559  0.00  0.00    +0.210 HD
ENDBRANCH  53  54
ENDBRANCH  43  53
ENDBRANCH  40  41
ENDBRANCH   7  40
TORSDOF 18
ENDMDL
MODEL 3
REMARK VINA RESULT:      -6.7      1.485      2.448
REMARK  Name = 
REMARK  18 active torsions:
REMARK  status: ('A' for Active; 'I' for Inactive)
REMARK    1  A    between atoms: C_3  and  O_54
REMARK    2  A    between atoms: C_4  and  O_53
REMARK    3  A    between atoms: C_6  and  C_7
REMARK    4  A    between atoms: C_8  and  O_36
REMARK    5  A    between atoms: C_12  and  O_35
REMARK    6  A    between atoms: C_14  and  O_18
REMARK    7  A    between atoms: O_18  and  C_19
REMARK    8  A    between atoms: C_21  and  O_34
REMARK    9  A    between atoms: C_23  and  O_33
REMARK   10  A    between atoms: C_25  and  O_32
REMARK   11  A    between atoms: C_27  and  C_30
REMARK   12  A    between atoms: C_30  and  O_31
REMARK   13  A    between atoms: O_36  and  C_37
REMARK   14  A    between atoms: C_39  and  O_52
REMARK   15  A    between atoms: C_41  and  O_51
REMARK   16  A    between atoms: C_43  and  O_50
REMARK   17  A    between atoms: C_45  and  C_48
REMARK   18  A    between atoms: C_48  and  O_49
REMARK                            x       y       z     vdW  Elec       q    Type
REMARK                         _______ _______ _______ _____ _____    ______ ____
ROOT
ATOM      1  C   UNL     1       6.732  -2.210  25.231  0.00  0.00    +0.181 A 
ATOM      2  O   UNL     1       6.789  -0.819  25.169  0.00  0.00    -0.451 OA
ATOM      3  C   UNL     1       7.342  -0.211  24.071  0.00  0.00    +0.147 A 
ATOM      4  C   UNL     1       8.106  -0.892  23.153  0.00  0.00    +0.109 A 
ATOM      5  C   UNL     1       8.771  -0.165  22.154  0.00  0.00    +0.135 A 
ATOM      6  C   UNL     1       8.644   1.227  22.070  0.00  0.00    +0.092 A 
ATOM      7  C   UNL     1       7.843   1.913  22.993  0.00  0.00    +0.131 A 
ATOM      8  C   UNL     1       8.154  -2.360  23.253  0.00  0.00    +0.238 A 
ATOM      9  O   UNL     1       8.890  -3.004  22.514  0.00  0.00    -0.283 OA
ATOM     10  C   UNL     1       7.155   1.168  23.960  0.00  0.00    +0.093 A 
ATOM     11  C   UNL     1       7.247  -3.008  24.262  0.00  0.00    +0.214 A 
ENDROOT
BRANCH   1  13
ATOM     12  C   UNL     1       4.970  -1.886  27.013  0.00  0.00    +0.015 A 
ATOM     13  C   UNL     1       6.018  -2.665  26.471  0.00  0.00    +0.025 A 
ATOM     14  C   UNL     1       6.367  -3.840  27.162  0.00  0.00    +0.060 A 
ATOM     15  C   UNL     1       5.659  -4.237  28.293  0.00  0.00    +0.159 A 
ATOM     16  C   UNL     1       4.661  -3.435  28.827  0.00  0.00    +0.158 A 
ATOM     17  C   UNL     1       4.306  -2.255  28.192  0.00  0.00    +0.050 A 
BRANCH  16  18
ATOM     18  O   UNL     1       4.069  -3.840  29.988  0.00  0.00    -0.503 OA
ATOM     19  H   UNL     1       3.813  -4.773  29.882  0.00  0.00    +0.292 HD
ENDBRANCH  16  18
BRANCH  15  20
ATOM     20  O   UNL     1       5.960  -5.432  28.881  0.00  0.00    -0.503 OA
ATOM     21  H   UNL     1       5.302  -6.060  28.523  0.00  0.00    +0.292 HD
ENDBRANCH  15  20
ENDBRANCH   1  13
BRANCH   5  22
ATOM     22  O   UNL     1       9.582  -0.771  21.220  0.00  0.00    -0.506 OA
ATOM     23  H   UNL     1      10.388  -1.101  21.678  0.00  0.00    +0.292 HD
ENDBRANCH   5  22
BRANCH  11  24
ATOM     24  O   UNL     1       7.022  -4.379  24.100  0.00  0.00    -0.453 OA
BRANCH  24  25
ATOM     25  C   UNL     1       6.106  -4.670  23.024  0.00  0.00    +0.340 C 
ATOM     26  O   UNL     1       4.905  -3.902  23.126  0.00  0.00    -0.331 OA
ATOM     27  C   UNL     1       3.660  -4.465  23.556  0.00  0.00    +0.179 C 
ATOM     28  C   UNL     1       3.523  -5.997  23.532  0.00  0.00    +0.177 C 
ATOM     29  C   UNL     1       4.854  -6.698  23.806  0.00  0.00    +0.180 C 
ATOM     30  C   UNL     1       5.900  -6.175  22.825  0.00  0.00    +0.214 C 
BRANCH  30  31
ATOM     31  O   UNL     1       5.474  -6.433  21.468  0.00  0.00    -0.383 OA
ATOM     32  H   UNL     1       6.263  -6.374  20.888  0.00  0.00    +0.210 HD
ENDBRANCH  30  31
BRANCH  29  33
ATOM     33  O   UNL     1       5.235  -6.565  25.171  0.00  0.00    -0.386 OA
ATOM     34  H   UNL     1       6.067  -6.061  25.255  0.00  0.00    +0.210 HD
ENDBRANCH  29  33
BRANCH  28  35
ATOM     35  O   UNL     1       2.994  -6.374  22.242  0.00  0.00    -0.386 OA
ATOM     36  H   UNL     1       3.745  -6.549  21.634  0.00  0.00    +0.210 HD
ENDBRANCH  28  35
BRANCH  27  37
ATOM     37  C   UNL     1       3.233  -3.893  24.919  0.00  0.00    +0.190 C 
BRANCH  37  38
ATOM     38  O   UNL     1       2.925  -4.916  25.867  0.00  0.00    -0.392 OA
ATOM     39  H   UNL     1       2.019  -5.227  25.697  0.00  0.00    +0.210 HD
ENDBRANCH  37  38
ENDBRANCH  27  37
ENDBRANCH  24  25
ENDBRANCH  11  24
BRANCH   7  40
ATOM     40  O   UNL     1       7.818   3.294  22.889  0.00  0.00    -0.461 OA
BRANCH  40  41
ATOM     41  C   UNL     1       7.378   3.985  24.073  0.00  0.00    +0.339 C 
ATOM     42  O   UNL     1       6.527   5.088  23.770  0.00  0.00    -0.331 OA
ATOM     43  C   UNL     1       7.087   6.406  23.788  0.00  0.00    +0.179 C 
ATOM     44  C   UNL     1       7.888   6.649  25.077  0.00  0.00    +0.177 C 
ATOM     45  C   UNL     1       9.048   5.658  25.184  0.00  0.00    +0.180 C 
ATOM     46  C   UNL     1       8.526   4.217  25.093  0.00  0.00    +0.214 C 
BRANCH  46  47
ATOM     47  O   UNL     1       8.018   3.891  26.416  0.00  0.00    -0.383 OA
ATOM     48  H   UNL     1       7.162   3.433  26.271  0.00  0.00    +0.210 HD
ENDBRANCH  46  47
BRANCH  45  49
ATOM     49  O   UNL     1      10.058   5.981  24.233  0.00  0.00    -0.386 OA
ATOM     50  H   UNL     1       9.663   6.063  23.346  0.00  0.00    +0.210 HD
ENDBRANCH  45  49
BRANCH  44  51
ATOM     51  O   UNL     1       7.009   6.475  26.205  0.00  0.00    -0.386 OA
ATOM     52  H   UNL     1       7.538   6.624  27.011  0.00  0.00    +0.210 HD
ENDBRANCH  44  51
BRANCH  43  53
ATOM     53  C   UNL     1       7.867   6.756  22.507  0.00  0.00    +0.190 C 
BRANCH  53  54
ATOM     54  O   UNL     1       7.450   5.967  21.395  0.00  0.00    -0.392 OA
ATOM     55  H   UNL     1       6.481   5.976  21.361  0.00  0.00    +0.210 HD
ENDBRANCH  53  54
ENDBRANCH  43  53
ENDBRANCH  40  41
ENDBRANCH   7  40
TORSDOF 18
ENDMDL
MODEL 4
REMARK VINA RESULT:      -6.7      2.358      4.846
REMARK  Name = 
REMARK  18 active torsions:
REMARK  status: ('A' for Active; 'I' for Inactive)
REMARK    1  A    between atoms: C_3  and  O_54
REMARK    2  A    between atoms: C_4  and  O_53
REMARK    3  A    between atoms: C_6  and  C_7
REMARK    4  A    between atoms: C_8  and  O_36
REMARK    5  A    between atoms: C_12  and  O_35
REMARK    6  A    between atoms: C_14  and  O_18
REMARK    7  A    between atoms: O_18  and  C_19
REMARK    8  A    between atoms: C_21  and  O_34
REMARK    9  A    between atoms: C_23  and  O_33
REMARK   10  A    between atoms: C_25  and  O_32
REMARK   11  A    between atoms: C_27  and  C_30
REMARK   12  A    between atoms: C_30  and  O_31
REMARK   13  A    between atoms: O_36  and  C_37
REMARK   14  A    between atoms: C_39  and  O_52
REMARK   15  A    between atoms: C_41  and  O_51
REMARK   16  A    between atoms: C_43  and  O_50
REMARK   17  A    between atoms: C_45  and  C_48
REMARK   18  A    between atoms: C_48  and  O_49
REMARK                            x       y       z     vdW  Elec       q    Type
REMARK                         _______ _______ _______ _____ _____    ______ ____
ROOT
ATOM      1  C   UNL     1       5.652  -2.531  25.313  0.00  0.00    +0.181 A 
ATOM      2  O   UNL     1       5.668  -1.332  24.603  0.00  0.00    -0.451 OA
ATOM      3  C   UNL     1       5.577  -0.142  25.278  0.00  0.00    +0.147 A 
ATOM      4  C   UNL     1       5.181  -0.064  26.592  0.00  0.00    +0.109 A 
ATOM      5  C   UNL     1       4.952   1.201  27.155  0.00  0.00    +0.135 A 
ATOM      6  C   UNL     1       5.148   2.369  26.408  0.00  0.00    +0.092 A 
ATOM      7  C   UNL     1       5.577   2.284  25.078  0.00  0.00    +0.131 A 
ATOM      8  C   UNL     1       5.050  -1.322  27.346  0.00  0.00    +0.238 A 
ATOM      9  O   UNL     1       4.614  -1.310  28.492  0.00  0.00    -0.283 OA
ATOM     10  C   UNL     1       5.838   1.016  24.542  0.00  0.00    +0.093 A 
ATOM     11  C   UNL     1       5.502  -2.582  26.661  0.00  0.00    +0.214 A 
ENDROOT
BRANCH   1  13
ATOM     12  C   UNL     1       7.150  -4.155  24.089  0.00  0.00    +0.015 A 
ATOM     13  C   UNL     1       5.846  -3.704  24.396  0.00  0.00    +0.025 A 
ATOM     14  C   UNL     1       4.773  -4.376  23.783  0.00  0.00    +0.060 A 
ATOM     15  C   UNL     1       5.000  -5.476  22.961  0.00  0.00    +0.159 A 
ATOM     16  C   UNL     1       6.291  -5.875  22.643  0.00  0.00    +0.158 A 
ATOM     17  C   UNL     1       7.376  -5.221  23.205  0.00  0.00    +0.050 A 
BRANCH  16  18
ATOM     18  O   UNL     1       6.441  -6.905  21.760  0.00  0.00    -0.503 OA
ATOM     19  H   UNL     1       7.392  -7.103  21.693  0.00  0.00    +0.292 HD
ENDBRANCH  16  18
BRANCH  15  20
ATOM     20  O   UNL     1       3.932  -6.165  22.461  0.00  0.00    -0.503 OA
ATOM     21  H   UNL     1       3.228  -6.054  23.130  0.00  0.00    +0.292 HD
ENDBRANCH  15  20
ENDBRANCH   1  13
BRANCH   5  22
ATOM     22  O   UNL     1       4.520   1.360  28.453  0.00  0.00    -0.506 OA
ATOM     23  H   UNL     1       3.991   2.188  28.504  0.00  0.00    +0.292 HD
ENDBRANCH   5  22
BRANCH  11  24
ATOM     24  O   UNL     1       5.724  -3.688  27.487  0.00  0.00    -0.453 OA
BRANCH  24  25
ATOM     25  C   UNL     1       4.753  -4.736  27.289  0.00  0.00    +0.340 C 
ATOM     26  O   UNL     1       3.565  -4.510  28.050  0.00  0.00    -0.331 OA
ATOM     27  C   UNL     1       3.254  -5.249  29.237  0.00  0.00    +0.179 C 
ATOM     28  C   UNL     1       4.011  -6.566  29.478  0.00  0.00    +0.177 C 
ATOM     29  C   UNL     1       5.431  -6.525  28.912  0.00  0.00    +0.180 C 
ATOM     30  C   UNL     1       5.365  -6.132  27.437  0.00  0.00    +0.214 C 
BRANCH  30  31
ATOM     31  O   UNL     1       4.568  -7.094  26.709  0.00  0.00    -0.383 OA
ATOM     32  H   UNL     1       5.064  -7.346  25.901  0.00  0.00    +0.210 HD
ENDBRANCH  30  31
BRANCH  29  33
ATOM     33  O   UNL     1       6.272  -5.680  29.689  0.00  0.00    -0.386 OA
ATOM     34  H   UNL     1       5.829  -4.834  29.891  0.00  0.00    +0.210 HD
ENDBRANCH  29  33
BRANCH  28  35
ATOM     35  O   UNL     1       3.245  -7.633  28.879  0.00  0.00    -0.386 OA
ATOM     36  H   UNL     1       3.682  -8.488  29.085  0.00  0.00    +0.210 HD
ENDBRANCH  28  35
BRANCH  27  37
ATOM     37  C   UNL     1       3.305  -4.347  30.483  0.00  0.00    +0.190 C 
BRANCH  37  38
ATOM     38  O   UNL     1       4.426  -3.462  30.468  0.00  0.00    -0.392 OA
ATOM     39  H   UNL     1       5.030  -3.723  31.184  0.00  0.00    +0.210 HD
ENDBRANCH  37  38
ENDBRANCH  27  37
ENDBRANCH  24  25
ENDBRANCH  11  24
BRANCH   7  40
ATOM     40  O   UNL     1       5.684   3.476  24.381  0.00  0.00    -0.461 OA
BRANCH  40  41
ATOM     41  C   UNL     1       7.023   3.837  23.995  0.00  0.00    +0.339 C 
ATOM     42  O   UNL     1       7.601   4.797  24.877  0.00  0.00    -0.331 OA
ATOM     43  C   UNL     1       7.625   6.170  24.468  0.00  0.00    +0.179 C 
ATOM     44  C   UNL     1       8.176   6.313  23.041  0.00  0.00    +0.177 C 
ATOM     45  C   UNL     1       7.294   5.556  22.046  0.00  0.00    +0.180 C 
ATOM     46  C   UNL     1       7.160   4.086  22.467  0.00  0.00    +0.214 C 
BRANCH  46  47
ATOM     47  O   UNL     1       8.374   3.427  22.017  0.00  0.00    -0.383 OA
ATOM     48  H   UNL     1       8.425   3.583  21.049  0.00  0.00    +0.210 HD
ENDBRANCH  46  47
BRANCH  45  49
ATOM     49  O   UNL     1       6.055   6.236  21.873  0.00  0.00    -0.386 OA
ATOM     50  H   UNL     1       5.444   5.683  21.353  0.00  0.00    +0.210 HD
ENDBRANCH  45  49
BRANCH  44  51
ATOM     51  O   UNL     1       9.509   5.768  23.004  0.00  0.00    -0.386 OA
ATOM     52  H   UNL     1      10.118   6.503  22.804  0.00  0.00    +0.210 HD
ENDBRANCH  44  51
BRANCH  43  53
ATOM     53  C   UNL     1       6.283   6.895  24.683  0.00  0.00    +0.190 C 
BRANCH  53  54
ATOM     54  O   UNL     1       5.470   6.239  25.653  0.00  0.00    -0.392 OA
ATOM     55  H   UNL     1       5.611   5.282  25.573  0.00  0.00    +0.210 HD
ENDBRANCH  53  54
ENDBRANCH  43  53
ENDBRANCH  40  41
ENDBRANCH   7  40
TORSDOF 18
ENDMDL
MODEL 5
REMARK VINA RESULT:      -6.7      2.106      4.937
REMARK  Name = 
REMARK  18 active torsions:
REMARK  status: ('A' for Active; 'I' for Inactive)
REMARK    1  A    between atoms: C_3  and  O_54
REMARK    2  A    between atoms: C_4  and  O_53
REMARK    3  A    between atoms: C_6  and  C_7
REMARK    4  A    between atoms: C_8  and  O_36
REMARK    5  A    between atoms: C_12  and  O_35
REMARK    6  A    between atoms: C_14  and  O_18
REMARK    7  A    between atoms: O_18  and  C_19
REMARK    8  A    between atoms: C_21  and  O_34
REMARK    9  A    between atoms: C_23  and  O_33
REMARK   10  A    between atoms: C_25  and  O_32
REMARK   11  A    between atoms: C_27  and  C_30
REMARK   12  A    between atoms: C_30  and  O_31
REMARK   13  A    between atoms: O_36  and  C_37
REMARK   14  A    between atoms: C_39  and  O_52
REMARK   15  A    between atoms: C_41  and  O_51
REMARK   16  A    between atoms: C_43  and  O_50
REMARK   17  A    between atoms: C_45  and  C_48
REMARK   18  A    between atoms: C_48  and  O_49
REMARK                            x       y       z     vdW  Elec       q    Type
REMARK                         _______ _______ _______ _____ _____    ______ ____
ROOT
ATOM      1  C   UNL     1       5.702  -1.943  24.610  0.00  0.00    +0.181 A 
ATOM      2  O   UNL     1       6.521  -0.903  24.177  0.00  0.00    -0.451 OA
ATOM      3  C   UNL     1       6.629   0.236  24.934  0.00  0.00    +0.147 A 
ATOM      4  C   UNL     1       5.756   0.535  25.953  0.00  0.00    +0.109 A 
ATOM      5  C   UNL     1       5.836   1.795  26.564  0.00  0.00    +0.135 A 
ATOM      6  C   UNL     1       6.802   2.728  26.169  0.00  0.00    +0.092 A 
ATOM      7  C   UNL     1       7.706   2.408  25.148  0.00  0.00    +0.131 A 
ATOM      8  C   UNL     1       4.802  -0.507  26.367  0.00  0.00    +0.238 A 
ATOM      9  O   UNL     1       3.946  -0.259  27.209  0.00  0.00    -0.283 OA
ATOM     10  C   UNL     1       7.638   1.132  24.574  0.00  0.00    +0.093 A 
ATOM     11  C   UNL     1       4.956  -1.866  25.742  0.00  0.00    +0.214 A 
ENDROOT
BRANCH   1  13
ATOM     12  C   UNL     1       6.971  -3.352  22.941  0.00  0.00    +0.015 A 
ATOM     13  C   UNL     1       5.790  -3.121  23.684  0.00  0.00    +0.025 A 
ATOM     14  C   UNL     1       4.722  -4.014  23.483  0.00  0.00    +0.060 A 
ATOM     15  C   UNL     1       4.859  -5.108  22.634  0.00  0.00    +0.159 A 
ATOM     16  C   UNL     1       6.014  -5.290  21.886  0.00  0.00    +0.158 A 
ATOM     17  C   UNL     1       7.080  -4.416  22.034  0.00  0.00    +0.050 A 
BRANCH  16  18
ATOM     18  O   UNL     1       6.047  -6.333  21.006  0.00  0.00    -0.503 OA
ATOM     19  H   UNL     1       6.481  -6.022  20.193  0.00  0.00    +0.292 HD
ENDBRANCH  16  18
BRANCH  15  20
ATOM     20  O   UNL     1       3.837  -6.008  22.538  0.00  0.00    -0.503 OA
ATOM     21  H   UNL     1       4.152  -6.679  21.901  0.00  0.00    +0.292 HD
ENDBRANCH  15  20
ENDBRANCH   1  13
BRANCH   5  22
ATOM     22  O   UNL     1       4.974   2.182  27.567  0.00  0.00    -0.506 OA
ATOM     23  H   UNL     1       5.203   1.680  28.382  0.00  0.00    +0.292 HD
ENDBRANCH   5  22
BRANCH  11  24
ATOM     24  O   UNL     1       4.313  -2.923  26.394  0.00  0.00    -0.453 OA
BRANCH  24  25
ATOM     25  C   UNL     1       4.950  -3.281  27.638  0.00  0.00    +0.340 C 
ATOM     26  O   UNL     1       6.344  -3.544  27.464  0.00  0.00    -0.331 OA
ATOM     27  C   UNL     1       6.890  -4.868  27.480  0.00  0.00    +0.179 C 
ATOM     28  C   UNL     1       6.025  -5.990  28.080  0.00  0.00    +0.177 C 
ATOM     29  C   UNL     1       4.532  -5.744  27.863  0.00  0.00    +0.180 C 
ATOM     30  C   UNL     1       4.175  -4.360  28.400  0.00  0.00    +0.214 C 
BRANCH  30  31
ATOM     31  O   UNL     1       4.490  -4.283  29.809  0.00  0.00    -0.383 OA
ATOM     32  H   UNL     1       3.644  -4.250  30.305  0.00  0.00    +0.210 HD
ENDBRANCH  30  31
BRANCH  29  33
ATOM     33  O   UNL     1       4.170  -5.937  26.500  0.00  0.00    -0.386 OA
ATOM     34  H   UNL     1       3.859  -6.849  26.345  0.00  0.00    +0.210 HD
ENDBRANCH  29  33
BRANCH  28  35
ATOM     35  O   UNL     1       6.336  -6.084  29.487  0.00  0.00    -0.386 OA
ATOM     36  H   UNL     1       7.256  -6.412  29.584  0.00  0.00    +0.210 HD
ENDBRANCH  28  35
BRANCH  27  37
ATOM     37  C   UNL     1       7.425  -5.265  26.093  0.00  0.00    +0.190 C 
BRANCH  37  38
ATOM     38  O   UNL     1       8.655  -5.989  26.171  0.00  0.00    -0.392 OA
ATOM     39  H   UNL     1       9.366  -5.360  26.383  0.00  0.00    +0.210 HD
ENDBRANCH  37  38
ENDBRANCH  27  37
ENDBRANCH  24  25
ENDBRANCH  11  24
BRANCH   7  40
ATOM     40  O   UNL     1       8.589   3.404  24.765  0.00  0.00    -0.461 OA
BRANCH  40  41
ATOM     41  C   UNL     1       8.337   3.973  23.466  0.00  0.00    +0.339 C 
ATOM     42  O   UNL     1       9.206   5.066  23.176  0.00  0.00    -0.331 OA
ATOM     43  C   UNL     1       8.701   6.397  23.330  0.00  0.00    +0.179 C 
ATOM     44  C   UNL     1       7.342   6.557  22.630  0.00  0.00    +0.177 C 
ATOM     45  C   UNL     1       6.310   5.605  23.237  0.00  0.00    +0.180 C 
ATOM     46  C   UNL     1       6.822   4.159  23.177  0.00  0.00    +0.214 C 
BRANCH  46  47
ATOM     47  O   UNL     1       6.569   3.700  21.821  0.00  0.00    -0.383 OA
ATOM     48  H   UNL     1       5.603   3.799  21.676  0.00  0.00    +0.210 HD
ENDBRANCH  46  47
BRANCH  45  49
ATOM     49  O   UNL     1       5.940   6.047  24.539  0.00  0.00    -0.386 OA
ATOM     50  H   UNL     1       6.656   6.586  24.921  0.00  0.00    +0.210 HD
ENDBRANCH  45  49
BRANCH  44  51
ATOM     51  O   UNL     1       7.505   6.253  21.232  0.00  0.00    -0.386 OA
ATOM     52  H   UNL     1       8.432   6.447  20.999  0.00  0.00    +0.210 HD
ENDBRANCH  44  51
BRANCH  43  53
ATOM     53  C   UNL     1       8.700   6.886  24.791  0.00  0.00    +0.190 C 
BRANCH  53  54
ATOM     54  O   UNL     1       9.642   6.178  25.592  0.00  0.00    -0.392 OA
ATOM     55  H   UNL     1      10.533   6.483  25.357  0.00  0.00    +0.210 HD
ENDBRANCH  53  54
ENDBRANCH  43  53
ENDBRANCH  40  41
ENDBRANCH   7  40
TORSDOF 18
ENDMDL
MODEL 6
REMARK VINA RESULT:      -6.6      1.420      1.847
REMARK  Name = 
REMARK  18 active torsions:
REMARK  status: ('A' for Active; 'I' for Inactive)
REMARK    1  A    between atoms: C_3  and  O_54
REMARK    2  A    between atoms: C_4  and  O_53
REMARK    3  A    between atoms: C_6  and  C_7
REMARK    4  A    between atoms: C_8  and  O_36
REMARK    5  A    between atoms: C_12  and  O_35
REMARK    6  A    between atoms: C_14  and  O_18
REMARK    7  A    between atoms: O_18  and  C_19
REMARK    8  A    between atoms: C_21  and  O_34
REMARK    9  A    between atoms: C_23  and  O_33
REMARK   10  A    between atoms: C_25  and  O_32
REMARK   11  A    between atoms: C_27  and  C_30
REMARK   12  A    between atoms: C_30  and  O_31
REMARK   13  A    between atoms: O_36  and  C_37
REMARK   14  A    between atoms: C_39  and  O_52
REMARK   15  A    between atoms: C_41  and  O_51
REMARK   16  A    between atoms: C_43  and  O_50
REMARK   17  A    between atoms: C_45  and  C_48
REMARK   18  A    between atoms: C_48  and  O_49
REMARK                            x       y       z     vdW  Elec       q    Type
REMARK                         _______ _______ _______ _____ _____    ______ ____
ROOT
ATOM      1  C   UNL     1       7.045  -2.200  26.175  0.00  0.00    +0.181 A 
ATOM      2  O   UNL     1       7.097  -0.812  26.285  0.00  0.00    -0.451 OA
ATOM      3  C   UNL     1       7.926  -0.096  25.460  0.00  0.00    +0.147 A 
ATOM      4  C   UNL     1       8.925  -0.684  24.722  0.00  0.00    +0.109 A 
ATOM      5  C   UNL     1       9.832   0.138  24.037  0.00  0.00    +0.135 A 
ATOM      6  C   UNL     1       9.713   1.533  24.075  0.00  0.00    +0.092 A 
ATOM      7  C   UNL     1       8.677   2.125  24.807  0.00  0.00    +0.131 A 
ATOM      8  C   UNL     1       8.965  -2.155  24.669  0.00  0.00    +0.238 A 
ATOM      9  O   UNL     1       9.888  -2.726  24.099  0.00  0.00    -0.283 OA
ATOM     10  C   UNL     1       7.757   1.291  25.455  0.00  0.00    +0.093 A 
ATOM     11  C   UNL     1       7.822  -2.895  25.306  0.00  0.00    +0.214 A 
ENDROOT
BRANCH   1  13
ATOM     12  C   UNL     1       4.954  -1.975  27.575  0.00  0.00    +0.015 A 
ATOM     13  C   UNL     1       6.020  -2.778  27.108  0.00  0.00    +0.025 A 
ATOM     14  C   UNL     1       6.081  -4.101  27.581  0.00  0.00    +0.060 A 
ATOM     15  C   UNL     1       5.094  -4.601  28.424  0.00  0.00    +0.159 A 
ATOM     16  C   UNL     1       4.080  -3.781  28.900  0.00  0.00    +0.158 A 
ATOM     17  C   UNL     1       4.000  -2.463  28.480  0.00  0.00    +0.050 A 
BRANCH  16  18
ATOM     18  O   UNL     1       3.196  -4.313  29.794  0.00  0.00    -0.503 OA
ATOM     19  H   UNL     1       2.736  -3.576  30.232  0.00  0.00    +0.292 HD
ENDBRANCH  16  18
BRANCH  15  20
ATOM     20  O   UNL     1       5.131  -5.917  28.785  0.00  0.00    -0.503 OA
ATOM     21  H   UNL     1       5.585  -6.367  28.045  0.00  0.00    +0.292 HD
ENDBRANCH  15  20
ENDBRANCH   1  13
BRANCH   5  22
ATOM     22  O   UNL     1      10.881  -0.375  23.305  0.00  0.00    -0.506 OA
ATOM     23  H   UNL     1      11.635   0.255  23.362  0.00  0.00    +0.292 HD
ENDBRANCH   5  22
BRANCH  11  24
ATOM     24  O   UNL     1       7.672  -4.235  24.937  0.00  0.00    -0.453 OA
BRANCH  24  25
ATOM     25  C   UNL     1       7.121  -4.390  23.612  0.00  0.00    +0.340 C 
ATOM     26  O   UNL     1       5.956  -3.584  23.423  0.00  0.00    -0.331 OA
ATOM     27  C   UNL     1       4.632  -4.131  23.402  0.00  0.00    +0.179 C 
ATOM     28  C   UNL     1       4.488  -5.647  23.187  0.00  0.00    +0.177 C 
ATOM     29  C   UNL     1       5.665  -6.425  23.779  0.00  0.00    +0.180 C 
ATOM     30  C   UNL     1       6.966  -5.861  23.214  0.00  0.00    +0.214 C 
BRANCH  30  31
ATOM     31  O   UNL     1       6.967  -5.979  21.773  0.00  0.00    -0.383 OA
ATOM     32  H   UNL     1       7.365  -5.161  21.404  0.00  0.00    +0.210 HD
ENDBRANCH  30  31
BRANCH  29  33
ATOM     33  O   UNL     1       5.616  -6.431  25.201  0.00  0.00    -0.386 OA
ATOM     34  H   UNL     1       6.084  -5.659  25.572  0.00  0.00    +0.210 HD
ENDBRANCH  29  33
BRANCH  28  35
ATOM     35  O   UNL     1       4.371  -5.884  21.768  0.00  0.00    -0.386 OA
ATOM     36  H   UNL     1       5.004  -5.299  21.298  0.00  0.00    +0.210 HD
ENDBRANCH  28  35
BRANCH  27  37
ATOM     37  C   UNL     1       3.819  -3.665  24.623  0.00  0.00    +0.190 C 
BRANCH  37  38
ATOM     38  O   UNL     1       3.229  -4.756  25.332  0.00  0.00    -0.392 OA
ATOM     39  H   UNL     1       3.929  -5.400  25.538  0.00  0.00    +0.210 HD
ENDBRANCH  37  38
ENDBRANCH  27  37
ENDBRANCH  24  25
ENDBRANCH  11  24
BRANCH   7  40
ATOM     40  O   UNL     1       8.662   3.509  24.854  0.00  0.00    -0.461 OA
BRANCH  40  41
ATOM     41  C   UNL     1       8.483   4.159  23.582  0.00  0.00    +0.339 C 
ATOM     42  O   UNL     1       9.333   5.294  23.430  0.00  0.00    -0.331 OA
ATOM     43  C   UNL     1       8.775   6.596  23.635  0.00  0.00    +0.179 C 
ATOM     44  C   UNL     1       7.464   6.766  22.852  0.00  0.00    +0.177 C 
ATOM     45  C   UNL     1       6.424   5.745  23.318  0.00  0.00    +0.180 C 
ATOM     46  C   UNL     1       6.986   4.322  23.197  0.00  0.00    +0.214 C 
BRANCH  46  47
ATOM     47  O   UNL     1       6.845   3.951  21.799  0.00  0.00    -0.383 OA
ATOM     48  H   UNL     1       7.727   3.631  21.513  0.00  0.00    +0.210 HD
ENDBRANCH  46  47
BRANCH  45  49
ATOM     49  O   UNL     1       5.950   6.085  24.617  0.00  0.00    -0.386 OA
ATOM     50  H   UNL     1       5.028   5.785  24.721  0.00  0.00    +0.210 HD
ENDBRANCH  45  49
BRANCH  44  51
ATOM     51  O   UNL     1       7.734   6.565  21.452  0.00  0.00    -0.386 OA
ATOM     52  H   UNL     1       8.591   6.103  21.385  0.00  0.00    +0.210 HD
ENDBRANCH  44  51
BRANCH  43  53
ATOM     53  C   UNL     1       8.655   6.982  25.122  0.00  0.00    +0.190 C 
BRANCH  53  54
ATOM     54  O   UNL     1       9.395   6.102  25.964  0.00  0.00    -0.392 OA
ATOM     55  H   UNL     1       8.930   6.026  26.812  0.00  0.00    +0.210 HD
ENDBRANCH  53  54
ENDBRANCH  43  53
ENDBRANCH  40  41
ENDBRANCH   7  40
TORSDOF 18
ENDMDL
MODEL 7
REMARK VINA RESULT:      -6.5      2.277      9.569
REMARK  Name = 
REMARK  18 active torsions:
REMARK  status: ('A' for Active; 'I' for Inactive)
REMARK    1  A    between atoms: C_3  and  O_54
REMARK    2  A    between atoms: C_4  and  O_53
REMARK    3  A    between atoms: C_6  and  C_7
REMARK    4  A    between atoms: C_8  and  O_36
REMARK    5  A    between atoms: C_12  and  O_35
REMARK    6  A    between atoms: C_14  and  O_18
REMARK    7  A    between atoms: O_18  and  C_19
REMARK    8  A    between atoms: C_21  and  O_34
REMARK    9  A    between atoms: C_23  and  O_33
REMARK   10  A    between atoms: C_25  and  O_32
REMARK   11  A    between atoms: C_27  and  C_30
REMARK   12  A    between atoms: C_30  and  O_31
REMARK   13  A    between atoms: O_36  and  C_37
REMARK   14  A    between atoms: C_39  and  O_52
REMARK   15  A    between atoms: C_41  and  O_51
REMARK   16  A    between atoms: C_43  and  O_50
REMARK   17  A    between atoms: C_45  and  C_48
REMARK   18  A    between atoms: C_48  and  O_49
REMARK                            x       y       z     vdW  Elec       q    Type
REMARK                         _______ _______ _______ _____ _____    ______ ____
ROOT
ATOM      1  C   UNL     1       6.591   2.405  22.872  0.00  0.00    +0.181 A 
ATOM      2  O   UNL     1       6.125   1.110  23.087  0.00  0.00    -0.451 OA
ATOM      3  C   UNL     1       7.000   0.056  23.033  0.00  0.00    +0.147 A 
ATOM      4  C   UNL     1       8.260   0.165  22.495  0.00  0.00    +0.109 A 
ATOM      5  C   UNL     1       9.027  -0.997  22.326  0.00  0.00    +0.135 A 
ATOM      6  C   UNL     1       8.536  -2.248  22.720  0.00  0.00    +0.092 A 
ATOM      7  C   UNL     1       7.262  -2.350  23.292  0.00  0.00    +0.131 A 
ATOM      8  C   UNL     1       8.747   1.513  22.155  0.00  0.00    +0.238 A 
ATOM      9  O   UNL     1       9.826   1.654  21.591  0.00  0.00    -0.283 OA
ATOM     10  C   UNL     1       6.524  -1.176  23.490  0.00  0.00    +0.093 A 
ATOM     11  C   UNL     1       7.884   2.676  22.560  0.00  0.00    +0.214 A 
ENDROOT
BRANCH   1  13
ATOM     12  C   UNL     1       4.397   3.119  23.902  0.00  0.00    +0.015 A 
ATOM     13  C   UNL     1       5.493   3.412  23.058  0.00  0.00    +0.025 A 
ATOM     14  C   UNL     1       5.476   4.652  22.393  0.00  0.00    +0.060 A 
ATOM     15  C   UNL     1       4.450   5.565  22.617  0.00  0.00    +0.159 A 
ATOM     16  C   UNL     1       3.367   5.237  23.419  0.00  0.00    +0.158 A 
ATOM     17  C   UNL     1       3.330   4.014  24.070  0.00  0.00    +0.050 A 
BRANCH  16  18
ATOM     18  O   UNL     1       2.352   6.145  23.524  0.00  0.00    -0.503 OA
ATOM     19  H   UNL     1       1.913   6.201  22.657  0.00  0.00    +0.292 HD
ENDBRANCH  16  18
BRANCH  15  20
ATOM     20  O   UNL     1       4.517   6.797  22.032  0.00  0.00    -0.503 OA
ATOM     21  H   UNL     1       4.401   6.628  21.076  0.00  0.00    +0.292 HD
ENDBRANCH  15  20
ENDBRANCH   1  13
BRANCH   5  22
ATOM     22  O   UNL     1      10.283  -0.974  21.762  0.00  0.00    -0.506 OA
ATOM     23  H   UNL     1      10.675  -0.084  21.915  0.00  0.00    +0.292 HD
ENDBRANCH   5  22
BRANCH  11  24
ATOM     24  O   UNL     1       8.504   3.929  22.576  0.00  0.00    -0.453 OA
BRANCH  24  25
ATOM     25  C   UNL     1       9.350   4.117  23.730  0.00  0.00    +0.340 C 
ATOM     26  O   UNL     1       8.624   3.967  24.951  0.00  0.00    -0.331 OA
ATOM     27  C   UNL     1       8.251   5.080  25.772  0.00  0.00    +0.179 C 
ATOM     28  C   UNL     1       8.979   6.416  25.539  0.00  0.00    +0.177 C 
ATOM     29  C   UNL     1       9.383   6.601  24.076  0.00  0.00    +0.180 C 
ATOM     30  C   UNL     1      10.197   5.389  23.629  0.00  0.00    +0.214 C 
BRANCH  30  31
ATOM     31  O   UNL     1      11.375   5.257  24.456  0.00  0.00    -0.383 OA
ATOM     32  H   UNL     1      11.333   5.947  25.153  0.00  0.00    +0.210 HD
ENDBRANCH  30  31
BRANCH  29  33
ATOM     33  O   UNL     1       8.248   6.860  23.256  0.00  0.00    -0.386 OA
ATOM     34  H   UNL     1       8.264   6.308  22.451  0.00  0.00    +0.210 HD
ENDBRANCH  29  33
BRANCH  28  35
ATOM     35  O   UNL     1      10.134   6.447  26.404  0.00  0.00    -0.386 OA
ATOM     36  H   UNL     1      10.940   6.331  25.856  0.00  0.00    +0.210 HD
ENDBRANCH  28  35
BRANCH  27  37
ATOM     37  C   UNL     1       6.725   5.276  25.783  0.00  0.00    +0.190 C 
BRANCH  37  38
ATOM     38  O   UNL     1       6.348   6.623  25.493  0.00  0.00    -0.392 OA
ATOM     39  H   UNL     1       6.748   6.877  24.644  0.00  0.00    +0.210 HD
ENDBRANCH  37  38
ENDBRANCH  27  37
ENDBRANCH  24  25
ENDBRANCH  11  24
BRANCH   7  40
ATOM     40  O   UNL     1       6.817  -3.627  23.595  0.00  0.00    -0.461 OA
BRANCH  40  41
ATOM     41  C   UNL     1       7.476  -4.251  24.712  0.00  0.00    +0.339 C 
ATOM     42  O   UNL     1       7.088  -5.613  24.878  0.00  0.00    -0.331 OA
ATOM     43  C   UNL     1       6.120  -5.928  25.886  0.00  0.00    +0.179 C 
ATOM     44  C   UNL     1       6.491  -5.280  27.230  0.00  0.00    +0.177 C 
ATOM     45  C   UNL     1       6.534  -3.757  27.098  0.00  0.00    +0.180 C 
ATOM     46  C   UNL     1       7.499  -3.348  25.977  0.00  0.00    +0.214 C 
BRANCH  46  47
ATOM     47  O   UNL     1       8.833  -3.418  26.549  0.00  0.00    -0.383 OA
ATOM     48  H   UNL     1       9.339  -4.038  25.981  0.00  0.00    +0.210 HD
ENDBRANCH  46  47
BRANCH  45  49
ATOM     49  O   UNL     1       5.215  -3.238  26.961  0.00  0.00    -0.386 OA
ATOM     50  H   UNL     1       4.564  -3.924  27.198  0.00  0.00    +0.210 HD
ENDBRANCH  45  49
BRANCH  44  51
ATOM     51  O   UNL     1       7.789  -5.760  27.630  0.00  0.00    -0.386 OA
ATOM     52  H   UNL     1       7.647  -6.518  28.227  0.00  0.00    +0.210 HD
ENDBRANCH  44  51
BRANCH  43  53
ATOM     53  C   UNL     1       4.670  -5.647  25.450  0.00  0.00    +0.190 C 
BRANCH  53  54
ATOM     54  O   UNL     1       3.748  -5.808  26.525  0.00  0.00    -0.392 OA
ATOM     55  H   UNL     1       2.932  -6.198  26.172  0.00  0.00    +0.210 HD
ENDBRANCH  53  54
ENDBRANCH  43  53
ENDBRANCH  40  41
ENDBRANCH   7  40
TORSDOF 18
ENDMDL
MODEL 8
REMARK VINA RESULT:      -6.5      2.739      9.688
REMARK  Name = 
REMARK  18 active torsions:
REMARK  status: ('A' for Active; 'I' for Inactive)
REMARK    1  A    between atoms: C_3  and  O_54
REMARK    2  A    between atoms: C_4  and  O_53
REMARK    3  A    between atoms: C_6  and  C_7
REMARK    4  A    between atoms: C_8  and  O_36
REMARK    5  A    between atoms: C_12  and  O_35
REMARK    6  A    between atoms: C_14  and  O_18
REMARK    7  A    between atoms: O_18  and  C_19
REMARK    8  A    between atoms: C_21  and  O_34
REMARK    9  A    between atoms: C_23  and  O_33
REMARK   10  A    between atoms: C_25  and  O_32
REMARK   11  A    between atoms: C_27  and  C_30
REMARK   12  A    between atoms: C_30  and  O_31
REMARK   13  A    between atoms: O_36  and  C_37
REMARK   14  A    between atoms: C_39  and  O_52
REMARK   15  A    between atoms: C_41  and  O_51
REMARK   16  A    between atoms: C_43  and  O_50
REMARK   17  A    between atoms: C_45  and  C_48
REMARK   18  A    between atoms: C_48  and  O_49
REMARK                            x       y       z     vdW  Elec       q    Type
REMARK                         _______ _______ _______ _____ _____    ______ ____
ROOT
ATOM      1  C   UNL     1       8.170   2.547  24.588  0.00  0.00    +0.181 A 
ATOM      2  O   UNL     1       8.365   1.275  24.055  0.00  0.00    -0.451 OA
ATOM      3  C   UNL     1       7.387   0.324  24.192  0.00  0.00    +0.147 A 
ATOM      4  C   UNL     1       6.341   0.458  25.074  0.00  0.00    +0.109 A 
ATOM      5  C   UNL     1       5.479  -0.631  25.272  0.00  0.00    +0.135 A 
ATOM      6  C   UNL     1       5.658  -1.829  24.569  0.00  0.00    +0.092 A 
ATOM      7  C   UNL     1       6.709  -1.951  23.652  0.00  0.00    +0.131 A 
ATOM      8  C   UNL     1       6.166   1.760  25.739  0.00  0.00    +0.238 A 
ATOM      9  O   UNL     1       5.304   1.902  26.599  0.00  0.00    -0.283 OA
ATOM     10  C   UNL     1       7.537  -0.842  23.437  0.00  0.00    +0.093 A 
ATOM     11  C   UNL     1       7.058   2.884  25.290  0.00  0.00    +0.214 A 
ENDROOT
BRANCH   1  13
ATOM     12  C   UNL     1      10.443   2.949  23.562  0.00  0.00    +0.015 A 
ATOM     13  C   UNL     1       9.320   3.453  24.257  0.00  0.00    +0.025 A 
ATOM     14  C   UNL     1       9.358   4.807  24.640  0.00  0.00    +0.060 A 
ATOM     15  C   UNL     1      10.434   5.616  24.287  0.00  0.00    +0.159 A 
ATOM     16  C   UNL     1      11.541   5.087  23.639  0.00  0.00    +0.158 A 
ATOM     17  C   UNL     1      11.556   3.751  23.270  0.00  0.00    +0.050 A 
BRANCH  16  18
ATOM     18  O   UNL     1      12.599   5.917  23.404  0.00  0.00    -0.503 OA
ATOM     19  H   UNL     1      12.363   6.801  23.733  0.00  0.00    +0.292 HD
ENDBRANCH  16  18
BRANCH  15  20
ATOM     20  O   UNL     1      10.392   6.946  24.589  0.00  0.00    -0.503 OA
ATOM     21  H   UNL     1       9.890   6.998  25.426  0.00  0.00    +0.292 HD
ENDBRANCH  15  20
ENDBRANCH   1  13
BRANCH   5  22
ATOM     22  O   UNL     1       4.431  -0.586  26.164  0.00  0.00    -0.506 OA
ATOM     23  H   UNL     1       3.613  -0.350  25.670  0.00  0.00    +0.292 HD
ENDBRANCH   5  22
BRANCH  11  24
ATOM     24  O   UNL     1       6.650   4.175  25.641  0.00  0.00    -0.453 OA
BRANCH  24  25
ATOM     25  C   UNL     1       5.454   4.589  24.948  0.00  0.00    +0.340 C 
ATOM     26  O   UNL     1       5.524   4.302  23.550  0.00  0.00    -0.331 OA
ATOM     27  C   UNL     1       5.743   5.316  22.562  0.00  0.00    +0.179 C 
ATOM     28  C   UNL     1       5.512   6.779  22.975  0.00  0.00    +0.177 C 
ATOM     29  C   UNL     1       5.836   7.018  24.451  0.00  0.00    +0.180 C 
ATOM     30  C   UNL     1       5.046   6.023  25.298  0.00  0.00    +0.214 C 
BRANCH  30  31
ATOM     31  O   UNL     1       3.629   6.197  25.067  0.00  0.00    -0.383 OA
ATOM     32  H   UNL     1       3.511   6.995  24.508  0.00  0.00    +0.210 HD
ENDBRANCH  30  31
BRANCH  29  33
ATOM     33  O   UNL     1       7.239   6.977  24.684  0.00  0.00    -0.386 OA
ATOM     34  H   UNL     1       7.650   6.224  24.219  0.00  0.00    +0.210 HD
ENDBRANCH  29  33
BRANCH  28  35
ATOM     35  O   UNL     1       4.135   7.108  22.687  0.00  0.00    -0.386 OA
ATOM     36  H   UNL     1       4.066   8.077  22.548  0.00  0.00    +0.210 HD
ENDBRANCH  28  35
BRANCH  27  37
ATOM     37  C   UNL     1       7.114   5.143  21.885  0.00  0.00    +0.190 C 
BRANCH  37  38
ATOM     38  O   UNL     1       7.841   6.371  21.806  0.00  0.00    -0.392 OA
ATOM     39  H   UNL     1       8.411   6.338  21.019  0.00  0.00    +0.210 HD
ENDBRANCH  37  38
ENDBRANCH  27  37
ENDBRANCH  24  25
ENDBRANCH  11  24
BRANCH   7  40
ATOM     40  O   UNL     1       6.864  -3.186  23.044  0.00  0.00    -0.461 OA
BRANCH  40  41
ATOM     41  C   UNL     1       8.067  -3.892  23.400  0.00  0.00    +0.339 C 
ATOM     42  O   UNL     1       7.818  -5.261  23.713  0.00  0.00    -0.331 OA
ATOM     43  C   UNL     1       7.755  -5.644  25.092  0.00  0.00    +0.179 C 
ATOM     44  C   UNL     1       8.959  -5.097  25.874  0.00  0.00    +0.177 C 
ATOM     45  C   UNL     1       8.982  -3.568  25.826  0.00  0.00    +0.180 C 
ATOM     46  C   UNL     1       8.972  -3.083  24.370  0.00  0.00    +0.214 C 
BRANCH  46  47
ATOM     47  O   UNL     1      10.343  -3.200  23.899  0.00  0.00    -0.383 OA
ATOM     48  H   UNL     1      10.291  -3.638  23.022  0.00  0.00    +0.210 HD
ENDBRANCH  46  47
BRANCH  45  49
ATOM     49  O   UNL     1       7.936  -3.036  26.632  0.00  0.00    -0.386 OA
ATOM     50  H   UNL     1       7.625  -3.714  27.260  0.00  0.00    +0.210 HD
ENDBRANCH  45  49
BRANCH  44  51
ATOM     51  O   UNL     1      10.166  -5.610  25.279  0.00  0.00    -0.386 OA
ATOM     52  H   UNL     1      10.484  -6.337  25.846  0.00  0.00    +0.210 HD
ENDBRANCH  44  51
BRANCH  43  53
ATOM     53  C   UNL     1       6.399  -5.327  25.752  0.00  0.00    +0.190 C 
BRANCH  53  54
ATOM     54  O   UNL     1       5.334  -5.312  24.806  0.00  0.00    -0.392 OA
ATOM     55  H   UNL     1       5.701  -5.091  23.935  0.00  0.00    +0.210 HD
ENDBRANCH  53  54
ENDBRANCH  43  53
ENDBRANCH  40  41
ENDBRANCH   7  40
TORSDOF 18
ENDMDL
MODEL 9
REMARK VINA RESULT:      -6.5      2.161      4.569
REMARK  Name = 
REMARK  18 active torsions:
REMARK  status: ('A' for Active; 'I' for Inactive)
REMARK    1  A    between atoms: C_3  and  O_54
REMARK    2  A    between atoms: C_4  and  O_53
REMARK    3  A    between atoms: C_6  and  C_7
REMARK    4  A    between atoms: C_8  and  O_36
REMARK    5  A    between atoms: C_12  and  O_35
REMARK    6  A    between atoms: C_14  and  O_18
REMARK    7  A    between atoms: O_18  and  C_19
REMARK    8  A    between atoms: C_21  and  O_34
REMARK    9  A    between atoms: C_23  and  O_33
REMARK   10  A    between atoms: C_25  and  O_32
REMARK   11  A    between atoms: C_27  and  C_30
REMARK   12  A    between atoms: C_30  and  O_31
REMARK   13  A    between atoms: O_36  and  C_37
REMARK   14  A    between atoms: C_39  and  O_52
REMARK   15  A    between atoms: C_41  and  O_51
REMARK   16  A    between atoms: C_43  and  O_50
REMARK   17  A    between atoms: C_45  and  C_48
REMARK   18  A    between atoms: C_48  and  O_49
REMARK                            x       y       z     vdW  Elec       q    Type
REMARK                         _______ _______ _______ _____ _____    ______ ____
ROOT
ATOM      1  C   UNL     1       6.720  -2.083  25.059  0.00  0.00    +0.181 A 
ATOM      2  O   UNL     1       7.233  -0.875  24.591  0.00  0.00    -0.451 OA
ATOM      3  C   UNL     1       7.251   0.219  25.418  0.00  0.00    +0.147 A 
ATOM      4  C   UNL     1       6.531   0.277  26.587  0.00  0.00    +0.109 A 
ATOM      5  C   UNL     1       6.473   1.493  27.285  0.00  0.00    +0.135 A 
ATOM      6  C   UNL     1       7.155   2.624  26.822  0.00  0.00    +0.092 A 
ATOM      7  C   UNL     1       7.909   2.551  25.644  0.00  0.00    +0.131 A 
ATOM      8  C   UNL     1       5.884  -0.959  27.057  0.00  0.00    +0.238 A 
ATOM      9  O   UNL     1       5.158  -0.937  28.045  0.00  0.00    -0.283 OA
ATOM     10  C   UNL     1       7.989   1.321  24.979  0.00  0.00    +0.093 A 
ATOM     11  C   UNL     1       6.185  -2.222  26.299  0.00  0.00    +0.214 A 
ENDROOT
BRANCH   1  13
ATOM     12  C   UNL     1       7.713  -4.273  24.283  0.00  0.00    +0.015 A 
ATOM     13  C   UNL     1       6.869  -3.167  24.030  0.00  0.00    +0.025 A 
ATOM     14  C   UNL     1       6.225  -3.125  22.780  0.00  0.00    +0.060 A 
ATOM     15  C   UNL     1       6.373  -4.166  21.869  0.00  0.00    +0.159 A 
ATOM     16  C   UNL     1       7.236  -5.221  22.125  0.00  0.00    +0.158 A 
ATOM     17  C   UNL     1       7.912  -5.286  23.333  0.00  0.00    +0.050 A 
BRANCH  16  18
ATOM     18  O   UNL     1       7.402  -6.161  21.150  0.00  0.00    -0.503 OA
ATOM     19  H   UNL     1       7.229  -7.034  21.545  0.00  0.00    +0.292 HD
ENDBRANCH  16  18
BRANCH  15  20
ATOM     20  O   UNL     1       5.655  -4.139  20.707  0.00  0.00    -0.503 OA
ATOM     21  H   UNL     1       6.284  -3.815  20.032  0.00  0.00    +0.292 HD
ENDBRANCH  15  20
ENDBRANCH   1  13
BRANCH   5  22
ATOM     22  O   UNL     1       5.743   1.640  28.445  0.00  0.00    -0.506 OA
ATOM     23  H   UNL     1       5.885   2.552  28.785  0.00  0.00    +0.292 HD
ENDBRANCH   5  22
BRANCH  11  24
ATOM     24  O   UNL     1       5.883  -3.421  26.951  0.00  0.00    -0.453 OA
BRANCH  24  25
ATOM     25  C   UNL     1       4.487  -3.771  26.855  0.00  0.00    +0.340 C 
ATOM     26  O   UNL     1       3.996  -4.335  28.073  0.00  0.00    -0.331 OA
ATOM     27  C   UNL     1       3.734  -5.735  28.227  0.00  0.00    +0.179 C 
ATOM     28  C   UNL     1       3.606  -6.584  26.950  0.00  0.00    +0.177 C 
ATOM     29  C   UNL     1       4.490  -6.056  25.819  0.00  0.00    +0.180 C 
ATOM     30  C   UNL     1       4.175  -4.579  25.592  0.00  0.00    +0.214 C 
BRANCH  30  31
ATOM     31  O   UNL     1       2.780  -4.423  25.246  0.00  0.00    -0.383 OA
ATOM     32  H   UNL     1       2.490  -5.241  24.787  0.00  0.00    +0.210 HD
ENDBRANCH  30  31
BRANCH  29  33
ATOM     33  O   UNL     1       5.866  -6.312  26.078  0.00  0.00    -0.386 OA
ATOM     34  H   UNL     1       6.399  -5.500  25.975  0.00  0.00    +0.210 HD
ENDBRANCH  29  33
BRANCH  28  35
ATOM     35  O   UNL     1       2.216  -6.591  26.561  0.00  0.00    -0.386 OA
ATOM     36  H   UNL     1       1.836  -7.472  26.771  0.00  0.00    +0.210 HD
ENDBRANCH  28  35
BRANCH  27  37
ATOM     37  C   UNL     1       4.716  -6.378  29.222  0.00  0.00    +0.190 C 
BRANCH  37  38
ATOM     38  O   UNL     1       5.367  -7.527  28.678  0.00  0.00    -0.392 OA
ATOM     39  H   UNL     1       6.328  -7.398  28.754  0.00  0.00    +0.210 HD
ENDBRANCH  37  38
ENDBRANCH  27  37
ENDBRANCH  24  25
ENDBRANCH  11  24
BRANCH   7  40
ATOM     40  O   UNL     1       8.501   3.727  25.212  0.00  0.00    -0.461 OA
BRANCH  40  41
ATOM     41  C   UNL     1       8.201   4.094  23.852  0.00  0.00    +0.339 C 
ATOM     42  O   UNL     1       9.172   4.984  23.305  0.00  0.00    -0.331 OA
ATOM     43  C   UNL     1       8.861   6.380  23.248  0.00  0.00    +0.179 C 
ATOM     44  C   UNL     1       7.473   6.613  22.630  0.00  0.00    +0.177 C 
ATOM     45  C   UNL     1       6.390   5.938  23.474  0.00  0.00    +0.180 C 
ATOM     46  C   UNL     1       6.702   4.445  23.643  0.00  0.00    +0.214 C 
BRANCH  46  47
ATOM     47  O   UNL     1       6.263   3.801  22.416  0.00  0.00    -0.383 OA
ATOM     48  H   UNL     1       6.187   4.515  21.747  0.00  0.00    +0.210 HD
ENDBRANCH  46  47
BRANCH  45  49
ATOM     49  O   UNL     1       6.208   6.645  24.696  0.00  0.00    -0.386 OA
ATOM     50  H   UNL     1       6.206   7.605  24.526  0.00  0.00    +0.210 HD
ENDBRANCH  45  49
BRANCH  44  51
ATOM     51  O   UNL     1       7.459   6.053  21.303  0.00  0.00    -0.386 OA
ATOM     52  H   UNL     1       8.313   5.599  21.171  0.00  0.00    +0.210 HD
ENDBRANCH  44  51
BRANCH  43  53
ATOM     53  C   UNL     1       9.064   7.108  24.591  0.00  0.00    +0.190 C 
BRANCH  53  54
ATOM     54  O   UNL     1      10.015   6.444  25.419  0.00  0.00    -0.392 OA
ATOM     55  H   UNL     1      10.239   5.595  25.008  0.00  0.00    +0.210 HD
ENDBRANCH  53  54
ENDBRANCH  43  53
ENDBRANCH  40  41
ENDBRANCH   7  40
TORSDOF 18
ENDMDL
