MODEL 1
REMARK VINA RESULT:      -7.5      0.000      0.000
REMARK  Name = 
REMARK  17 active torsions:
REMARK  status: ('A' for Active; 'I' for Inactive)
REMARK    1  A    between atoms: C_3  and  O_49
REMARK    2  A    between atoms: C_4  and  O_48
REMARK    3  A    between atoms: C_6  and  C_7
REMARK    4  A    between atoms: C_8  and  O_20
REMARK    5  A    between atoms: C_12  and  O_19
REMARK    6  A    between atoms: C_14  and  O_18
REMARK    7  A    between atoms: O_20  and  C_21
REMARK    8  A    between atoms: C_23  and  O_36
REMARK    9  A    between atoms: C_25  and  O_35
REMARK   10  A    between atoms: C_27  and  O_34
REMARK   11  A    between atoms: C_29  and  C_32
REMARK   12  A    between atoms: C_32  and  O_33
REMARK   13  A    between atoms: O_36  and  C_37
REMARK   14  A    between atoms: C_37  and  C_39
REMARK   15  A    between atoms: C_41  and  O_47
REMARK   16  A    between atoms: C_42  and  O_46
REMARK   17  A    between atoms: C_43  and  O_45
REMARK                            x       y       z     vdW  Elec       q    Type
REMARK                         _______ _______ _______ _____ _____    ______ ____
ROOT
ATOM      1  C   UNL     1       5.916   1.409  24.431  0.00  0.00    +0.352 C 
ATOM      2  O   UNL     1       4.886   2.375  24.130  0.00  0.00    -0.330 OA
ATOM      3  C   UNL     1       4.053   2.983  25.134  0.00  0.00    +0.179 C 
ATOM      4  C   UNL     1       3.702   2.078  26.332  0.00  0.00    +0.178 C 
ATOM      5  C   UNL     1       4.758   1.007  26.650  0.00  0.00    +0.192 C 
ATOM      6  C   UNL     1       5.432   0.289  25.436  0.00  0.00    +0.276 C 
ENDROOT
BRANCH   5   7
ATOM      7  O   UNL     1       5.759   1.722  27.435  0.00  0.00    -0.385 OA
ATOM      8  H   UNL     1       5.293   2.358  28.018  0.00  0.00    +0.210 HD
ENDBRANCH   5   7
BRANCH   4   9
ATOM      9  O   UNL     1       3.459   2.870  27.521  0.00  0.00    -0.386 OA
ATOM     10  H   UNL     1       3.775   3.778  27.310  0.00  0.00    +0.210 HD
ENDBRANCH   4   9
BRANCH   6  11
ATOM     11  O   UNL     1       4.916  -1.122  25.147  0.00  0.00    -0.449 OA
BRANCH  11  12
ATOM     12  C   UNL     1       5.360  -2.365  25.549  0.00  0.00    +0.340 C 
ATOM     13  O   UNL     1       5.726  -2.594  26.692  0.00  0.00    -0.245 OA
BRANCH  12  14
ATOM     14  C   UNL     1       5.382  -3.482  24.445  0.00  0.00    +0.066 A 
ATOM     15  C   UNL     1       5.598  -3.196  23.078  0.00  0.00    +0.064 A 
ATOM     16  C   UNL     1       5.584  -4.201  22.102  0.00  0.00    +0.163 A 
ATOM     17  C   UNL     1       5.361  -5.530  22.425  0.00  0.00    +0.201 A 
ATOM     18  C   UNL     1       5.124  -5.874  23.748  0.00  0.00    +0.163 A 
ATOM     19  C   UNL     1       5.110  -4.874  24.750  0.00  0.00    +0.064 A 
BRANCH  18  20
ATOM     20  O   UNL     1       4.912  -7.205  23.974  0.00  0.00    -0.503 OA
ATOM     21  H   UNL     1       4.482  -7.606  23.195  0.00  0.00    +0.292 HD
ENDBRANCH  18  20
BRANCH  17  22
ATOM     22  O   UNL     1       5.391  -6.468  21.442  0.00  0.00    -0.501 OA
ATOM     23  H   UNL     1       5.906  -6.082  20.699  0.00  0.00    +0.292 HD
ENDBRANCH  17  22
BRANCH  16  24
ATOM     24  O   UNL     1       5.784  -3.900  20.771  0.00  0.00    -0.503 OA
ATOM     25  H   UNL     1       4.905  -3.604  20.451  0.00  0.00    +0.292 HD
ENDBRANCH  16  24
ENDBRANCH  12  14
ENDBRANCH  11  12
ENDBRANCH   6  11
BRANCH   3  26
ATOM     26  C   UNL     1       4.438   4.458  25.462  0.00  0.00    +0.190 C 
BRANCH  26  27
ATOM     27  O   UNL     1       5.571   4.580  26.333  0.00  0.00    -0.392 OA
ATOM     28  H   UNL     1       5.655   5.526  26.576  0.00  0.00    +0.210 HD
ENDBRANCH  26  27
ENDBRANCH   3  26
BRANCH   1  29
ATOM     29  O   UNL     1       7.083   2.022  25.117  0.00  0.00    -0.452 OA
BRANCH  29  40
ATOM     30  C   UNL     1       9.310   1.577  24.219  0.00  0.00    +0.181 A 
ATOM     31  O   UNL     1      10.568   2.039  23.828  0.00  0.00    -0.451 OA
ATOM     32  C   UNL     1      10.844   3.358  23.720  0.00  0.00    +0.147 A 
ATOM     33  C   UNL     1       9.878   4.332  23.889  0.00  0.00    +0.109 A 
ATOM     34  C   UNL     1      10.236   5.676  23.692  0.00  0.00    +0.135 A 
ATOM     35  C   UNL     1      11.546   6.023  23.335  0.00  0.00    +0.091 A 
ATOM     36  C   UNL     1      12.506   5.023  23.200  0.00  0.00    +0.124 A 
ATOM     37  C   UNL     1       8.527   3.894  24.293  0.00  0.00    +0.238 A 
ATOM     38  O   UNL     1       7.667   4.747  24.489  0.00  0.00    -0.283 OA
ATOM     39  C   UNL     1      12.167   3.695  23.398  0.00  0.00    +0.092 A 
ATOM     40  C   UNL     1       8.263   2.418  24.482  0.00  0.00    +0.214 A 
BRANCH  30  42
ATOM     41  C   UNL     1       9.590  -0.636  23.007  0.00  0.00    +0.015 A 
ATOM     42  C   UNL     1       9.390   0.061  24.230  0.00  0.00    +0.025 A 
ATOM     43  C   UNL     1       9.093  -0.730  25.338  0.00  0.00    +0.060 A 
ATOM     44  C   UNL     1       8.972  -2.119  25.221  0.00  0.00    +0.159 A 
ATOM     45  C   UNL     1       9.110  -2.766  23.991  0.00  0.00    +0.158 A 
ATOM     46  C   UNL     1       9.432  -2.029  22.875  0.00  0.00    +0.050 A 
BRANCH  45  47
ATOM     47  O   UNL     1       8.887  -4.114  23.943  0.00  0.00    -0.503 OA
ATOM     48  H   UNL     1       8.579  -4.402  24.821  0.00  0.00    +0.292 HD
ENDBRANCH  45  47
BRANCH  44  49
ATOM     49  O   UNL     1       8.667  -2.855  26.334  0.00  0.00    -0.503 OA
ATOM     50  H   UNL     1       7.730  -2.641  26.528  0.00  0.00    +0.292 HD
ENDBRANCH  44  49
ENDBRANCH  30  42
BRANCH  36  51
ATOM     51  O   UNL     1      13.796   5.311  22.866  0.00  0.00    -0.507 OA
ATOM     52  H   UNL     1      14.111   4.666  22.208  0.00  0.00    +0.292 HD
ENDBRANCH  36  51
BRANCH  34  53
ATOM     53  O   UNL     1       9.355   6.714  23.828  0.00  0.00    -0.506 OA
ATOM     54  H   UNL     1       8.536   6.490  23.331  0.00  0.00    +0.292 HD
ENDBRANCH  34  53
ENDBRANCH  29  40
ENDBRANCH   1  29
TORSDOF 17
ENDMDL
MODEL 2
REMARK VINA RESULT:      -7.3      1.918      6.744
REMARK  Name = 
REMARK  17 active torsions:
REMARK  status: ('A' for Active; 'I' for Inactive)
REMARK    1  A    between atoms: C_3  and  O_49
REMARK    2  A    between atoms: C_4  and  O_48
REMARK    3  A    between atoms: C_6  and  C_7
REMARK    4  A    between atoms: C_8  and  O_20
REMARK    5  A    between atoms: C_12  and  O_19
REMARK    6  A    between atoms: C_14  and  O_18
REMARK    7  A    between atoms: O_20  and  C_21
REMARK    8  A    between atoms: C_23  and  O_36
REMARK    9  A    between atoms: C_25  and  O_35
REMARK   10  A    between atoms: C_27  and  O_34
REMARK   11  A    between atoms: C_29  and  C_32
REMARK   12  A    between atoms: C_32  and  O_33
REMARK   13  A    between atoms: O_36  and  C_37
REMARK   14  A    between atoms: C_37  and  C_39
REMARK   15  A    between atoms: C_41  and  O_47
REMARK   16  A    between atoms: C_42  and  O_46
REMARK   17  A    between atoms: C_43  and  O_45
REMARK                            x       y       z     vdW  Elec       q    Type
REMARK                         _______ _______ _______ _____ _____    ______ ____
ROOT
ATOM      1  C   UNL     1       8.233  -0.935  25.080  0.00  0.00    +0.352 C 
ATOM      2  O   UNL     1       9.505  -0.299  24.823  0.00  0.00    -0.330 OA
ATOM      3  C   UNL     1      10.193  -0.389  23.562  0.00  0.00    +0.179 C 
ATOM      4  C   UNL     1      10.023  -1.726  22.814  0.00  0.00    +0.178 C 
ATOM      5  C   UNL     1       8.699  -2.452  23.103  0.00  0.00    +0.192 C 
ATOM      6  C   UNL     1       8.184  -2.433  24.579  0.00  0.00    +0.276 C 
ENDROOT
BRANCH   5   7
ATOM      7  O   UNL     1       7.738  -1.794  22.223  0.00  0.00    -0.385 OA
ATOM      8  H   UNL     1       6.989  -2.411  22.074  0.00  0.00    +0.210 HD
ENDBRANCH   5   7
BRANCH   4   9
ATOM      9  O   UNL     1      10.157  -1.536  21.384  0.00  0.00    -0.386 OA
ATOM     10  H   UNL     1       9.345  -1.059  21.098  0.00  0.00    +0.210 HD
ENDBRANCH   4   9
BRANCH   6  11
ATOM     11  O   UNL     1       8.405  -3.729  25.360  0.00  0.00    -0.449 OA
BRANCH  11  12
ATOM     12  C   UNL     1       7.581  -4.450  26.201  0.00  0.00    +0.340 C 
ATOM     13  O   UNL     1       7.715  -4.445  27.416  0.00  0.00    -0.245 OA
BRANCH  12  14
ATOM     14  C   UNL     1       6.454  -5.296  25.508  0.00  0.00    +0.066 A 
ATOM     15  C   UNL     1       5.529  -6.075  26.239  0.00  0.00    +0.064 A 
ATOM     16  C   UNL     1       4.549  -6.849  25.603  0.00  0.00    +0.163 A 
ATOM     17  C   UNL     1       4.432  -6.889  24.223  0.00  0.00    +0.201 A 
ATOM     18  C   UNL     1       5.322  -6.161  23.447  0.00  0.00    +0.163 A 
ATOM     19  C   UNL     1       6.336  -5.388  24.065  0.00  0.00    +0.064 A 
BRANCH  18  20
ATOM     20  O   UNL     1       5.134  -6.261  22.097  0.00  0.00    -0.503 OA
ATOM     21  H   UNL     1       4.879  -7.175  21.868  0.00  0.00    +0.292 HD
ENDBRANCH  18  20
BRANCH  17  22
ATOM     22  O   UNL     1       3.442  -7.630  23.660  0.00  0.00    -0.501 OA
ATOM     23  H   UNL     1       3.684  -8.574  23.797  0.00  0.00    +0.292 HD
ENDBRANCH  17  22
BRANCH  16  24
ATOM     24  O   UNL     1       3.664  -7.613  26.334  0.00  0.00    -0.503 OA
ATOM     25  H   UNL     1       3.743  -8.513  25.953  0.00  0.00    +0.292 HD
ENDBRANCH  16  24
ENDBRANCH  12  14
ENDBRANCH  11  12
ENDBRANCH   6  11
BRANCH   3  26
ATOM     26  C   UNL     1      10.102   0.908  22.702  0.00  0.00    +0.190 C 
BRANCH  26  27
ATOM     27  O   UNL     1       8.879   1.028  21.963  0.00  0.00    -0.392 OA
ATOM     28  H   UNL     1       8.287   1.625  22.467  0.00  0.00    +0.210 HD
ENDBRANCH  26  27
ENDBRANCH   3  26
BRANCH   1  29
ATOM     29  O   UNL     1       7.116  -0.279  24.352  0.00  0.00    -0.452 OA
BRANCH  29  40
ATOM     30  C   UNL     1       6.251   1.894  25.057  0.00  0.00    +0.181 A 
ATOM     31  O   UNL     1       5.409   2.649  25.873  0.00  0.00    -0.451 OA
ATOM     32  C   UNL     1       4.455   2.078  26.642  0.00  0.00    +0.147 A 
ATOM     33  C   UNL     1       4.179   0.724  26.593  0.00  0.00    +0.109 A 
ATOM     34  C   UNL     1       3.124   0.224  27.375  0.00  0.00    +0.135 A 
ATOM     35  C   UNL     1       2.368   1.079  28.188  0.00  0.00    +0.091 A 
ATOM     36  C   UNL     1       2.688   2.434  28.239  0.00  0.00    +0.124 A 
ATOM     37  C   UNL     1       5.036  -0.119  25.735  0.00  0.00    +0.238 A 
ATOM     38  O   UNL     1       4.834  -1.329  25.711  0.00  0.00    -0.283 OA
ATOM     39  C   UNL     1       3.729   2.938  27.479  0.00  0.00    +0.092 A 
ATOM     40  C   UNL     1       6.147   0.533  24.945  0.00  0.00    +0.214 A 
BRANCH  30  42
ATOM     41  C   UNL     1       8.392   3.257  25.009  0.00  0.00    +0.015 A 
ATOM     42  C   UNL     1       7.182   2.874  24.367  0.00  0.00    +0.025 A 
ATOM     43  C   UNL     1       6.855   3.587  23.215  0.00  0.00    +0.060 A 
ATOM     44  C   UNL     1       7.665   4.632  22.758  0.00  0.00    +0.159 A 
ATOM     45  C   UNL     1       8.813   5.025  23.450  0.00  0.00    +0.158 A 
ATOM     46  C   UNL     1       9.192   4.332  24.577  0.00  0.00    +0.050 A 
BRANCH  45  47
ATOM     47  O   UNL     1       9.502   6.114  22.990  0.00  0.00    -0.503 OA
ATOM     48  H   UNL     1       9.366   6.174  22.028  0.00  0.00    +0.292 HD
ENDBRANCH  45  47
BRANCH  44  49
ATOM     49  O   UNL     1       7.299   5.312  21.629  0.00  0.00    -0.503 OA
ATOM     50  H   UNL     1       6.327   5.423  21.706  0.00  0.00    +0.292 HD
ENDBRANCH  44  49
ENDBRANCH  30  42
BRANCH  36  51
ATOM     51  O   UNL     1       1.989   3.303  29.025  0.00  0.00    -0.507 OA
ATOM     52  H   UNL     1       1.460   3.894  28.460  0.00  0.00    +0.292 HD
ENDBRANCH  36  51
BRANCH  34  53
ATOM     53  O   UNL     1       2.767  -1.096  27.394  0.00  0.00    -0.506 OA
ATOM     54  H   UNL     1       2.402  -1.304  28.284  0.00  0.00    +0.292 HD
ENDBRANCH  34  53
ENDBRANCH  29  40
ENDBRANCH   1  29
TORSDOF 17
ENDMDL
MODEL 3
REMARK VINA RESULT:      -7.1      2.075      7.946
REMARK  Name = 
REMARK  17 active torsions:
REMARK  status: ('A' for Active; 'I' for Inactive)
REMARK    1  A    between atoms: C_3  and  O_49
REMARK    2  A    between atoms: C_4  and  O_48
REMARK    3  A    between atoms: C_6  and  C_7
REMARK    4  A    between atoms: C_8  and  O_20
REMARK    5  A    between atoms: C_12  and  O_19
REMARK    6  A    between atoms: C_14  and  O_18
REMARK    7  A    between atoms: O_20  and  C_21
REMARK    8  A    between atoms: C_23  and  O_36
REMARK    9  A    between atoms: C_25  and  O_35
REMARK   10  A    between atoms: C_27  and  O_34
REMARK   11  A    between atoms: C_29  and  C_32
REMARK   12  A    between atoms: C_32  and  O_33
REMARK   13  A    between atoms: O_36  and  C_37
REMARK   14  A    between atoms: C_37  and  C_39
REMARK   15  A    between atoms: C_41  and  O_47
REMARK   16  A    between atoms: C_42  and  O_46
REMARK   17  A    between atoms: C_43  and  O_45
REMARK                            x       y       z     vdW  Elec       q    Type
REMARK                         _______ _______ _______ _____ _____    ______ ____
ROOT
ATOM      1  C   UNL     1       5.831   0.233  26.831  0.00  0.00    +0.352 C 
ATOM      2  O   UNL     1       5.071  -0.143  28.000  0.00  0.00    -0.330 OA
ATOM      3  C   UNL     1       3.817   0.466  28.358  0.00  0.00    +0.179 C 
ATOM      4  C   UNL     1       3.690   1.962  28.010  0.00  0.00    +0.178 C 
ATOM      5  C   UNL     1       4.524   2.405  26.797  0.00  0.00    +0.192 C 
ATOM      6  C   UNL     1       5.959   1.799  26.661  0.00  0.00    +0.276 C 
ENDROOT
BRANCH   5   7
ATOM      7  O   UNL     1       3.704   2.030  25.650  0.00  0.00    -0.385 OA
ATOM      8  H   UNL     1       3.875   2.674  24.929  0.00  0.00    +0.210 HD
ENDBRANCH   5   7
BRANCH   4   9
ATOM      9  O   UNL     1       2.304   2.323  27.788  0.00  0.00    -0.386 OA
ATOM     10  H   UNL     1       1.794   1.891  28.511  0.00  0.00    +0.210 HD
ENDBRANCH   4   9
BRANCH   6  11
ATOM     11  O   UNL     1       7.100   2.733  27.067  0.00  0.00    -0.449 OA
BRANCH  11  12
ATOM     12  C   UNL     1       7.283   4.091  26.900  0.00  0.00    +0.340 C 
ATOM     13  O   UNL     1       7.331   4.868  27.842  0.00  0.00    -0.245 OA
BRANCH  12  14
ATOM     14  C   UNL     1       7.416   4.594  25.418  0.00  0.00    +0.066 A 
ATOM     15  C   UNL     1       8.664   4.881  24.822  0.00  0.00    +0.064 A 
ATOM     16  C   UNL     1       8.763   5.360  23.508  0.00  0.00    +0.163 A 
ATOM     17  C   UNL     1       7.642   5.572  22.722  0.00  0.00    +0.201 A 
ATOM     18  C   UNL     1       6.385   5.327  23.256  0.00  0.00    +0.163 A 
ATOM     19  C   UNL     1       6.257   4.865  24.588  0.00  0.00    +0.064 A 
BRANCH  18  20
ATOM     20  O   UNL     1       5.337   5.566  22.411  0.00  0.00    -0.503 OA
ATOM     21  H   UNL     1       5.622   5.427  21.487  0.00  0.00    +0.292 HD
ENDBRANCH  18  20
BRANCH  17  22
ATOM     22  O   UNL     1       7.797   6.006  21.444  0.00  0.00    -0.501 OA
ATOM     23  H   UNL     1       7.686   5.220  20.863  0.00  0.00    +0.292 HD
ENDBRANCH  17  22
BRANCH  16  24
ATOM     24  O   UNL     1       9.990   5.648  22.948  0.00  0.00    -0.503 OA
ATOM     25  H   UNL     1      10.590   4.959  23.306  0.00  0.00    +0.292 HD
ENDBRANCH  16  24
ENDBRANCH  12  14
ENDBRANCH  11  12
ENDBRANCH   6  11
BRANCH   3  26
ATOM     26  C   UNL     1       2.575  -0.429  28.058  0.00  0.00    +0.190 C 
BRANCH  26  27
ATOM     27  O   UNL     1       2.276  -0.555  26.661  0.00  0.00    -0.392 OA
ATOM     28  H   UNL     1       3.123  -0.485  26.172  0.00  0.00    +0.210 HD
ENDBRANCH  26  27
ENDBRANCH   3  26
BRANCH   1  29
ATOM     29  O   UNL     1       5.184  -0.211  25.569  0.00  0.00    -0.452 OA
BRANCH  29  40
ATOM     30  C   UNL     1       6.549  -1.154  23.777  0.00  0.00    +0.181 A 
ATOM     31  O   UNL     1       6.779  -2.161  22.838  0.00  0.00    -0.451 OA
ATOM     32  C   UNL     1       6.071  -3.312  22.835  0.00  0.00    +0.147 A 
ATOM     33  C   UNL     1       5.147  -3.615  23.818  0.00  0.00    +0.109 A 
ATOM     34  C   UNL     1       4.505  -4.864  23.776  0.00  0.00    +0.135 A 
ATOM     35  C   UNL     1       4.793  -5.783  22.759  0.00  0.00    +0.091 A 
ATOM     36  C   UNL     1       5.706  -5.439  21.765  0.00  0.00    +0.124 A 
ATOM     37  C   UNL     1       4.875  -2.586  24.842  0.00  0.00    +0.238 A 
ATOM     38  O   UNL     1       4.027  -2.820  25.698  0.00  0.00    -0.283 OA
ATOM     39  C   UNL     1       6.341  -4.209  21.791  0.00  0.00    +0.092 A 
ATOM     40  C   UNL     1       5.624  -1.275  24.779  0.00  0.00    +0.214 A 
BRANCH  30  42
ATOM     41  C   UNL     1       7.216   0.872  22.401  0.00  0.00    +0.015 A 
ATOM     42  C   UNL     1       7.519  -0.032  23.457  0.00  0.00    +0.025 A 
ATOM     43  C   UNL     1       8.796   0.080  24.002  0.00  0.00    +0.060 A 
ATOM     44  C   UNL     1       9.717   1.006  23.502  0.00  0.00    +0.159 A 
ATOM     45  C   UNL     1       9.408   1.834  22.420  0.00  0.00    +0.158 A 
ATOM     46  C   UNL     1       8.150   1.781  21.867  0.00  0.00    +0.050 A 
BRANCH  45  47
ATOM     47  O   UNL     1      10.392   2.649  21.931  0.00  0.00    -0.503 OA
ATOM     48  H   UNL     1      10.336   2.643  20.960  0.00  0.00    +0.292 HD
ENDBRANCH  45  47
BRANCH  44  49
ATOM     49  O   UNL     1      10.965   1.072  24.061  0.00  0.00    -0.503 OA
ATOM     50  H   UNL     1      11.551   0.616  23.420  0.00  0.00    +0.292 HD
ENDBRANCH  44  49
ENDBRANCH  30  42
BRANCH  36  51
ATOM     51  O   UNL     1       6.010  -6.295  20.747  0.00  0.00    -0.507 OA
ATOM     52  H   UNL     1       5.381  -6.163  20.016  0.00  0.00    +0.292 HD
ENDBRANCH  36  51
BRANCH  34  53
ATOM     53  O   UNL     1       3.581  -5.262  24.703  0.00  0.00    -0.506 OA
ATOM     54  H   UNL     1       2.685  -5.042  24.360  0.00  0.00    +0.292 HD
ENDBRANCH  34  53
ENDBRANCH  29  40
ENDBRANCH   1  29
TORSDOF 17
ENDMDL
MODEL 4
REMARK VINA RESULT:      -7.0      1.775      2.575
REMARK  Name = 
REMARK  17 active torsions:
REMARK  status: ('A' for Active; 'I' for Inactive)
REMARK    1  A    between atoms: C_3  and  O_49
REMARK    2  A    between atoms: C_4  and  O_48
REMARK    3  A    between atoms: C_6  and  C_7
REMARK    4  A    between atoms: C_8  and  O_20
REMARK    5  A    between atoms: C_12  and  O_19
REMARK    6  A    between atoms: C_14  and  O_18
REMARK    7  A    between atoms: O_20  and  C_21
REMARK    8  A    between atoms: C_23  and  O_36
REMARK    9  A    between atoms: C_25  and  O_35
REMARK   10  A    between atoms: C_27  and  O_34
REMARK   11  A    between atoms: C_29  and  C_32
REMARK   12  A    between atoms: C_32  and  O_33
REMARK   13  A    between atoms: O_36  and  C_37
REMARK   14  A    between atoms: C_37  and  C_39
REMARK   15  A    between atoms: C_41  and  O_47
REMARK   16  A    between atoms: C_42  and  O_46
REMARK   17  A    between atoms: C_43  and  O_45
REMARK                            x       y       z     vdW  Elec       q    Type
REMARK                         _______ _______ _______ _____ _____    ______ ____
ROOT
ATOM      1  C   UNL     1       5.694   0.885  24.944  0.00  0.00    +0.352 C 
ATOM      2  O   UNL     1       4.489   1.681  24.923  0.00  0.00    -0.330 OA
ATOM      3  C   UNL     1       3.753   2.032  26.109  0.00  0.00    +0.179 C 
ATOM      4  C   UNL     1       3.755   0.967  27.223  0.00  0.00    +0.178 C 
ATOM      5  C   UNL     1       5.004   0.071  27.244  0.00  0.00    +0.192 C 
ATOM      6  C   UNL     1       5.567  -0.395  25.862  0.00  0.00    +0.276 C 
ENDROOT
BRANCH   5   7
ATOM      7  O   UNL     1       5.998   0.869  27.953  0.00  0.00    -0.385 OA
ATOM      8  H   UNL     1       5.558   1.291  28.722  0.00  0.00    +0.210 HD
ENDBRANCH   5   7
BRANCH   4   9
ATOM      9  O   UNL     1       3.593   1.584  28.524  0.00  0.00    -0.386 OA
ATOM     10  H   UNL     1       3.179   2.461  28.358  0.00  0.00    +0.210 HD
ENDBRANCH   4   9
BRANCH   6  11
ATOM     11  O   UNL     1       5.237  -1.839  25.480  0.00  0.00    -0.449 OA
BRANCH  11  12
ATOM     12  C   UNL     1       4.185  -2.665  25.821  0.00  0.00    +0.340 C 
ATOM     13  O   UNL     1       3.019  -2.362  25.616  0.00  0.00    -0.245 OA
BRANCH  12  14
ATOM     14  C   UNL     1       4.567  -4.026  26.505  0.00  0.00    +0.066 A 
ATOM     15  C   UNL     1       3.600  -4.985  26.882  0.00  0.00    +0.064 A 
ATOM     16  C   UNL     1       3.956  -6.181  27.520  0.00  0.00    +0.163 A 
ATOM     17  C   UNL     1       5.274  -6.490  27.811  0.00  0.00    +0.201 A 
ATOM     18  C   UNL     1       6.270  -5.581  27.483  0.00  0.00    +0.163 A 
ATOM     19  C   UNL     1       5.935  -4.355  26.858  0.00  0.00    +0.064 A 
BRANCH  18  20
ATOM     20  O   UNL     1       7.540  -5.967  27.808  0.00  0.00    -0.503 OA
ATOM     21  H   UNL     1       8.108  -5.932  27.015  0.00  0.00    +0.292 HD
ENDBRANCH  18  20
BRANCH  17  22
ATOM     22  O   UNL     1       5.565  -7.679  28.401  0.00  0.00    -0.501 OA
ATOM     23  H   UNL     1       6.472  -7.595  28.771  0.00  0.00    +0.292 HD
ENDBRANCH  17  22
BRANCH  16  24
ATOM     24  O   UNL     1       2.996  -7.098  27.893  0.00  0.00    -0.503 OA
ATOM     25  H   UNL     1       2.358  -7.104  27.147  0.00  0.00    +0.292 HD
ENDBRANCH  16  24
ENDBRANCH  12  14
ENDBRANCH  11  12
ENDBRANCH   6  11
BRANCH   3  26
ATOM     26  C   UNL     1       3.952   3.513  26.558  0.00  0.00    +0.190 C 
BRANCH  26  27
ATOM     27  O   UNL     1       5.229   3.769  27.156  0.00  0.00    -0.392 OA
ATOM     28  H   UNL     1       5.665   2.903  27.304  0.00  0.00    +0.210 HD
ENDBRANCH  26  27
ENDBRANCH   3  26
BRANCH   1  29
ATOM     29  O   UNL     1       6.849   1.622  25.519  0.00  0.00    -0.452 OA
BRANCH  29  40
ATOM     30  C   UNL     1       8.909   1.366  24.231  0.00  0.00    +0.181 A 
ATOM     31  O   UNL     1      10.090   1.909  23.726  0.00  0.00    -0.451 OA
ATOM     32  C   UNL     1      10.350   3.235  23.779  0.00  0.00    +0.147 A 
ATOM     33  C   UNL     1       9.423   4.151  24.240  0.00  0.00    +0.109 A 
ATOM     34  C   UNL     1       9.749   5.517  24.197  0.00  0.00    +0.135 A 
ATOM     35  C   UNL     1      10.988   5.942  23.699  0.00  0.00    +0.091 A 
ATOM     36  C   UNL     1      11.913   4.994  23.268  0.00  0.00    +0.124 A 
ATOM     37  C   UNL     1       8.151   3.627  24.777  0.00  0.00    +0.238 A 
ATOM     38  O   UNL     1       7.333   4.422  25.230  0.00  0.00    -0.283 OA
ATOM     39  C   UNL     1      11.607   3.645  23.311  0.00  0.00    +0.092 A 
ATOM     40  C   UNL     1       7.916   2.134  24.778  0.00  0.00    +0.214 A 
BRANCH  30  42
ATOM     41  C   UNL     1       8.756  -0.649  22.695  0.00  0.00    +0.015 A 
ATOM     42  C   UNL     1       8.986  -0.132  24.000  0.00  0.00    +0.025 A 
ATOM     43  C   UNL     1       9.086  -1.078  25.019  0.00  0.00    +0.060 A 
ATOM     44  C   UNL     1       8.930  -2.443  24.754  0.00  0.00    +0.159 A 
ATOM     45  C   UNL     1       8.639  -2.912  23.471  0.00  0.00    +0.158 A 
ATOM     46  C   UNL     1       8.560  -2.018  22.428  0.00  0.00    +0.050 A 
BRANCH  45  47
ATOM     47  O   UNL     1       8.412  -4.251  23.311  0.00  0.00    -0.503 OA
ATOM     48  H   UNL     1       8.086  -4.397  22.405  0.00  0.00    +0.292 HD
ENDBRANCH  45  47
BRANCH  44  49
ATOM     49  O   UNL     1       9.024  -3.335  25.788  0.00  0.00    -0.503 OA
ATOM     50  H   UNL     1       9.280  -2.794  26.564  0.00  0.00    +0.292 HD
ENDBRANCH  44  49
ENDBRANCH  30  42
BRANCH  36  51
ATOM     51  O   UNL     1      13.136   5.358  22.786  0.00  0.00    -0.507 OA
ATOM     52  H   UNL     1      13.560   5.972  23.413  0.00  0.00    +0.292 HD
ENDBRANCH  36  51
BRANCH  34  53
ATOM     53  O   UNL     1       8.902   6.503  24.623  0.00  0.00    -0.506 OA
ATOM     54  H   UNL     1       9.406   7.110  25.212  0.00  0.00    +0.292 HD
ENDBRANCH  34  53
ENDBRANCH  29  40
ENDBRANCH   1  29
TORSDOF 17
ENDMDL
MODEL 5
REMARK VINA RESULT:      -6.9      1.936      7.859
REMARK  Name = 
REMARK  17 active torsions:
REMARK  status: ('A' for Active; 'I' for Inactive)
REMARK    1  A    between atoms: C_3  and  O_49
REMARK    2  A    between atoms: C_4  and  O_48
REMARK    3  A    between atoms: C_6  and  C_7
REMARK    4  A    between atoms: C_8  and  O_20
REMARK    5  A    between atoms: C_12  and  O_19
REMARK    6  A    between atoms: C_14  and  O_18
REMARK    7  A    between atoms: O_20  and  C_21
REMARK    8  A    between atoms: C_23  and  O_36
REMARK    9  A    between atoms: C_25  and  O_35
REMARK   10  A    between atoms: C_27  and  O_34
REMARK   11  A    between atoms: C_29  and  C_32
REMARK   12  A    between atoms: C_32  and  O_33
REMARK   13  A    between atoms: O_36  and  C_37
REMARK   14  A    between atoms: C_37  and  C_39
REMARK   15  A    between atoms: C_41  and  O_47
REMARK   16  A    between atoms: C_42  and  O_46
REMARK   17  A    between atoms: C_43  and  O_45
REMARK                            x       y       z     vdW  Elec       q    Type
REMARK                         _______ _______ _______ _____ _____    ______ ____
ROOT
ATOM      1  C   UNL     1       7.035   0.906  26.126  0.00  0.00    +0.352 C 
ATOM      2  O   UNL     1       7.303   1.774  27.249  0.00  0.00    -0.330 OA
ATOM      3  C   UNL     1       6.437   1.877  28.393  0.00  0.00    +0.179 C 
ATOM      4  C   UNL     1       4.933   1.722  28.095  0.00  0.00    +0.178 C 
ATOM      5  C   UNL     1       4.614   0.841  26.876  0.00  0.00    +0.192 C 
ATOM      6  C   UNL     1       5.539   0.996  25.625  0.00  0.00    +0.276 C 
ENDROOT
BRANCH   5   7
ATOM      7  O   UNL     1       4.690  -0.520  27.396  0.00  0.00    -0.385 OA
ATOM      8  H   UNL     1       3.825  -0.956  27.237  0.00  0.00    +0.210 HD
ENDBRANCH   5   7
BRANCH   4   9
ATOM      9  O   UNL     1       4.230   1.203  29.250  0.00  0.00    -0.386 OA
ATOM     10  H   UNL     1       4.043   1.980  29.824  0.00  0.00    +0.210 HD
ENDBRANCH   4   9
BRANCH   6  11
ATOM     11  O   UNL     1       4.945   1.811  24.475  0.00  0.00    -0.449 OA
BRANCH  11  12
ATOM     12  C   UNL     1       4.732   3.166  24.319  0.00  0.00    +0.340 C 
ATOM     13  O   UNL     1       3.639   3.684  24.499  0.00  0.00    -0.245 OA
BRANCH  12  14
ATOM     14  C   UNL     1       5.977   4.016  23.882  0.00  0.00    +0.066 A 
ATOM     15  C   UNL     1       7.165   4.074  24.646  0.00  0.00    +0.064 A 
ATOM     16  C   UNL     1       8.256   4.863  24.258  0.00  0.00    +0.163 A 
ATOM     17  C   UNL     1       8.231   5.625  23.102  0.00  0.00    +0.201 A 
ATOM     18  C   UNL     1       7.087   5.627  22.317  0.00  0.00    +0.163 A 
ATOM     19  C   UNL     1       5.962   4.856  22.700  0.00  0.00    +0.064 A 
BRANCH  18  20
ATOM     20  O   UNL     1       7.150   6.409  21.198  0.00  0.00    -0.503 OA
ATOM     21  H   UNL     1       7.881   7.051  21.286  0.00  0.00    +0.292 HD
ENDBRANCH  18  20
BRANCH  17  22
ATOM     22  O   UNL     1       9.330   6.346  22.756  0.00  0.00    -0.501 OA
ATOM     23  H   UNL     1       9.875   6.437  23.569  0.00  0.00    +0.292 HD
ENDBRANCH  17  22
BRANCH  16  24
ATOM     24  O   UNL     1       9.401   4.916  25.025  0.00  0.00    -0.503 OA
ATOM     25  H   UNL     1       9.939   5.626  24.614  0.00  0.00    +0.292 HD
ENDBRANCH  16  24
ENDBRANCH  12  14
ENDBRANCH  11  12
ENDBRANCH   6  11
BRANCH   3  26
ATOM     26  C   UNL     1       6.977   1.144  29.659  0.00  0.00    +0.190 C 
BRANCH  26  27
ATOM     27  O   UNL     1       8.407   1.054  29.711  0.00  0.00    -0.392 OA
ATOM     28  H   UNL     1       8.748   1.934  29.977  0.00  0.00    +0.210 HD
ENDBRANCH  26  27
ENDBRANCH   3  26
BRANCH   1  29
ATOM     29  O   UNL     1       7.211  -0.530  26.467  0.00  0.00    -0.452 OA
BRANCH  29  40
ATOM     30  C   UNL     1       7.893  -1.414  24.295  0.00  0.00    +0.181 A 
ATOM     31  O   UNL     1       7.768  -2.374  23.290  0.00  0.00    -0.451 OA
ATOM     32  C   UNL     1       7.044  -3.503  23.464  0.00  0.00    +0.147 A 
ATOM     33  C   UNL     1       6.468  -3.832  24.678  0.00  0.00    +0.109 A 
ATOM     34  C   UNL     1       5.790  -5.057  24.790  0.00  0.00    +0.135 A 
ATOM     35  C   UNL     1       5.699  -5.927  23.696  0.00  0.00    +0.091 A 
ATOM     36  C   UNL     1       6.265  -5.557  22.478  0.00  0.00    +0.124 A 
ATOM     37  C   UNL     1       6.581  -2.852  25.777  0.00  0.00    +0.238 A 
ATOM     38  O   UNL     1       6.039  -3.107  26.848  0.00  0.00    -0.283 OA
ATOM     39  C   UNL     1       6.930  -4.349  22.352  0.00  0.00    +0.092 A 
ATOM     40  C   UNL     1       7.329  -1.562  25.533  0.00  0.00    +0.214 A 
BRANCH  30  42
ATOM     41  C   UNL     1      10.002  -0.002  24.355  0.00  0.00    +0.015 A 
ATOM     42  C   UNL     1       8.761  -0.305  23.729  0.00  0.00    +0.025 A 
ATOM     43  C   UNL     1       8.350   0.583  22.736  0.00  0.00    +0.060 A 
ATOM     44  C   UNL     1       9.111   1.712  22.418  0.00  0.00    +0.159 A 
ATOM     45  C   UNL     1      10.293   2.015  23.098  0.00  0.00    +0.158 A 
ATOM     46  C   UNL     1      10.753   1.153  24.066  0.00  0.00    +0.050 A 
BRANCH  45  47
ATOM     47  O   UNL     1      10.931   3.185  22.790  0.00  0.00    -0.503 OA
ATOM     48  H   UNL     1      11.873   3.086  23.018  0.00  0.00    +0.292 HD
ENDBRANCH  45  47
BRANCH  44  49
ATOM     49  O   UNL     1       8.662   2.563  21.444  0.00  0.00    -0.503 OA
ATOM     50  H   UNL     1       7.690   2.594  21.566  0.00  0.00    +0.292 HD
ENDBRANCH  44  49
ENDBRANCH  30  42
BRANCH  36  51
ATOM     51  O   UNL     1       6.191  -6.365  21.382  0.00  0.00    -0.507 OA
ATOM     52  H   UNL     1       5.260  -6.589  21.207  0.00  0.00    +0.292 HD
ENDBRANCH  36  51
BRANCH  34  53
ATOM     53  O   UNL     1       5.191  -5.478  25.945  0.00  0.00    -0.506 OA
ATOM     54  H   UNL     1       4.250  -5.688  25.746  0.00  0.00    +0.292 HD
ENDBRANCH  34  53
ENDBRANCH  29  40
ENDBRANCH   1  29
TORSDOF 17
ENDMDL
MODEL 6
REMARK VINA RESULT:      -6.9      2.584      5.640
REMARK  Name = 
REMARK  17 active torsions:
REMARK  status: ('A' for Active; 'I' for Inactive)
REMARK    1  A    between atoms: C_3  and  O_49
REMARK    2  A    between atoms: C_4  and  O_48
REMARK    3  A    between atoms: C_6  and  C_7
REMARK    4  A    between atoms: C_8  and  O_20
REMARK    5  A    between atoms: C_12  and  O_19
REMARK    6  A    between atoms: C_14  and  O_18
REMARK    7  A    between atoms: O_20  and  C_21
REMARK    8  A    between atoms: C_23  and  O_36
REMARK    9  A    between atoms: C_25  and  O_35
REMARK   10  A    between atoms: C_27  and  O_34
REMARK   11  A    between atoms: C_29  and  C_32
REMARK   12  A    between atoms: C_32  and  O_33
REMARK   13  A    between atoms: O_36  and  C_37
REMARK   14  A    between atoms: C_37  and  C_39
REMARK   15  A    between atoms: C_41  and  O_47
REMARK   16  A    between atoms: C_42  and  O_46
REMARK   17  A    between atoms: C_43  and  O_45
REMARK                            x       y       z     vdW  Elec       q    Type
REMARK                         _______ _______ _______ _____ _____    ______ ____
ROOT
ATOM      1  C   UNL     1       9.184  -1.038  24.874  0.00  0.00    +0.352 C 
ATOM      2  O   UNL     1      10.253  -0.238  24.322  0.00  0.00    -0.330 OA
ATOM      3  C   UNL     1      10.380   0.052  22.919  0.00  0.00    +0.179 C 
ATOM      4  C   UNL     1       9.912  -1.070  21.971  0.00  0.00    +0.178 C 
ATOM      5  C   UNL     1       8.807  -1.969  22.547  0.00  0.00    +0.192 C 
ATOM      6  C   UNL     1       8.925  -2.364  24.055  0.00  0.00    +0.276 C 
ENDROOT
BRANCH   5   7
ATOM      7  O   UNL     1       7.581  -1.212  22.316  0.00  0.00    -0.385 OA
ATOM      8  H   UNL     1       7.529  -1.000  21.359  0.00  0.00    +0.210 HD
ENDBRANCH   5   7
BRANCH   4   9
ATOM      9  O   UNL     1       9.465  -0.522  20.706  0.00  0.00    -0.386 OA
ATOM     10  H   UNL     1      10.089  -0.867  20.027  0.00  0.00    +0.210 HD
ENDBRANCH   4   9
BRANCH   6  11
ATOM     11  O   UNL     1       9.427  -3.785  24.317  0.00  0.00    -0.449 OA
BRANCH  11  12
ATOM     12  C   UNL     1       8.780  -4.926  24.747  0.00  0.00    +0.340 C 
ATOM     13  O   UNL     1       9.230  -5.644  25.628  0.00  0.00    -0.245 OA
BRANCH  12  14
ATOM     14  C   UNL     1       7.426  -5.266  24.029  0.00  0.00    +0.066 A 
ATOM     15  C   UNL     1       6.249  -5.592  24.740  0.00  0.00    +0.064 A 
ATOM     16  C   UNL     1       5.056  -5.923  24.083  0.00  0.00    +0.163 A 
ATOM     17  C   UNL     1       4.965  -5.944  22.701  0.00  0.00    +0.201 A 
ATOM     18  C   UNL     1       6.090  -5.651  21.944  0.00  0.00    +0.163 A 
ATOM     19  C   UNL     1       7.314  -5.336  22.584  0.00  0.00    +0.064 A 
BRANCH  18  20
ATOM     20  O   UNL     1       5.910  -5.698  20.590  0.00  0.00    -0.503 OA
ATOM     21  H   UNL     1       6.750  -5.937  20.154  0.00  0.00    +0.292 HD
ENDBRANCH  18  20
BRANCH  17  22
ATOM     22  O   UNL     1       3.775  -6.240  22.116  0.00  0.00    -0.501 OA
ATOM     23  H   UNL     1       3.171  -5.488  22.308  0.00  0.00    +0.292 HD
ENDBRANCH  17  22
BRANCH  16  24
ATOM     24  O   UNL     1       3.922  -6.251  24.795  0.00  0.00    -0.503 OA
ATOM     25  H   UNL     1       3.698  -5.435  25.291  0.00  0.00    +0.292 HD
ENDBRANCH  16  24
ENDBRANCH  12  14
ENDBRANCH  11  12
ENDBRANCH   6  11
BRANCH   3  26
ATOM     26  C   UNL     1       9.965   1.506  22.537  0.00  0.00    +0.190 C 
BRANCH  26  27
ATOM     27  O   UNL     1       8.550   1.736  22.585  0.00  0.00    -0.392 OA
ATOM     28  H   UNL     1       8.346   2.135  23.457  0.00  0.00    +0.210 HD
ENDBRANCH  26  27
ENDBRANCH   3  26
BRANCH   1  29
ATOM     29  O   UNL     1       7.875  -0.335  24.838  0.00  0.00    -0.452 OA
BRANCH  29  40
ATOM     30  C   UNL     1       6.311  -0.255  26.712  0.00  0.00    +0.181 A 
ATOM     31  O   UNL     1       5.556   0.487  27.622  0.00  0.00    -0.451 OA
ATOM     32  C   UNL     1       5.712   1.822  27.762  0.00  0.00    +0.147 A 
ATOM     33  C   UNL     1       6.697   2.526  27.093  0.00  0.00    +0.109 A 
ATOM     34  C   UNL     1       6.833   3.900  27.349  0.00  0.00    +0.135 A 
ATOM     35  C   UNL     1       5.989   4.545  28.261  0.00  0.00    +0.091 A 
ATOM     36  C   UNL     1       4.987   3.817  28.899  0.00  0.00    +0.124 A 
ATOM     37  C   UNL     1       7.530   1.784  26.125  0.00  0.00    +0.238 A 
ATOM     38  O   UNL     1       8.381   2.400  25.490  0.00  0.00    -0.283 OA
ATOM     39  C   UNL     1       4.838   2.464  28.651  0.00  0.00    +0.092 A 
ATOM     40  C   UNL     1       7.284   0.306  25.929  0.00  0.00    +0.214 A 
BRANCH  30  42
ATOM     41  C   UNL     1       4.458  -1.988  26.793  0.00  0.00    +0.015 A 
ATOM     42  C   UNL     1       5.849  -1.695  26.837  0.00  0.00    +0.025 A 
ATOM     43  C   UNL     1       6.682  -2.758  27.181  0.00  0.00    +0.060 A 
ATOM     44  C   UNL     1       6.156  -4.015  27.494  0.00  0.00    +0.159 A 
ATOM     45  C   UNL     1       4.780  -4.251  27.505  0.00  0.00    +0.158 A 
ATOM     46  C   UNL     1       3.919  -3.241  27.144  0.00  0.00    +0.050 A 
BRANCH  45  47
ATOM     47  O   UNL     1       4.340  -5.482  27.910  0.00  0.00    -0.503 OA
ATOM     48  H   UNL     1       4.535  -5.576  28.859  0.00  0.00    +0.292 HD
ENDBRANCH  45  47
BRANCH  44  49
ATOM     49  O   UNL     1       7.011  -5.027  27.839  0.00  0.00    -0.503 OA
ATOM     50  H   UNL     1       7.896  -4.605  27.880  0.00  0.00    +0.292 HD
ENDBRANCH  44  49
ENDBRANCH  30  42
BRANCH  36  51
ATOM     51  O   UNL     1       4.133   4.404  29.786  0.00  0.00    -0.507 OA
ATOM     52  H   UNL     1       3.225   4.357  29.439  0.00  0.00    +0.292 HD
ENDBRANCH  36  51
BRANCH  34  53
ATOM     53  O   UNL     1       7.778   4.684  26.744  0.00  0.00    -0.506 OA
ATOM     54  H   UNL     1       7.831   5.536  27.234  0.00  0.00    +0.292 HD
ENDBRANCH  34  53
ENDBRANCH  29  40
ENDBRANCH   1  29
TORSDOF 17
ENDMDL
MODEL 7
REMARK VINA RESULT:      -6.9      1.667      2.347
REMARK  Name = 
REMARK  17 active torsions:
REMARK  status: ('A' for Active; 'I' for Inactive)
REMARK    1  A    between atoms: C_3  and  O_49
REMARK    2  A    between atoms: C_4  and  O_48
REMARK    3  A    between atoms: C_6  and  C_7
REMARK    4  A    between atoms: C_8  and  O_20
REMARK    5  A    between atoms: C_12  and  O_19
REMARK    6  A    between atoms: C_14  and  O_18
REMARK    7  A    between atoms: O_20  and  C_21
REMARK    8  A    between atoms: C_23  and  O_36
REMARK    9  A    between atoms: C_25  and  O_35
REMARK   10  A    between atoms: C_27  and  O_34
REMARK   11  A    between atoms: C_29  and  C_32
REMARK   12  A    between atoms: C_32  and  O_33
REMARK   13  A    between atoms: O_36  and  C_37
REMARK   14  A    between atoms: C_37  and  C_39
REMARK   15  A    between atoms: C_41  and  O_47
REMARK   16  A    between atoms: C_42  and  O_46
REMARK   17  A    between atoms: C_43  and  O_45
REMARK                            x       y       z     vdW  Elec       q    Type
REMARK                         _______ _______ _______ _____ _____    ______ ____
ROOT
ATOM      1  C   UNL     1       4.997  -0.217  26.404  0.00  0.00    +0.352 C 
ATOM      2  O   UNL     1       3.812   0.605  26.318  0.00  0.00    -0.330 OA
ATOM      3  C   UNL     1       3.182   1.207  27.464  0.00  0.00    +0.179 C 
ATOM      4  C   UNL     1       3.251   0.379  28.762  0.00  0.00    +0.178 C 
ATOM      5  C   UNL     1       4.477  -0.543  28.864  0.00  0.00    +0.192 C 
ATOM      6  C   UNL     1       4.917  -1.289  27.563  0.00  0.00    +0.276 C 
ENDROOT
BRANCH   5   7
ATOM      7  O   UNL     1       5.543   0.340  29.326  0.00  0.00    -0.385 OA
ATOM      8  H   UNL     1       5.131   1.090  29.807  0.00  0.00    +0.210 HD
ENDBRANCH   5   7
BRANCH   4   9
ATOM      9  O   UNL     1       3.209   1.241  29.925  0.00  0.00    -0.386 OA
ATOM     10  H   UNL     1       4.114   1.217  30.312  0.00  0.00    +0.210 HD
ENDBRANCH   4   9
BRANCH   6  11
ATOM     11  O   UNL     1       4.525  -2.766  27.497  0.00  0.00    -0.449 OA
BRANCH  11  12
ATOM     12  C   UNL     1       5.259  -3.902  27.225  0.00  0.00    +0.340 C 
ATOM     13  O   UNL     1       6.070  -4.366  28.015  0.00  0.00    -0.245 OA
BRANCH  12  14
ATOM     14  C   UNL     1       5.007  -4.572  25.828  0.00  0.00    +0.066 A 
ATOM     15  C   UNL     1       5.107  -3.857  24.613  0.00  0.00    +0.064 A 
ATOM     16  C   UNL     1       4.847  -4.463  23.376  0.00  0.00    +0.163 A 
ATOM     17  C   UNL     1       4.483  -5.795  23.277  0.00  0.00    +0.201 A 
ATOM     18  C   UNL     1       4.349  -6.548  24.435  0.00  0.00    +0.163 A 
ATOM     19  C   UNL     1       4.583  -5.954  25.699  0.00  0.00    +0.064 A 
BRANCH  18  20
ATOM     20  O   UNL     1       3.985  -7.851  24.243  0.00  0.00    -0.503 OA
ATOM     21  H   UNL     1       4.690  -8.322  23.760  0.00  0.00    +0.292 HD
ENDBRANCH  18  20
BRANCH  17  22
ATOM     22  O   UNL     1       4.275  -6.340  22.049  0.00  0.00    -0.501 OA
ATOM     23  H   UNL     1       4.925  -7.072  21.952  0.00  0.00    +0.292 HD
ENDBRANCH  17  22
BRANCH  16  24
ATOM     24  O   UNL     1       4.937  -3.744  22.202  0.00  0.00    -0.503 OA
ATOM     25  H   UNL     1       4.589  -4.352  21.515  0.00  0.00    +0.292 HD
ENDBRANCH  16  24
ENDBRANCH  12  14
ENDBRANCH  11  12
ENDBRANCH   6  11
BRANCH   3  26
ATOM     26  C   UNL     1       3.449   2.737  27.597  0.00  0.00    +0.190 C 
BRANCH  26  27
ATOM     27  O   UNL     1       4.712   3.054  28.199  0.00  0.00    -0.392 OA
ATOM     28  H   UNL     1       5.279   3.449  27.503  0.00  0.00    +0.210 HD
ENDBRANCH  26  27
ENDBRANCH   3  26
BRANCH   1  29
ATOM     29  O   UNL     1       6.211   0.575  26.735  0.00  0.00    -0.452 OA
BRANCH  29  40
ATOM     30  C   UNL     1       8.006   0.301  25.102  0.00  0.00    +0.181 A 
ATOM     31  O   UNL     1       9.066   0.841  24.373  0.00  0.00    -0.451 OA
ATOM     32  C   UNL     1       9.307   2.171  24.337  0.00  0.00    +0.147 A 
ATOM     33  C   UNL     1       8.462   3.091  24.932  0.00  0.00    +0.109 A 
ATOM     34  C   UNL     1       8.750   4.459  24.788  0.00  0.00    +0.135 A 
ATOM     35  C   UNL     1       9.869   4.882  24.059  0.00  0.00    +0.091 A 
ATOM     36  C   UNL     1      10.718   3.932  23.496  0.00  0.00    +0.124 A 
ATOM     37  C   UNL     1       7.319   2.570  25.707  0.00  0.00    +0.238 A 
ATOM     38  O   UNL     1       6.583   3.369  26.277  0.00  0.00    -0.283 OA
ATOM     39  C   UNL     1      10.450   2.581  23.636  0.00  0.00    +0.092 A 
ATOM     40  C   UNL     1       7.116   1.075  25.796  0.00  0.00    +0.214 A 
BRANCH  30  42
ATOM     41  C   UNL     1       8.462  -2.031  25.994  0.00  0.00    +0.015 A 
ATOM     42  C   UNL     1       8.068  -1.203  24.907  0.00  0.00    +0.025 A 
ATOM     43  C   UNL     1       7.944  -1.839  23.673  0.00  0.00    +0.060 A 
ATOM     44  C   UNL     1       8.229  -3.201  23.531  0.00  0.00    +0.159 A 
ATOM     45  C   UNL     1       8.677  -3.972  24.606  0.00  0.00    +0.158 A 
ATOM     46  C   UNL     1       8.787  -3.394  25.850  0.00  0.00    +0.050 A 
BRANCH  45  47
ATOM     47  O   UNL     1       9.022  -5.273  24.367  0.00  0.00    -0.503 OA
ATOM     48  H   UNL     1       8.839  -5.789  25.172  0.00  0.00    +0.292 HD
ENDBRANCH  45  47
BRANCH  44  49
ATOM     49  O   UNL     1       8.106  -3.781  22.298  0.00  0.00    -0.503 OA
ATOM     50  H   UNL     1       8.065  -3.029  21.670  0.00  0.00    +0.292 HD
ENDBRANCH  44  49
ENDBRANCH  30  42
BRANCH  36  51
ATOM     51  O   UNL     1      11.826   4.295  22.789  0.00  0.00    -0.507 OA
ATOM     52  H   UNL     1      11.603   4.343  21.842  0.00  0.00    +0.292 HD
ENDBRANCH  36  51
BRANCH  34  53
ATOM     53  O   UNL     1       7.976   5.448  25.331  0.00  0.00    -0.506 OA
ATOM     54  H   UNL     1       8.253   5.577  26.266  0.00  0.00    +0.292 HD
ENDBRANCH  34  53
ENDBRANCH  29  40
ENDBRANCH   1  29
TORSDOF 17
ENDMDL
MODEL 8
REMARK VINA RESULT:      -6.7      2.783      6.009
REMARK  Name = 
REMARK  17 active torsions:
REMARK  status: ('A' for Active; 'I' for Inactive)
REMARK    1  A    between atoms: C_3  and  O_49
REMARK    2  A    between atoms: C_4  and  O_48
REMARK    3  A    between atoms: C_6  and  C_7
REMARK    4  A    between atoms: C_8  and  O_20
REMARK    5  A    between atoms: C_12  and  O_19
REMARK    6  A    between atoms: C_14  and  O_18
REMARK    7  A    between atoms: O_20  and  C_21
REMARK    8  A    between atoms: C_23  and  O_36
REMARK    9  A    between atoms: C_25  and  O_35
REMARK   10  A    between atoms: C_27  and  O_34
REMARK   11  A    between atoms: C_29  and  C_32
REMARK   12  A    between atoms: C_32  and  O_33
REMARK   13  A    between atoms: O_36  and  C_37
REMARK   14  A    between atoms: C_37  and  C_39
REMARK   15  A    between atoms: C_41  and  O_47
REMARK   16  A    between atoms: C_42  and  O_46
REMARK   17  A    between atoms: C_43  and  O_45
REMARK                            x       y       z     vdW  Elec       q    Type
REMARK                         _______ _______ _______ _____ _____    ______ ____
ROOT
ATOM      1  C   UNL     1       8.330  -0.308  24.930  0.00  0.00    +0.352 C 
ATOM      2  O   UNL     1       9.547   0.337  24.496  0.00  0.00    -0.330 OA
ATOM      3  C   UNL     1      10.234  -0.007  23.279  0.00  0.00    +0.179 C 
ATOM      4  C   UNL     1      10.162  -1.495  22.882  0.00  0.00    +0.178 C 
ATOM      5  C   UNL     1       8.899  -2.223  23.369  0.00  0.00    +0.192 C 
ATOM      6  C   UNL     1       8.392  -1.882  24.808  0.00  0.00    +0.276 C 
ENDROOT
BRANCH   5   7
ATOM      7  O   UNL     1       7.886  -1.871  22.379  0.00  0.00    -0.385 OA
ATOM      8  H   UNL     1       8.054  -0.950  22.085  0.00  0.00    +0.210 HD
ENDBRANCH   5   7
BRANCH   4   9
ATOM      9  O   UNL     1      10.273  -1.650  21.445  0.00  0.00    -0.386 OA
ATOM     10  H   UNL     1      11.209  -1.900  21.272  0.00  0.00    +0.210 HD
ENDBRANCH   4   9
BRANCH   6  11
ATOM     11  O   UNL     1       8.715  -2.930  25.875  0.00  0.00    -0.449 OA
BRANCH  11  12
ATOM     12  C   UNL     1       8.788  -4.307  25.822  0.00  0.00    +0.340 C 
ATOM     13  O   UNL     1       9.819  -4.900  25.543  0.00  0.00    -0.245 OA
BRANCH  12  14
ATOM     14  C   UNL     1       7.458  -5.082  26.130  0.00  0.00    +0.066 A 
ATOM     15  C   UNL     1       6.586  -5.533  25.113  0.00  0.00    +0.064 A 
ATOM     16  C   UNL     1       5.387  -6.196  25.407  0.00  0.00    +0.163 A 
ATOM     17  C   UNL     1       4.994  -6.450  26.710  0.00  0.00    +0.201 A 
ATOM     18  C   UNL     1       5.796  -6.017  27.756  0.00  0.00    +0.163 A 
ATOM     19  C   UNL     1       7.002  -5.324  27.486  0.00  0.00    +0.064 A 
BRANCH  18  20
ATOM     20  O   UNL     1       5.330  -6.309  29.007  0.00  0.00    -0.503 OA
ATOM     21  H   UNL     1       5.124  -5.482  29.482  0.00  0.00    +0.292 HD
ENDBRANCH  18  20
BRANCH  17  22
ATOM     22  O   UNL     1       3.837  -7.127  26.937  0.00  0.00    -0.501 OA
ATOM     23  H   UNL     1       3.273  -6.543  27.492  0.00  0.00    +0.292 HD
ENDBRANCH  17  22
BRANCH  16  24
ATOM     24  O   UNL     1       4.544  -6.615  24.399  0.00  0.00    -0.503 OA
ATOM     25  H   UNL     1       4.576  -7.595  24.444  0.00  0.00    +0.292 HD
ENDBRANCH  16  24
ENDBRANCH  12  14
ENDBRANCH  11  12
ENDBRANCH   6  11
BRANCH   3  26
ATOM     26  C   UNL     1      10.039   1.031  22.132  0.00  0.00    +0.190 C 
BRANCH  26  27
ATOM     27  O   UNL     1       8.779   0.918  21.456  0.00  0.00    -0.392 OA
ATOM     28  H   UNL     1       8.952   0.524  20.575  0.00  0.00    +0.210 HD
ENDBRANCH  26  27
ENDBRANCH   3  26
BRANCH   1  29
ATOM     29  O   UNL     1       7.161   0.068  24.091  0.00  0.00    -0.452 OA
BRANCH  29  40
ATOM     30  C   UNL     1       5.176   0.757  25.336  0.00  0.00    +0.181 A 
ATOM     31  O   UNL     1       4.079   1.606  25.482  0.00  0.00    -0.451 OA
ATOM     32  C   UNL     1       3.927   2.717  24.726  0.00  0.00    +0.147 A 
ATOM     33  C   UNL     1       4.895   3.142  23.834  0.00  0.00    +0.109 A 
ATOM     34  C   UNL     1       4.687   4.345  23.139  0.00  0.00    +0.135 A 
ATOM     35  C   UNL     1       3.522   5.097  23.343  0.00  0.00    +0.091 A 
ATOM     36  C   UNL     1       2.552   4.630  24.225  0.00  0.00    +0.124 A 
ATOM     37  C   UNL     1       6.082   2.282  23.651  0.00  0.00    +0.238 A 
ATOM     38  O   UNL     1       6.931   2.622  22.833  0.00  0.00    -0.283 OA
ATOM     39  C   UNL     1       2.741   3.443  24.912  0.00  0.00    +0.092 A 
ATOM     40  C   UNL     1       6.191   1.005  24.451  0.00  0.00    +0.214 A 
BRANCH  30  42
ATOM     41  C   UNL     1       4.853  -1.704  25.868  0.00  0.00    +0.015 A 
ATOM     42  C   UNL     1       4.990  -0.368  26.337  0.00  0.00    +0.025 A 
ATOM     43  C   UNL     1       4.755  -0.176  27.697  0.00  0.00    +0.060 A 
ATOM     44  C   UNL     1       4.374  -1.240  28.521  0.00  0.00    +0.159 A 
ATOM     45  C   UNL     1       4.185  -2.528  28.015  0.00  0.00    +0.158 A 
ATOM     46  C   UNL     1       4.434  -2.772  26.685  0.00  0.00    +0.050 A 
BRANCH  45  47
ATOM     47  O   UNL     1       3.725  -3.494  28.867  0.00  0.00    -0.503 OA
ATOM     48  H   UNL     1       4.490  -3.996  29.198  0.00  0.00    +0.292 HD
ENDBRANCH  45  47
BRANCH  44  49
ATOM     49  O   UNL     1       4.141  -1.002  29.849  0.00  0.00    -0.503 OA
ATOM     50  H   UNL     1       4.164  -0.025  29.937  0.00  0.00    +0.292 HD
ENDBRANCH  44  49
ENDBRANCH  30  42
BRANCH  36  51
ATOM     51  O   UNL     1       1.397   5.320  24.448  0.00  0.00    -0.507 OA
ATOM     52  H   UNL     1       1.469   6.206  24.050  0.00  0.00    +0.292 HD
ENDBRANCH  36  51
BRANCH  34  53
ATOM     53  O   UNL     1       5.583   4.855  22.241  0.00  0.00    -0.506 OA
ATOM     54  H   UNL     1       5.989   5.661  22.634  0.00  0.00    +0.292 HD
ENDBRANCH  34  53
ENDBRANCH  29  40
ENDBRANCH   1  29
TORSDOF 17
ENDMDL
MODEL 9
REMARK VINA RESULT:      -6.6      2.521      7.465
REMARK  Name = 
REMARK  17 active torsions:
REMARK  status: ('A' for Active; 'I' for Inactive)
REMARK    1  A    between atoms: C_3  and  O_49
REMARK    2  A    between atoms: C_4  and  O_48
REMARK    3  A    between atoms: C_6  and  C_7
REMARK    4  A    between atoms: C_8  and  O_20
REMARK    5  A    between atoms: C_12  and  O_19
REMARK    6  A    between atoms: C_14  and  O_18
REMARK    7  A    between atoms: O_20  and  C_21
REMARK    8  A    between atoms: C_23  and  O_36
REMARK    9  A    between atoms: C_25  and  O_35
REMARK   10  A    between atoms: C_27  and  O_34
REMARK   11  A    between atoms: C_29  and  C_32
REMARK   12  A    between atoms: C_32  and  O_33
REMARK   13  A    between atoms: O_36  and  C_37
REMARK   14  A    between atoms: C_37  and  C_39
REMARK   15  A    between atoms: C_41  and  O_47
REMARK   16  A    between atoms: C_42  and  O_46
REMARK   17  A    between atoms: C_43  and  O_45
REMARK                            x       y       z     vdW  Elec       q    Type
REMARK                         _______ _______ _______ _____ _____    ______ ____
ROOT
ATOM      1  C   UNL     1       8.585  -0.603  25.205  0.00  0.00    +0.352 C 
ATOM      2  O   UNL     1       9.571   0.336  24.722  0.00  0.00    -0.330 OA
ATOM      3  C   UNL     1       9.949   0.445  23.338  0.00  0.00    +0.179 C 
ATOM      4  C   UNL     1       9.935  -0.878  22.547  0.00  0.00    +0.178 C 
ATOM      5  C   UNL     1       8.928  -1.918  23.065  0.00  0.00    +0.192 C 
ATOM      6  C   UNL     1       8.781  -2.056  24.615  0.00  0.00    +0.276 C 
ENDROOT
BRANCH   5   7
ATOM      7  O   UNL     1       7.661  -1.506  22.470  0.00  0.00    -0.385 OA
ATOM      8  H   UNL     1       7.853  -0.848  21.769  0.00  0.00    +0.210 HD
ENDBRANCH   5   7
BRANCH   4   9
ATOM      9  O   UNL     1       9.684  -0.635  21.141  0.00  0.00    -0.386 OA
ATOM     10  H   UNL     1       9.920  -1.470  20.676  0.00  0.00    +0.210 HD
ENDBRANCH   4   9
BRANCH   6  11
ATOM     11  O   UNL     1       9.482  -3.269  25.229  0.00  0.00    -0.449 OA
BRANCH  11  12
ATOM     12  C   UNL     1       9.358  -4.623  24.989  0.00  0.00    +0.340 C 
ATOM     13  O   UNL     1      10.283  -5.406  25.150  0.00  0.00    -0.245 OA
BRANCH  12  14
ATOM     14  C   UNL     1       7.954  -5.110  24.483  0.00  0.00    +0.066 A 
ATOM     15  C   UNL     1       6.899  -5.438  25.365  0.00  0.00    +0.064 A 
ATOM     16  C   UNL     1       5.662  -5.902  24.897  0.00  0.00    +0.163 A 
ATOM     17  C   UNL     1       5.405  -6.059  23.545  0.00  0.00    +0.201 A 
ATOM     18  C   UNL     1       6.405  -5.772  22.628  0.00  0.00    +0.163 A 
ATOM     19  C   UNL     1       7.672  -5.324  23.076  0.00  0.00    +0.064 A 
BRANCH  18  20
ATOM     20  O   UNL     1       6.064  -5.958  21.317  0.00  0.00    -0.503 OA
ATOM     21  H   UNL     1       6.679  -6.594  20.905  0.00  0.00    +0.292 HD
ENDBRANCH  18  20
BRANCH  17  22
ATOM     22  O   UNL     1       4.176  -6.481  23.146  0.00  0.00    -0.501 OA
ATOM     23  H   UNL     1       3.916  -5.913  22.386  0.00  0.00    +0.292 HD
ENDBRANCH  17  22
BRANCH  16  24
ATOM     24  O   UNL     1       4.650  -6.229  25.775  0.00  0.00    -0.503 OA
ATOM     25  H   UNL     1       4.585  -5.456  26.375  0.00  0.00    +0.292 HD
ENDBRANCH  16  24
ENDBRANCH  12  14
ENDBRANCH  11  12
ENDBRANCH   6  11
BRANCH   3  26
ATOM     26  C   UNL     1       9.352   1.694  22.619  0.00  0.00    +0.190 C 
BRANCH  26  27
ATOM     27  O   UNL     1      10.191   2.221  21.582  0.00  0.00    -0.392 OA
ATOM     28  H   UNL     1      11.109   2.235  21.925  0.00  0.00    +0.210 HD
ENDBRANCH  26  27
ENDBRANCH   3  26
BRANCH   1  29
ATOM     29  O   UNL     1       7.205  -0.234  24.793  0.00  0.00    -0.452 OA
BRANCH  29  40
ATOM     30  C   UNL     1       5.786   0.055  26.759  0.00  0.00    +0.181 A 
ATOM     31  O   UNL     1       4.772  -0.416  27.594  0.00  0.00    -0.451 OA
ATOM     32  C   UNL     1       4.010  -1.482  27.265  0.00  0.00    +0.147 A 
ATOM     33  C   UNL     1       4.110  -2.112  26.038  0.00  0.00    +0.109 A 
ATOM     34  C   UNL     1       3.232  -3.170  25.751  0.00  0.00    +0.135 A 
ATOM     35  C   UNL     1       2.275  -3.580  26.689  0.00  0.00    +0.091 A 
ATOM     36  C   UNL     1       2.215  -2.946  27.927  0.00  0.00    +0.124 A 
ATOM     37  C   UNL     1       5.162  -1.644  25.113  0.00  0.00    +0.238 A 
ATOM     38  O   UNL     1       5.295  -2.219  24.037  0.00  0.00    -0.283 OA
ATOM     39  C   UNL     1       3.079  -1.906  28.225  0.00  0.00    +0.092 A 
ATOM     40  C   UNL     1       6.054  -0.500  25.536  0.00  0.00    +0.214 A 
BRANCH  30  42
ATOM     41  C   UNL     1       6.744   1.137  28.845  0.00  0.00    +0.015 A 
ATOM     42  C   UNL     1       6.415   1.242  27.465  0.00  0.00    +0.025 A 
ATOM     43  C   UNL     1       6.531   2.514  26.909  0.00  0.00    +0.060 A 
ATOM     44  C   UNL     1       6.915   3.610  27.687  0.00  0.00    +0.159 A 
ATOM     45  C   UNL     1       7.169   3.485  29.055  0.00  0.00    +0.158 A 
ATOM     46  C   UNL     1       7.095   2.243  29.643  0.00  0.00    +0.050 A 
BRANCH  45  47
ATOM     47  O   UNL     1       7.451   4.619  29.765  0.00  0.00    -0.503 OA
ATOM     48  H   UNL     1       6.614   5.085  29.938  0.00  0.00    +0.292 HD
ENDBRANCH  45  47
BRANCH  44  49
ATOM     49  O   UNL     1       7.004   4.844  27.101  0.00  0.00    -0.503 OA
ATOM     50  H   UNL     1       7.511   4.693  26.275  0.00  0.00    +0.292 HD
ENDBRANCH  44  49
ENDBRANCH  30  42
BRANCH  36  51
ATOM     51  O   UNL     1       1.309  -3.317  28.877  0.00  0.00    -0.507 OA
ATOM     52  H   UNL     1       0.896  -4.160  28.617  0.00  0.00    +0.292 HD
ENDBRANCH  36  51
BRANCH  34  53
ATOM     53  O   UNL     1       3.245  -3.855  24.567  0.00  0.00    -0.506 OA
ATOM     54  H   UNL     1       4.164  -4.168  24.402  0.00  0.00    +0.292 HD
ENDBRANCH  34  53
ENDBRANCH  29  40
ENDBRANCH   1  29
TORSDOF 17
ENDMDL
