MODEL 1
REMARK VINA RESULT:      -7.2      0.000      0.000
REMARK  Name = 
REMARK  16 active torsions:
REMARK  status: ('A' for Active; 'I' for Inactive)
REMARK    1  A    between atoms: C_3  and  O_44
REMARK    2  A    between atoms: C_4  and  O_43
REMARK    3  A    between atoms: C_6  and  C_7
REMARK    4  A    between atoms: C_8  and  O_20
REMARK    5  A    between atoms: C_12  and  O_19
REMARK    6  A    between atoms: C_14  and  O_18
REMARK    7  A    between atoms: O_20  and  C_21
REMARK    8  A    between atoms: C_23  and  O_42
REMARK    9  A    between atoms: C_25  and  O_41
REMARK   10  A    between atoms: C_27  and  O_40
REMARK   11  A    between atoms: C_29  and  C_32
REMARK   12  A    between atoms: C_32  and  O_33
REMARK   13  A    between atoms: O_33  and  C_34
REMARK   14  A    between atoms: C_34  and  C_36
REMARK   15  A    between atoms: C_36  and  C_37
REMARK   16  A    between atoms: C_37  and  O_39
REMARK                            x       y       z     vdW  Elec       q    Type
REMARK                         _______ _______ _______ _____ _____    ______ ____
ROOT
ATOM      1  C   UNL     1       9.220   1.851  23.687  0.00  0.00    +0.181 A 
ATOM      2  O   UNL     1      10.518   2.228  23.288  0.00  0.00    -0.451 OA
ATOM      3  C   UNL     1      10.974   3.498  23.505  0.00  0.00    +0.147 A 
ATOM      4  C   UNL     1      10.159   4.502  23.974  0.00  0.00    +0.109 A 
ATOM      5  C   UNL     1      10.626   5.814  24.142  0.00  0.00    +0.135 A 
ATOM      6  C   UNL     1      11.936   6.119  23.855  0.00  0.00    +0.091 A 
ATOM      7  C   UNL     1      12.774   5.107  23.389  0.00  0.00    +0.124 A 
ATOM      8  C   UNL     1       8.796   4.167  24.296  0.00  0.00    +0.238 A 
ATOM      9  O   UNL     1       8.068   5.115  24.585  0.00  0.00    -0.283 OA
ATOM     10  C   UNL     1      12.305   3.800  23.210  0.00  0.00    +0.092 A 
ATOM     11  C   UNL     1       8.352   2.730  24.248  0.00  0.00    +0.214 A 
ENDROOT
BRANCH   1  13
ATOM     12  C   UNL     1       7.708   0.001  22.834  0.00  0.00    +0.015 A 
ATOM     13  C   UNL     1       8.976   0.390  23.337  0.00  0.00    +0.025 A 
ATOM     14  C   UNL     1       9.884  -0.654  23.581  0.00  0.00    +0.060 A 
ATOM     15  C   UNL     1       9.505  -1.983  23.389  0.00  0.00    +0.159 A 
ATOM     16  C   UNL     1       8.235  -2.336  22.957  0.00  0.00    +0.158 A 
ATOM     17  C   UNL     1       7.328  -1.343  22.652  0.00  0.00    +0.050 A 
BRANCH  16  18
ATOM     18  O   UNL     1       7.921  -3.664  22.868  0.00  0.00    -0.503 OA
ATOM     19  H   UNL     1       7.001  -3.782  23.157  0.00  0.00    +0.292 HD
ENDBRANCH  16  18
BRANCH  15  20
ATOM     20  O   UNL     1      10.411  -2.991  23.660  0.00  0.00    -0.503 OA
ATOM     21  H   UNL     1       9.975  -3.540  24.348  0.00  0.00    +0.292 HD
ENDBRANCH  15  20
ENDBRANCH   1  13
BRANCH   7  22
ATOM     22  O   UNL     1      14.072   5.374  23.074  0.00  0.00    -0.507 OA
ATOM     23  H   UNL     1      14.084   5.877  22.240  0.00  0.00    +0.292 HD
ENDBRANCH   7  22
BRANCH   5  24
ATOM     24  O   UNL     1       9.845   6.847  24.575  0.00  0.00    -0.506 OA
ATOM     25  H   UNL     1       9.810   6.810  25.557  0.00  0.00    +0.292 HD
ENDBRANCH   5  24
BRANCH  11  26
ATOM     26  O   UNL     1       7.090   2.380  24.724  0.00  0.00    -0.453 OA
BRANCH  26  27
ATOM     27  C   UNL     1       6.930   2.221  26.156  0.00  0.00    +0.340 C 
ATOM     28  O   UNL     1       7.566   1.007  26.529  0.00  0.00    -0.330 OA
ATOM     29  C   UNL     1       6.904   0.001  27.304  0.00  0.00    +0.191 C 
ATOM     30  C   UNL     1       5.355  -0.068  27.249  0.00  0.00    +0.178 C 
ATOM     31  C   UNL     1       4.789   0.922  26.241  0.00  0.00    +0.180 C 
ATOM     32  C   UNL     1       5.426   2.280  26.519  0.00  0.00    +0.214 C 
BRANCH  32  33
ATOM     33  O   UNL     1       5.214   2.624  27.905  0.00  0.00    -0.383 OA
ATOM     34  H   UNL     1       5.288   1.806  28.436  0.00  0.00    +0.210 HD
ENDBRANCH  32  33
BRANCH  31  35
ATOM     35  O   UNL     1       4.993   0.476  24.902  0.00  0.00    -0.386 OA
ATOM     36  H   UNL     1       5.775  -0.108  24.876  0.00  0.00    +0.210 HD
ENDBRANCH  31  35
BRANCH  30  37
ATOM     37  O   UNL     1       4.813   0.191  28.562  0.00  0.00    -0.386 OA
ATOM     38  H   UNL     1       4.606  -0.680  28.972  0.00  0.00    +0.210 HD
ENDBRANCH  30  37
BRANCH  29  39
ATOM     39  C   UNL     1       7.522  -1.278  26.723  0.00  0.00    +0.266 C 
BRANCH  39  40
ATOM     40  O   UNL     1       6.592  -2.119  26.051  0.00  0.00    -0.462 OA
BRANCH  40  41
ATOM     41  C   UNL     1       6.838  -3.450  26.156  0.00  0.00    +0.318 C 
ATOM     42  O   UNL     1       6.010  -4.342  26.043  0.00  0.00    -0.250 OA
BRANCH  41  43
ATOM     43  C   UNL     1       8.292  -3.666  26.422  0.00  0.00    +0.240 C 
BRANCH  43  44
ATOM     44  C   UNL     1       8.749  -5.018  25.992  0.00  0.00    +0.316 C 
ATOM     45  O   UNL     1       9.421  -5.267  25.001  0.00  0.00    -0.250 OA
BRANCH  44  46
ATOM     46  O   UNL     1       8.322  -6.003  26.825  0.00  0.00    -0.480 OA
ATOM     47  H   UNL     1       8.591  -6.901  26.554  0.00  0.00    +0.295 HD
ENDBRANCH  44  46
ENDBRANCH  43  44
ENDBRANCH  41  43
ENDBRANCH  40  41
ENDBRANCH  39  40
ENDBRANCH  29  39
ENDBRANCH  26  27
ENDBRANCH  11  26
TORSDOF 16
ENDMDL
MODEL 2
REMARK VINA RESULT:      -7.0      2.740      5.968
REMARK  Name = 
REMARK  16 active torsions:
REMARK  status: ('A' for Active; 'I' for Inactive)
REMARK    1  A    between atoms: C_3  and  O_44
REMARK    2  A    between atoms: C_4  and  O_43
REMARK    3  A    between atoms: C_6  and  C_7
REMARK    4  A    between atoms: C_8  and  O_20
REMARK    5  A    between atoms: C_12  and  O_19
REMARK    6  A    between atoms: C_14  and  O_18
REMARK    7  A    between atoms: O_20  and  C_21
REMARK    8  A    between atoms: C_23  and  O_42
REMARK    9  A    between atoms: C_25  and  O_41
REMARK   10  A    between atoms: C_27  and  O_40
REMARK   11  A    between atoms: C_29  and  C_32
REMARK   12  A    between atoms: C_32  and  O_33
REMARK   13  A    between atoms: O_33  and  C_34
REMARK   14  A    between atoms: C_34  and  C_36
REMARK   15  A    between atoms: C_36  and  C_37
REMARK   16  A    between atoms: C_37  and  O_39
REMARK                            x       y       z     vdW  Elec       q    Type
REMARK                         _______ _______ _______ _____ _____    ______ ____
ROOT
ATOM      1  C   UNL     1       8.107  -1.962  24.688  0.00  0.00    +0.181 A 
ATOM      2  O   UNL     1       8.199  -0.692  25.293  0.00  0.00    -0.451 OA
ATOM      3  C   UNL     1       8.368   0.432  24.534  0.00  0.00    +0.147 A 
ATOM      4  C   UNL     1       8.610   0.376  23.181  0.00  0.00    +0.109 A 
ATOM      5  C   UNL     1       8.836   1.536  22.423  0.00  0.00    +0.135 A 
ATOM      6  C   UNL     1       8.798   2.770  23.029  0.00  0.00    +0.091 A 
ATOM      7  C   UNL     1       8.544   2.838  24.398  0.00  0.00    +0.124 A 
ATOM      8  C   UNL     1       8.622  -0.919  22.552  0.00  0.00    +0.238 A 
ATOM      9  O   UNL     1       8.970  -0.936  21.373  0.00  0.00    -0.283 OA
ATOM     10  C   UNL     1       8.330   1.681  25.156  0.00  0.00    +0.092 A 
ATOM     11  C   UNL     1       8.236  -2.136  23.348  0.00  0.00    +0.214 A 
ENDROOT
BRANCH   1  13
ATOM     12  C   UNL     1       8.883  -4.054  25.896  0.00  0.00    +0.015 A 
ATOM     13  C   UNL     1       7.911  -3.030  25.754  0.00  0.00    +0.025 A 
ATOM     14  C   UNL     1       6.766  -3.158  26.558  0.00  0.00    +0.060 A 
ATOM     15  C   UNL     1       6.600  -4.270  27.384  0.00  0.00    +0.159 A 
ATOM     16  C   UNL     1       7.539  -5.288  27.454  0.00  0.00    +0.158 A 
ATOM     17  C   UNL     1       8.705  -5.178  26.725  0.00  0.00    +0.050 A 
BRANCH  16  18
ATOM     18  O   UNL     1       7.265  -6.379  28.232  0.00  0.00    -0.503 OA
ATOM     19  H   UNL     1       6.300  -6.472  28.301  0.00  0.00    +0.292 HD
ENDBRANCH  16  18
BRANCH  15  20
ATOM     20  O   UNL     1       5.451  -4.382  28.146  0.00  0.00    -0.503 OA
ATOM     21  H   UNL     1       5.008  -5.191  27.811  0.00  0.00    +0.292 HD
ENDBRANCH  15  20
ENDBRANCH   1  13
BRANCH   7  22
ATOM     22  O   UNL     1       8.518   4.041  25.037  0.00  0.00    -0.507 OA
ATOM     23  H   UNL     1       9.423   4.244  25.335  0.00  0.00    +0.292 HD
ENDBRANCH   7  22
BRANCH   5  24
ATOM     24  O   UNL     1       9.109   1.525  21.085  0.00  0.00    -0.506 OA
ATOM     25  H   UNL     1       8.877   0.635  20.736  0.00  0.00    +0.292 HD
ENDBRANCH   5  24
BRANCH  11  26
ATOM     26  O   UNL     1       8.078  -3.362  22.705  0.00  0.00    -0.453 OA
BRANCH  26  27
ATOM     27  C   UNL     1       6.855  -3.578  21.956  0.00  0.00    +0.340 C 
ATOM     28  O   UNL     1       5.769  -3.183  22.782  0.00  0.00    -0.330 OA
ATOM     29  C   UNL     1       4.644  -4.034  23.027  0.00  0.00    +0.191 C 
ATOM     30  C   UNL     1       4.842  -5.567  22.904  0.00  0.00    +0.178 C 
ATOM     31  C   UNL     1       6.299  -5.922  22.644  0.00  0.00    +0.180 C 
ATOM     32  C   UNL     1       6.787  -5.052  21.490  0.00  0.00    +0.214 C 
BRANCH  32  33
ATOM     33  O   UNL     1       5.901  -5.225  20.363  0.00  0.00    -0.383 OA
ATOM     34  H   UNL     1       6.375  -4.939  19.557  0.00  0.00    +0.210 HD
ENDBRANCH  32  33
BRANCH  31  35
ATOM     35  O   UNL     1       7.089  -5.776  23.822  0.00  0.00    -0.386 OA
ATOM     36  H   UNL     1       7.149  -4.828  24.050  0.00  0.00    +0.210 HD
ENDBRANCH  31  35
BRANCH  30  37
ATOM     37  O   UNL     1       4.006  -6.079  21.844  0.00  0.00    -0.386 OA
ATOM     38  H   UNL     1       3.093  -6.164  22.204  0.00  0.00    +0.210 HD
ENDBRANCH  30  37
BRANCH  29  39
ATOM     39  C   UNL     1       4.288  -3.649  24.470  0.00  0.00    +0.266 C 
BRANCH  39  40
ATOM     40  O   UNL     1       4.170  -4.758  25.354  0.00  0.00    -0.462 OA
BRANCH  40  41
ATOM     41  C   UNL     1       3.069  -4.747  26.148  0.00  0.00    +0.318 C 
ATOM     42  O   UNL     1       2.607  -3.769  26.717  0.00  0.00    -0.250 OA
BRANCH  41  43
ATOM     43  C   UNL     1       2.491  -6.123  26.214  0.00  0.00    +0.240 C 
BRANCH  43  44
ATOM     44  C   UNL     1       3.515  -7.177  25.968  0.00  0.00    +0.316 C 
ATOM     45  O   UNL     1       3.488  -8.009  25.071  0.00  0.00    -0.250 OA
BRANCH  44  46
ATOM     46  O   UNL     1       4.523  -7.149  26.879  0.00  0.00    -0.480 OA
ATOM     47  H   UNL     1       5.415  -7.095  26.487  0.00  0.00    +0.295 HD
ENDBRANCH  44  46
ENDBRANCH  43  44
ENDBRANCH  41  43
ENDBRANCH  40  41
ENDBRANCH  39  40
ENDBRANCH  29  39
ENDBRANCH  26  27
ENDBRANCH  11  26
TORSDOF 16
ENDMDL
MODEL 3
REMARK VINA RESULT:      -6.8      2.974      7.880
REMARK  Name = 
REMARK  16 active torsions:
REMARK  status: ('A' for Active; 'I' for Inactive)
REMARK    1  A    between atoms: C_3  and  O_44
REMARK    2  A    between atoms: C_4  and  O_43
REMARK    3  A    between atoms: C_6  and  C_7
REMARK    4  A    between atoms: C_8  and  O_20
REMARK    5  A    between atoms: C_12  and  O_19
REMARK    6  A    between atoms: C_14  and  O_18
REMARK    7  A    between atoms: O_20  and  C_21
REMARK    8  A    between atoms: C_23  and  O_42
REMARK    9  A    between atoms: C_25  and  O_41
REMARK   10  A    between atoms: C_27  and  O_40
REMARK   11  A    between atoms: C_29  and  C_32
REMARK   12  A    between atoms: C_32  and  O_33
REMARK   13  A    between atoms: O_33  and  C_34
REMARK   14  A    between atoms: C_34  and  C_36
REMARK   15  A    between atoms: C_36  and  C_37
REMARK   16  A    between atoms: C_37  and  O_39
REMARK                            x       y       z     vdW  Elec       q    Type
REMARK                         _______ _______ _______ _____ _____    ______ ____
ROOT
ATOM      1  C   UNL     1       6.724  -1.130  26.730  0.00  0.00    +0.181 A 
ATOM      2  O   UNL     1       5.666  -1.853  27.318  0.00  0.00    -0.451 OA
ATOM      3  C   UNL     1       5.774  -3.199  27.531  0.00  0.00    +0.147 A 
ATOM      4  C   UNL     1       6.833  -3.937  27.054  0.00  0.00    +0.109 A 
ATOM      5  C   UNL     1       6.904  -5.326  27.234  0.00  0.00    +0.135 A 
ATOM      6  C   UNL     1       5.909  -5.982  27.920  0.00  0.00    +0.091 A 
ATOM      7  C   UNL     1       4.836  -5.242  28.416  0.00  0.00    +0.124 A 
ATOM      8  C   UNL     1       7.882  -3.236  26.359  0.00  0.00    +0.238 A 
ATOM      9  O   UNL     1       8.740  -3.945  25.837  0.00  0.00    -0.283 OA
ATOM     10  C   UNL     1       4.759  -3.857  28.228  0.00  0.00    +0.092 A 
ATOM     11  C   UNL     1       7.862  -1.733  26.302  0.00  0.00    +0.214 A 
ENDROOT
BRANCH   1  13
ATOM     12  C   UNL     1       5.370   0.735  25.669  0.00  0.00    +0.015 A 
ATOM     13  C   UNL     1       6.347   0.340  26.619  0.00  0.00    +0.025 A 
ATOM     14  C   UNL     1       6.979   1.384  27.316  0.00  0.00    +0.060 A 
ATOM     15  C   UNL     1       6.685   2.715  27.021  0.00  0.00    +0.159 A 
ATOM     16  C   UNL     1       5.770   3.071  26.040  0.00  0.00    +0.158 A 
ATOM     17  C   UNL     1       5.084   2.080  25.369  0.00  0.00    +0.050 A 
BRANCH  16  18
ATOM     18  O   UNL     1       5.595   4.398  25.760  0.00  0.00    -0.503 OA
ATOM     19  H   UNL     1       6.417   4.869  25.979  0.00  0.00    +0.292 HD
ENDBRANCH  16  18
BRANCH  15  20
ATOM     20  O   UNL     1       7.340   3.721  27.706  0.00  0.00    -0.503 OA
ATOM     21  H   UNL     1       8.277   3.431  27.739  0.00  0.00    +0.292 HD
ENDBRANCH  15  20
ENDBRANCH   1  13
BRANCH   7  22
ATOM     22  O   UNL     1       3.821  -5.859  29.083  0.00  0.00    -0.507 OA
ATOM     23  H   UNL     1       4.158  -6.703  29.433  0.00  0.00    +0.292 HD
ENDBRANCH   7  22
BRANCH   5  24
ATOM     24  O   UNL     1       7.920  -6.101  26.752  0.00  0.00    -0.506 OA
ATOM     25  H   UNL     1       7.791  -7.015  27.092  0.00  0.00    +0.292 HD
ENDBRANCH   5  24
BRANCH  11  26
ATOM     26  O   UNL     1       8.958  -1.046  25.786  0.00  0.00    -0.453 OA
BRANCH  26  27
ATOM     27  C   UNL     1       8.781  -0.335  24.534  0.00  0.00    +0.340 C 
ATOM     28  O   UNL     1       7.714  -0.958  23.832  0.00  0.00    -0.330 OA
ATOM     29  C   UNL     1       7.838  -1.387  22.472  0.00  0.00    +0.191 C 
ATOM     30  C   UNL     1       9.254  -1.724  21.934  0.00  0.00    +0.178 C 
ATOM     31  C   UNL     1      10.301  -1.648  23.036  0.00  0.00    +0.180 C 
ATOM     32  C   UNL     1      10.118  -0.315  23.755  0.00  0.00    +0.214 C 
BRANCH  32  33
ATOM     33  O   UNL     1      10.166   0.754  22.786  0.00  0.00    -0.383 OA
ATOM     34  H   UNL     1       9.319   1.241  22.829  0.00  0.00    +0.210 HD
ENDBRANCH  32  33
BRANCH  31  35
ATOM     35  O   UNL     1      10.217  -2.769  23.914  0.00  0.00    -0.386 OA
ATOM     36  H   UNL     1       9.685  -3.468  23.488  0.00  0.00    +0.210 HD
ENDBRANCH  31  35
BRANCH  30  37
ATOM     37  O   UNL     1       9.591  -0.820  20.860  0.00  0.00    -0.386 OA
ATOM     38  H   UNL     1      10.161  -0.112  21.240  0.00  0.00    +0.210 HD
ENDBRANCH  30  37
BRANCH  29  39
ATOM     39  C   UNL     1       6.947  -2.636  22.470  0.00  0.00    +0.266 C 
BRANCH  39  40
ATOM     40  O   UNL     1       7.644  -3.844  22.185  0.00  0.00    -0.462 OA
BRANCH  40  41
ATOM     41  C   UNL     1       7.413  -4.860  23.056  0.00  0.00    +0.318 C 
ATOM     42  O   UNL     1       8.243  -5.667  23.449  0.00  0.00    -0.250 OA
BRANCH  41  43
ATOM     43  C   UNL     1       5.980  -4.838  23.477  0.00  0.00    +0.240 C 
BRANCH  43  44
ATOM     44  C   UNL     1       5.120  -5.675  22.593  0.00  0.00    +0.316 C 
ATOM     45  O   UNL     1       3.898  -5.713  22.607  0.00  0.00    -0.250 OA
BRANCH  44  46
ATOM     46  O   UNL     1       5.844  -6.446  21.739  0.00  0.00    -0.480 OA
ATOM     47  H   UNL     1       6.203  -7.260  22.141  0.00  0.00    +0.295 HD
ENDBRANCH  44  46
ENDBRANCH  43  44
ENDBRANCH  41  43
ENDBRANCH  40  41
ENDBRANCH  39  40
ENDBRANCH  29  39
ENDBRANCH  26  27
ENDBRANCH  11  26
TORSDOF 16
ENDMDL
MODEL 4
REMARK VINA RESULT:      -6.8      1.987      7.521
REMARK  Name = 
REMARK  16 active torsions:
REMARK  status: ('A' for Active; 'I' for Inactive)
REMARK    1  A    between atoms: C_3  and  O_44
REMARK    2  A    between atoms: C_4  and  O_43
REMARK    3  A    between atoms: C_6  and  C_7
REMARK    4  A    between atoms: C_8  and  O_20
REMARK    5  A    between atoms: C_12  and  O_19
REMARK    6  A    between atoms: C_14  and  O_18
REMARK    7  A    between atoms: O_20  and  C_21
REMARK    8  A    between atoms: C_23  and  O_42
REMARK    9  A    between atoms: C_25  and  O_41
REMARK   10  A    between atoms: C_27  and  O_40
REMARK   11  A    between atoms: C_29  and  C_32
REMARK   12  A    between atoms: C_32  and  O_33
REMARK   13  A    between atoms: O_33  and  C_34
REMARK   14  A    between atoms: C_34  and  C_36
REMARK   15  A    between atoms: C_36  and  C_37
REMARK   16  A    between atoms: C_37  and  O_39
REMARK                            x       y       z     vdW  Elec       q    Type
REMARK                         _______ _______ _______ _____ _____    ______ ____
ROOT
ATOM      1  C   UNL     1       7.922  -1.679  24.130  0.00  0.00    +0.181 A 
ATOM      2  O   UNL     1       7.797  -2.552  23.031  0.00  0.00    -0.451 OA
ATOM      3  C   UNL     1       7.030  -3.680  23.120  0.00  0.00    +0.147 A 
ATOM      4  C   UNL     1       6.474  -4.101  24.306  0.00  0.00    +0.109 A 
ATOM      5  C   UNL     1       5.733  -5.289  24.393  0.00  0.00    +0.135 A 
ATOM      6  C   UNL     1       5.530  -6.056  23.270  0.00  0.00    +0.091 A 
ATOM      7  C   UNL     1       6.081  -5.634  22.061  0.00  0.00    +0.124 A 
ATOM      8  C   UNL     1       6.671  -3.276  25.470  0.00  0.00    +0.238 A 
ATOM      9  O   UNL     1       6.272  -3.751  26.532  0.00  0.00    -0.283 OA
ATOM     10  C   UNL     1       6.830  -4.454  21.975  0.00  0.00    +0.092 A 
ATOM     11  C   UNL     1       7.342  -1.937  25.329  0.00  0.00    +0.214 A 
ENDROOT
BRANCH   1  13
ATOM     12  C   UNL     1       9.966  -0.235  24.547  0.00  0.00    +0.015 A 
ATOM     13  C   UNL     1       8.819  -0.506  23.759  0.00  0.00    +0.025 A 
ATOM     14  C   UNL     1       8.541   0.424  22.743  0.00  0.00    +0.060 A 
ATOM     15  C   UNL     1       9.329   1.565  22.590  0.00  0.00    +0.159 A 
ATOM     16  C   UNL     1      10.408   1.836  23.419  0.00  0.00    +0.158 A 
ATOM     17  C   UNL     1      10.752   0.923  24.394  0.00  0.00    +0.050 A 
BRANCH  16  18
ATOM     18  O   UNL     1      11.082   3.014  23.250  0.00  0.00    -0.503 OA
ATOM     19  H   UNL     1      10.451   3.688  22.948  0.00  0.00    +0.292 HD
ENDBRANCH  16  18
BRANCH  15  20
ATOM     20  O   UNL     1       9.017   2.475  21.598  0.00  0.00    -0.503 OA
ATOM     21  H   UNL     1       8.777   1.925  20.821  0.00  0.00    +0.292 HD
ENDBRANCH  15  20
ENDBRANCH   1  13
BRANCH   7  22
ATOM     22  O   UNL     1       5.919  -6.377  20.930  0.00  0.00    -0.507 OA
ATOM     23  H   UNL     1       5.042  -6.174  20.558  0.00  0.00    +0.292 HD
ENDBRANCH   7  22
BRANCH   5  24
ATOM     24  O   UNL     1       5.190  -5.759  25.555  0.00  0.00    -0.506 OA
ATOM     25  H   UNL     1       4.759  -6.621  25.360  0.00  0.00    +0.292 HD
ENDBRANCH   5  24
BRANCH  11  26
ATOM     26  O   UNL     1       7.379  -1.065  26.415  0.00  0.00    -0.453 OA
BRANCH  26  27
ATOM     27  C   UNL     1       6.128  -0.473  26.848  0.00  0.00    +0.340 C 
ATOM     28  O   UNL     1       5.506   0.103  25.708  0.00  0.00    -0.330 OA
ATOM     29  C   UNL     1       5.041   1.457  25.690  0.00  0.00    +0.191 C 
ATOM     30  C   UNL     1       5.710   2.476  26.649  0.00  0.00    +0.178 C 
ATOM     31  C   UNL     1       6.881   1.853  27.395  0.00  0.00    +0.180 C 
ATOM     32  C   UNL     1       6.400   0.534  27.991  0.00  0.00    +0.214 C 
BRANCH  32  33
ATOM     33  O   UNL     1       5.222   0.780  28.790  0.00  0.00    -0.383 OA
ATOM     34  H   UNL     1       5.058  -0.011  29.341  0.00  0.00    +0.210 HD
ENDBRANCH  32  33
BRANCH  31  35
ATOM     35  O   UNL     1       8.016   1.698  26.547  0.00  0.00    -0.386 OA
ATOM     36  H   UNL     1       8.413   2.575  26.381  0.00  0.00    +0.210 HD
ENDBRANCH  31  35
BRANCH  30  37
ATOM     37  O   UNL     1       4.729   2.975  27.584  0.00  0.00    -0.386 OA
ATOM     38  H   UNL     1       5.208   3.217  28.410  0.00  0.00    +0.210 HD
ENDBRANCH  30  37
BRANCH  29  39
ATOM     39  C   UNL     1       5.298   1.842  24.227  0.00  0.00    +0.266 C 
BRANCH  39  40
ATOM     40  O   UNL     1       5.107   3.224  23.949  0.00  0.00    -0.462 OA
BRANCH  40  41
ATOM     41  C   UNL     1       6.078   3.799  23.194  0.00  0.00    +0.318 C 
ATOM     42  O   UNL     1       6.385   3.475  22.056  0.00  0.00    -0.250 OA
BRANCH  41  43
ATOM     43  C   UNL     1       6.716   4.908  23.966  0.00  0.00    +0.240 C 
BRANCH  43  44
ATOM     44  C   UNL     1       8.183   4.707  24.132  0.00  0.00    +0.316 C 
ATOM     45  O   UNL     1       8.741   4.281  25.133  0.00  0.00    -0.250 OA
BRANCH  44  46
ATOM     46  O   UNL     1       8.889   5.073  23.029  0.00  0.00    -0.480 OA
ATOM     47  H   UNL     1       9.853   4.942  23.109  0.00  0.00    +0.295 HD
ENDBRANCH  44  46
ENDBRANCH  43  44
ENDBRANCH  41  43
ENDBRANCH  40  41
ENDBRANCH  39  40
ENDBRANCH  29  39
ENDBRANCH  26  27
ENDBRANCH  11  26
TORSDOF 16
ENDMDL
MODEL 5
REMARK VINA RESULT:      -6.6      3.041      6.086
REMARK  Name = 
REMARK  16 active torsions:
REMARK  status: ('A' for Active; 'I' for Inactive)
REMARK    1  A    between atoms: C_3  and  O_44
REMARK    2  A    between atoms: C_4  and  O_43
REMARK    3  A    between atoms: C_6  and  C_7
REMARK    4  A    between atoms: C_8  and  O_20
REMARK    5  A    between atoms: C_12  and  O_19
REMARK    6  A    between atoms: C_14  and  O_18
REMARK    7  A    between atoms: O_20  and  C_21
REMARK    8  A    between atoms: C_23  and  O_42
REMARK    9  A    between atoms: C_25  and  O_41
REMARK   10  A    between atoms: C_27  and  O_40
REMARK   11  A    between atoms: C_29  and  C_32
REMARK   12  A    between atoms: C_32  and  O_33
REMARK   13  A    between atoms: O_33  and  C_34
REMARK   14  A    between atoms: C_34  and  C_36
REMARK   15  A    between atoms: C_36  and  C_37
REMARK   16  A    between atoms: C_37  and  O_39
REMARK                            x       y       z     vdW  Elec       q    Type
REMARK                         _______ _______ _______ _____ _____    ______ ____
ROOT
ATOM      1  C   UNL     1       5.666  -0.369  24.948  0.00  0.00    +0.181 A 
ATOM      2  O   UNL     1       5.552   1.036  24.902  0.00  0.00    -0.451 OA
ATOM      3  C   UNL     1       6.152   1.753  23.904  0.00  0.00    +0.147 A 
ATOM      4  C   UNL     1       7.011   1.176  22.998  0.00  0.00    +0.109 A 
ATOM      5  C   UNL     1       7.661   1.933  22.012  0.00  0.00    +0.135 A 
ATOM      6  C   UNL     1       7.431   3.286  21.922  0.00  0.00    +0.091 A 
ATOM      7  C   UNL     1       6.555   3.879  22.830  0.00  0.00    +0.124 A 
ATOM      8  C   UNL     1       7.224  -0.246  23.085  0.00  0.00    +0.238 A 
ATOM      9  O   UNL     1       8.095  -0.700  22.344  0.00  0.00    -0.283 OA
ATOM     10  C   UNL     1       5.914   3.126  23.821  0.00  0.00    +0.092 A 
ATOM     11  C   UNL     1       6.410  -1.063  24.051  0.00  0.00    +0.214 A 
ENDROOT
BRANCH   1  13
ATOM     12  C   UNL     1       5.207  -0.425  27.442  0.00  0.00    +0.015 A 
ATOM     13  C   UNL     1       4.899  -0.911  26.146  0.00  0.00    +0.025 A 
ATOM     14  C   UNL     1       3.966  -1.960  26.091  0.00  0.00    +0.060 A 
ATOM     15  C   UNL     1       3.444  -2.507  27.263  0.00  0.00    +0.159 A 
ATOM     16  C   UNL     1       3.813  -2.052  28.521  0.00  0.00    +0.158 A 
ATOM     17  C   UNL     1       4.683  -0.987  28.622  0.00  0.00    +0.050 A 
BRANCH  16  18
ATOM     18  O   UNL     1       3.312  -2.693  29.620  0.00  0.00    -0.503 OA
ATOM     19  H   UNL     1       3.247  -2.051  30.347  0.00  0.00    +0.292 HD
ENDBRANCH  16  18
BRANCH  15  20
ATOM     20  O   UNL     1       2.545  -3.554  27.180  0.00  0.00    -0.503 OA
ATOM     21  H   UNL     1       2.506  -3.773  26.223  0.00  0.00    +0.292 HD
ENDBRANCH  15  20
ENDBRANCH   1  13
BRANCH   7  22
ATOM     22  O   UNL     1       6.317   5.220  22.786  0.00  0.00    -0.507 OA
ATOM     23  H   UNL     1       7.142   5.665  22.518  0.00  0.00    +0.292 HD
ENDBRANCH   7  22
BRANCH   5  24
ATOM     24  O   UNL     1       8.543   1.407  21.112  0.00  0.00    -0.506 OA
ATOM     25  H   UNL     1       8.469   1.923  20.278  0.00  0.00    +0.292 HD
ENDBRANCH   5  24
BRANCH  11  26
ATOM     26  O   UNL     1       6.488  -2.454  24.017  0.00  0.00    -0.453 OA
BRANCH  26  27
ATOM     27  C   UNL     1       5.632  -3.155  23.079  0.00  0.00    +0.340 C 
ATOM     28  O   UNL     1       4.955  -4.177  23.795  0.00  0.00    -0.330 OA
ATOM     29  C   UNL     1       4.943  -5.540  23.357  0.00  0.00    +0.191 C 
ATOM     30  C   UNL     1       6.112  -6.036  22.466  0.00  0.00    +0.178 C 
ATOM     31  C   UNL     1       7.181  -4.965  22.302  0.00  0.00    +0.180 C 
ATOM     32  C   UNL     1       6.479  -3.673  21.892  0.00  0.00    +0.214 C 
BRANCH  32  33
ATOM     33  O   UNL     1       5.675  -3.926  20.720  0.00  0.00    -0.383 OA
ATOM     34  H   UNL     1       5.146  -3.124  20.536  0.00  0.00    +0.210 HD
ENDBRANCH  32  33
BRANCH  31  35
ATOM     35  O   UNL     1       7.962  -4.821  23.486  0.00  0.00    -0.386 OA
ATOM     36  H   UNL     1       8.766  -5.368  23.406  0.00  0.00    +0.210 HD
ENDBRANCH  31  35
BRANCH  30  37
ATOM     37  O   UNL     1       5.602  -6.436  21.176  0.00  0.00    -0.386 OA
ATOM     38  H   UNL     1       4.916  -5.779  20.915  0.00  0.00    +0.210 HD
ENDBRANCH  30  37
BRANCH  29  39
ATOM     39  C   UNL     1       4.932  -6.285  24.699  0.00  0.00    +0.266 C 
BRANCH  39  40
ATOM     40  O   UNL     1       5.937  -5.855  25.609  0.00  0.00    -0.462 OA
BRANCH  40  41
ATOM     41  C   UNL     1       5.486  -5.510  26.843  0.00  0.00    +0.318 C 
ATOM     42  O   UNL     1       4.445  -5.894  27.357  0.00  0.00    -0.250 OA
BRANCH  41  43
ATOM     43  C   UNL     1       6.468  -4.590  27.492  0.00  0.00    +0.240 C 
BRANCH  43  44
ATOM     44  C   UNL     1       7.817  -4.673  26.865  0.00  0.00    +0.316 C 
ATOM     45  O   UNL     1       8.424  -3.748  26.344  0.00  0.00    -0.250 OA
BRANCH  44  46
ATOM     46  O   UNL     1       8.336  -5.928  26.905  0.00  0.00    -0.480 OA
ATOM     47  H   UNL     1       9.281  -5.962  27.148  0.00  0.00    +0.295 HD
ENDBRANCH  44  46
ENDBRANCH  43  44
ENDBRANCH  41  43
ENDBRANCH  40  41
ENDBRANCH  39  40
ENDBRANCH  29  39
ENDBRANCH  26  27
ENDBRANCH  11  26
TORSDOF 16
ENDMDL
MODEL 6
REMARK VINA RESULT:      -6.6      2.367      3.792
REMARK  Name = 
REMARK  16 active torsions:
REMARK  status: ('A' for Active; 'I' for Inactive)
REMARK    1  A    between atoms: C_3  and  O_44
REMARK    2  A    between atoms: C_4  and  O_43
REMARK    3  A    between atoms: C_6  and  C_7
REMARK    4  A    between atoms: C_8  and  O_20
REMARK    5  A    between atoms: C_12  and  O_19
REMARK    6  A    between atoms: C_14  and  O_18
REMARK    7  A    between atoms: O_20  and  C_21
REMARK    8  A    between atoms: C_23  and  O_42
REMARK    9  A    between atoms: C_25  and  O_41
REMARK   10  A    between atoms: C_27  and  O_40
REMARK   11  A    between atoms: C_29  and  C_32
REMARK   12  A    between atoms: C_32  and  O_33
REMARK   13  A    between atoms: O_33  and  C_34
REMARK   14  A    between atoms: C_34  and  C_36
REMARK   15  A    between atoms: C_36  and  C_37
REMARK   16  A    between atoms: C_37  and  O_39
REMARK                            x       y       z     vdW  Elec       q    Type
REMARK                         _______ _______ _______ _____ _____    ______ ____
ROOT
ATOM      1  C   UNL     1       7.117  -0.620  23.943  0.00  0.00    +0.181 A 
ATOM      2  O   UNL     1       8.296  -0.020  23.455  0.00  0.00    -0.451 OA
ATOM      3  C   UNL     1       8.559   1.300  23.697  0.00  0.00    +0.147 A 
ATOM      4  C   UNL     1       7.639   2.139  24.282  0.00  0.00    +0.109 A 
ATOM      5  C   UNL     1       7.903   3.503  24.476  0.00  0.00    +0.135 A 
ATOM      6  C   UNL     1       9.115   4.029  24.095  0.00  0.00    +0.091 A 
ATOM      7  C   UNL     1      10.058   3.186  23.510  0.00  0.00    +0.124 A 
ATOM      8  C   UNL     1       6.383   1.572  24.701  0.00  0.00    +0.238 A 
ATOM      9  O   UNL     1       5.542   2.376  25.097  0.00  0.00    -0.283 OA
ATOM     10  C   UNL     1       9.792   1.827  23.307  0.00  0.00    +0.092 A 
ATOM     11  C   UNL     1       6.174   0.084  24.618  0.00  0.00    +0.214 A 
ENDROOT
BRANCH   1  13
ATOM     12  C   UNL     1       7.997  -2.991  24.138  0.00  0.00    +0.015 A 
ATOM     13  C   UNL     1       7.080  -2.087  23.542  0.00  0.00    +0.025 A 
ATOM     14  C   UNL     1       6.270  -2.619  22.525  0.00  0.00    +0.060 A 
ATOM     15  C   UNL     1       6.431  -3.941  22.109  0.00  0.00    +0.159 A 
ATOM     16  C   UNL     1       7.382  -4.783  22.667  0.00  0.00    +0.158 A 
ATOM     17  C   UNL     1       8.161  -4.321  23.707  0.00  0.00    +0.050 A 
BRANCH  16  18
ATOM     18  O   UNL     1       7.525  -6.041  22.149  0.00  0.00    -0.503 OA
ATOM     19  H   UNL     1       7.139  -6.052  21.258  0.00  0.00    +0.292 HD
ENDBRANCH  16  18
BRANCH  15  20
ATOM     20  O   UNL     1       5.637  -4.431  21.088  0.00  0.00    -0.503 OA
ATOM     21  H   UNL     1       4.735  -4.474  21.473  0.00  0.00    +0.292 HD
ENDBRANCH  15  20
ENDBRANCH   1  13
BRANCH   7  22
ATOM     22  O   UNL     1      11.263   3.674  23.101  0.00  0.00    -0.507 OA
ATOM     23  H   UNL     1      11.321   3.564  22.135  0.00  0.00    +0.292 HD
ENDBRANCH   7  22
BRANCH   5  24
ATOM     24  O   UNL     1       7.008   4.377  25.024  0.00  0.00    -0.506 OA
ATOM     25  H   UNL     1       7.472   5.231  25.175  0.00  0.00    +0.292 HD
ENDBRANCH   5  24
BRANCH  11  26
ATOM     26  O   UNL     1       5.034  -0.486  25.180  0.00  0.00    -0.453 OA
BRANCH  26  27
ATOM     27  C   UNL     1       5.037  -0.733  26.610  0.00  0.00    +0.340 C 
ATOM     28  O   UNL     1       5.813  -1.899  26.844  0.00  0.00    -0.330 OA
ATOM     29  C   UNL     1       5.325  -3.001  27.617  0.00  0.00    +0.191 C 
ATOM     30  C   UNL     1       3.792  -3.211  27.712  0.00  0.00    +0.178 C 
ATOM     31  C   UNL     1       3.039  -2.229  26.826  0.00  0.00    +0.180 C 
ATOM     32  C   UNL     1       3.580  -0.833  27.121  0.00  0.00    +0.214 C 
BRANCH  32  33
ATOM     33  O   UNL     1       3.484  -0.582  28.540  0.00  0.00    -0.383 OA
ATOM     34  H   UNL     1       2.573  -0.283  28.734  0.00  0.00    +0.210 HD
ENDBRANCH  32  33
BRANCH  31  35
ATOM     35  O   UNL     1       3.141  -2.584  25.449  0.00  0.00    -0.386 OA
ATOM     36  H   UNL     1       2.249  -2.584  25.052  0.00  0.00    +0.210 HD
ENDBRANCH  31  35
BRANCH  30  37
ATOM     37  O   UNL     1       3.368  -3.072  29.085  0.00  0.00    -0.386 OA
ATOM     38  H   UNL     1       2.491  -2.626  29.079  0.00  0.00    +0.210 HD
ENDBRANCH  30  37
BRANCH  29  39
ATOM     39  C   UNL     1       5.990  -4.186  26.902  0.00  0.00    +0.266 C 
BRANCH  39  40
ATOM     40  O   UNL     1       5.233  -4.706  25.815  0.00  0.00    -0.462 OA
BRANCH  40  41
ATOM     41  C   UNL     1       5.186  -6.061  25.744  0.00  0.00    +0.318 C 
ATOM     42  O   UNL     1       5.486  -6.836  26.641  0.00  0.00    -0.250 OA
BRANCH  41  43
ATOM     43  C   UNL     1       4.696  -6.471  24.393  0.00  0.00    +0.240 C 
BRANCH  43  44
ATOM     44  C   UNL     1       3.523  -5.664  23.951  0.00  0.00    +0.316 C 
ATOM     45  O   UNL     1       3.349  -5.207  22.830  0.00  0.00    -0.250 OA
BRANCH  44  46
ATOM     46  O   UNL     1       2.628  -5.452  24.951  0.00  0.00    -0.480 OA
ATOM     47  H   UNL     1       2.388  -6.256  25.450  0.00  0.00    +0.295 HD
ENDBRANCH  44  46
ENDBRANCH  43  44
ENDBRANCH  41  43
ENDBRANCH  40  41
ENDBRANCH  39  40
ENDBRANCH  29  39
ENDBRANCH  26  27
ENDBRANCH  11  26
TORSDOF 16
ENDMDL
MODEL 7
REMARK VINA RESULT:      -6.6      2.251      3.842
REMARK  Name = 
REMARK  16 active torsions:
REMARK  status: ('A' for Active; 'I' for Inactive)
REMARK    1  A    between atoms: C_3  and  O_44
REMARK    2  A    between atoms: C_4  and  O_43
REMARK    3  A    between atoms: C_6  and  C_7
REMARK    4  A    between atoms: C_8  and  O_20
REMARK    5  A    between atoms: C_12  and  O_19
REMARK    6  A    between atoms: C_14  and  O_18
REMARK    7  A    between atoms: O_20  and  C_21
REMARK    8  A    between atoms: C_23  and  O_42
REMARK    9  A    between atoms: C_25  and  O_41
REMARK   10  A    between atoms: C_27  and  O_40
REMARK   11  A    between atoms: C_29  and  C_32
REMARK   12  A    between atoms: C_32  and  O_33
REMARK   13  A    between atoms: O_33  and  C_34
REMARK   14  A    between atoms: C_34  and  C_36
REMARK   15  A    between atoms: C_36  and  C_37
REMARK   16  A    between atoms: C_37  and  O_39
REMARK                            x       y       z     vdW  Elec       q    Type
REMARK                         _______ _______ _______ _____ _____    ______ ____
ROOT
ATOM      1  C   UNL     1       6.540  -1.274  23.430  0.00  0.00    +0.181 A 
ATOM      2  O   UNL     1       7.601  -0.783  22.642  0.00  0.00    -0.451 OA
ATOM      3  C   UNL     1       8.112   0.465  22.860  0.00  0.00    +0.147 A 
ATOM      4  C   UNL     1       7.534   1.355  23.736  0.00  0.00    +0.109 A 
ATOM      5  C   UNL     1       8.039   2.652  23.911  0.00  0.00    +0.135 A 
ATOM      6  C   UNL     1       9.152   3.057  23.211  0.00  0.00    +0.091 A 
ATOM      7  C   UNL     1       9.751   2.160  22.328  0.00  0.00    +0.124 A 
ATOM      8  C   UNL     1       6.385   0.912  24.483  0.00  0.00    +0.238 A 
ATOM      9  O   UNL     1       5.822   1.775  25.154  0.00  0.00    -0.283 OA
ATOM     10  C   UNL     1       9.242   0.869  22.145  0.00  0.00    +0.092 A 
ATOM     11  C   UNL     1       5.947  -0.524  24.392  0.00  0.00    +0.214 A 
ENDROOT
BRANCH   1  13
ATOM     12  C   UNL     1       4.912  -3.218  23.346  0.00  0.00    +0.015 A 
ATOM     13  C   UNL     1       6.175  -2.683  22.985  0.00  0.00    +0.025 A 
ATOM     14  C   UNL     1       7.047  -3.566  22.325  0.00  0.00    +0.060 A 
ATOM     15  C   UNL     1       6.684  -4.896  22.113  0.00  0.00    +0.159 A 
ATOM     16  C   UNL     1       5.465  -5.407  22.535  0.00  0.00    +0.158 A 
ATOM     17  C   UNL     1       4.554  -4.564  23.137  0.00  0.00    +0.050 A 
BRANCH  16  18
ATOM     18  O   UNL     1       5.218  -6.740  22.356  0.00  0.00    -0.503 OA
ATOM     19  H   UNL     1       4.922  -7.115  23.203  0.00  0.00    +0.292 HD
ENDBRANCH  16  18
BRANCH  15  20
ATOM     20  O   UNL     1       7.571  -5.748  21.483  0.00  0.00    -0.503 OA
ATOM     21  H   UNL     1       8.449  -5.323  21.597  0.00  0.00    +0.292 HD
ENDBRANCH  15  20
ENDBRANCH   1  13
BRANCH   7  22
ATOM     22  O   UNL     1      10.843   2.530  21.602  0.00  0.00    -0.507 OA
ATOM     23  H   UNL     1      11.008   3.476  21.765  0.00  0.00    +0.292 HD
ENDBRANCH   7  22
BRANCH   5  24
ATOM     24  O   UNL     1       7.479   3.576  24.746  0.00  0.00    -0.506 OA
ATOM     25  H   UNL     1       8.046   3.643  25.547  0.00  0.00    +0.292 HD
ENDBRANCH   5  24
BRANCH  11  26
ATOM     26  O   UNL     1       4.948  -0.997  25.241  0.00  0.00    -0.453 OA
BRANCH  26  27
ATOM     27  C   UNL     1       5.308  -1.271  26.619  0.00  0.00    +0.340 C 
ATOM     28  O   UNL     1       5.779  -2.610  26.683  0.00  0.00    -0.330 OA
ATOM     29  C   UNL     1       5.267  -3.557  27.626  0.00  0.00    +0.191 C 
ATOM     30  C   UNL     1       3.832  -3.347  28.175  0.00  0.00    +0.178 C 
ATOM     31  C   UNL     1       3.140  -2.175  27.492  0.00  0.00    +0.180 C 
ATOM     32  C   UNL     1       4.095  -0.986  27.537  0.00  0.00    +0.214 C 
BRANCH  32  33
ATOM     33  O   UNL     1       4.493  -0.754  28.906  0.00  0.00    -0.383 OA
ATOM     34  H   UNL     1       4.891  -1.577  29.250  0.00  0.00    +0.210 HD
ENDBRANCH  32  33
BRANCH  31  35
ATOM     35  O   UNL     1       2.733  -2.511  26.167  0.00  0.00    -0.386 OA
ATOM     36  H   UNL     1       1.851  -2.928  26.201  0.00  0.00    +0.210 HD
ENDBRANCH  31  35
BRANCH  30  37
ATOM     37  O   UNL     1       3.886  -3.132  29.602  0.00  0.00    -0.386 OA
ATOM     38  H   UNL     1       3.855  -2.160  29.755  0.00  0.00    +0.210 HD
ENDBRANCH  30  37
BRANCH  29  39
ATOM     39  C   UNL     1       5.351  -4.859  26.818  0.00  0.00    +0.266 C 
BRANCH  39  40
ATOM     40  O   UNL     1       6.443  -4.907  25.907  0.00  0.00    -0.462 OA
BRANCH  40  41
ATOM     41  C   UNL     1       7.608  -5.371  26.429  0.00  0.00    +0.318 C 
ATOM     42  O   UNL     1       7.765  -5.787  27.568  0.00  0.00    -0.250 OA
BRANCH  41  43
ATOM     43  C   UNL     1       8.678  -5.308  25.389  0.00  0.00    +0.240 C 
BRANCH  43  44
ATOM     44  C   UNL     1       9.165  -3.918  25.165  0.00  0.00    +0.316 C 
ATOM     45  O   UNL     1       9.952  -3.564  24.299  0.00  0.00    -0.250 OA
BRANCH  44  46
ATOM     46  O   UNL     1       8.651  -3.033  26.060  0.00  0.00    -0.480 OA
ATOM     47  H   UNL     1       9.166  -2.954  26.886  0.00  0.00    +0.295 HD
ENDBRANCH  44  46
ENDBRANCH  43  44
ENDBRANCH  41  43
ENDBRANCH  40  41
ENDBRANCH  39  40
ENDBRANCH  29  39
ENDBRANCH  26  27
ENDBRANCH  11  26
TORSDOF 16
ENDMDL
MODEL 8
REMARK VINA RESULT:      -6.4      2.237      7.414
REMARK  Name = 
REMARK  16 active torsions:
REMARK  status: ('A' for Active; 'I' for Inactive)
REMARK    1  A    between atoms: C_3  and  O_44
REMARK    2  A    between atoms: C_4  and  O_43
REMARK    3  A    between atoms: C_6  and  C_7
REMARK    4  A    between atoms: C_8  and  O_20
REMARK    5  A    between atoms: C_12  and  O_19
REMARK    6  A    between atoms: C_14  and  O_18
REMARK    7  A    between atoms: O_20  and  C_21
REMARK    8  A    between atoms: C_23  and  O_42
REMARK    9  A    between atoms: C_25  and  O_41
REMARK   10  A    between atoms: C_27  and  O_40
REMARK   11  A    between atoms: C_29  and  C_32
REMARK   12  A    between atoms: C_32  and  O_33
REMARK   13  A    between atoms: O_33  and  C_34
REMARK   14  A    between atoms: C_34  and  C_36
REMARK   15  A    between atoms: C_36  and  C_37
REMARK   16  A    between atoms: C_37  and  O_39
REMARK                            x       y       z     vdW  Elec       q    Type
REMARK                         _______ _______ _______ _____ _____    ______ ____
ROOT
ATOM      1  C   UNL     1       6.798  -0.614  26.786  0.00  0.00    +0.181 A 
ATOM      2  O   UNL     1       6.158  -1.840  27.058  0.00  0.00    -0.451 OA
ATOM      3  C   UNL     1       6.769  -3.027  26.763  0.00  0.00    +0.147 A 
ATOM      4  C   UNL     1       7.949  -3.092  26.059  0.00  0.00    +0.109 A 
ATOM      5  C   UNL     1       8.538  -4.319  25.717  0.00  0.00    +0.135 A 
ATOM      6  C   UNL     1       7.944  -5.497  26.105  0.00  0.00    +0.091 A 
ATOM      7  C   UNL     1       6.753  -5.443  26.828  0.00  0.00    +0.124 A 
ATOM      8  C   UNL     1       8.576  -1.852  25.680  0.00  0.00    +0.238 A 
ATOM      9  O   UNL     1       9.554  -1.953  24.943  0.00  0.00    -0.283 OA
ATOM     10  C   UNL     1       6.160  -4.219  27.160  0.00  0.00    +0.092 A 
ATOM     11  C   UNL     1       8.009  -0.550  26.178  0.00  0.00    +0.214 A 
ENDROOT
BRANCH   1  13
ATOM     12  C   UNL     1       4.891   0.999  26.341  0.00  0.00    +0.015 A 
ATOM     13  C   UNL     1       5.907   0.542  27.219  0.00  0.00    +0.025 A 
ATOM     14  C   UNL     1       6.079   1.287  28.397  0.00  0.00    +0.060 A 
ATOM     15  C   UNL     1       5.324   2.438  28.625  0.00  0.00    +0.159 A 
ATOM     16  C   UNL     1       4.381   2.897  27.717  0.00  0.00    +0.158 A 
ATOM     17  C   UNL     1       4.139   2.166  26.572  0.00  0.00    +0.050 A 
BRANCH  16  18
ATOM     18  O   UNL     1       3.738   4.075  27.981  0.00  0.00    -0.503 OA
ATOM     19  H   UNL     1       3.245   4.341  27.187  0.00  0.00    +0.292 HD
ENDBRANCH  16  18
BRANCH  15  20
ATOM     20  O   UNL     1       5.531   3.166  29.782  0.00  0.00    -0.503 OA
ATOM     21  H   UNL     1       6.346   2.784  30.174  0.00  0.00    +0.292 HD
ENDBRANCH  15  20
ENDBRANCH   1  13
BRANCH   7  22
ATOM     22  O   UNL     1       6.125  -6.588  27.212  0.00  0.00    -0.507 OA
ATOM     23  H   UNL     1       6.659  -7.006  27.912  0.00  0.00    +0.292 HD
ENDBRANCH   7  22
BRANCH   5  24
ATOM     24  O   UNL     1       9.691  -4.430  24.994  0.00  0.00    -0.506 OA
ATOM     25  H   UNL     1      10.041  -3.524  24.842  0.00  0.00    +0.292 HD
ENDBRANCH   5  24
BRANCH  11  26
ATOM     26  O   UNL     1       8.708   0.636  25.960  0.00  0.00    -0.453 OA
BRANCH  26  27
ATOM     27  C   UNL     1       8.337   1.435  24.808  0.00  0.00    +0.340 C 
ATOM     28  O   UNL     1       7.866   0.549  23.802  0.00  0.00    -0.330 OA
ATOM     29  C   UNL     1       8.371   0.573  22.463  0.00  0.00    +0.191 C 
ATOM     30  C   UNL     1       9.802   1.122  22.226  0.00  0.00    +0.178 C 
ATOM     31  C   UNL     1      10.498   1.448  23.540  0.00  0.00    +0.180 C 
ATOM     32  C   UNL     1       9.542   2.301  24.369  0.00  0.00    +0.214 C 
BRANCH  32  33
ATOM     33  O   UNL     1       9.134   3.445  23.588  0.00  0.00    -0.383 OA
ATOM     34  H   UNL     1       9.778   4.164  23.744  0.00  0.00    +0.210 HD
ENDBRANCH  32  33
BRANCH  31  35
ATOM     35  O   UNL     1      10.916   0.265  24.216  0.00  0.00    -0.386 OA
ATOM     36  H   UNL     1      11.680   0.476  24.787  0.00  0.00    +0.210 HD
ENDBRANCH  31  35
BRANCH  30  37
ATOM     37  O   UNL     1       9.737   2.298  21.390  0.00  0.00    -0.386 OA
ATOM     38  H   UNL     1       9.378   3.030  21.940  0.00  0.00    +0.210 HD
ENDBRANCH  30  37
BRANCH  29  39
ATOM     39  C   UNL     1       8.294  -0.914  22.088  0.00  0.00    +0.266 C 
BRANCH  39  40
ATOM     40  O   UNL     1       7.089  -1.553  22.494  0.00  0.00    -0.462 OA
BRANCH  40  41
ATOM     41  C   UNL     1       7.099  -2.908  22.405  0.00  0.00    +0.318 C 
ATOM     42  O   UNL     1       8.093  -3.618  22.418  0.00  0.00    -0.250 OA
BRANCH  41  43
ATOM     43  C   UNL     1       5.695  -3.408  22.299  0.00  0.00    +0.240 C 
BRANCH  43  44
ATOM     44  C   UNL     1       4.972  -3.337  23.600  0.00  0.00    +0.316 C 
ATOM     45  O   UNL     1       4.407  -4.267  24.159  0.00  0.00    -0.250 OA
BRANCH  44  46
ATOM     46  O   UNL     1       4.976  -2.087  24.133  0.00  0.00    -0.480 OA
ATOM     47  H   UNL     1       4.257  -1.922  24.772  0.00  0.00    +0.295 HD
ENDBRANCH  44  46
ENDBRANCH  43  44
ENDBRANCH  41  43
ENDBRANCH  40  41
ENDBRANCH  39  40
ENDBRANCH  29  39
ENDBRANCH  26  27
ENDBRANCH  11  26
TORSDOF 16
ENDMDL
MODEL 9
REMARK VINA RESULT:      -6.4      2.330      7.021
REMARK  Name = 
REMARK  16 active torsions:
REMARK  status: ('A' for Active; 'I' for Inactive)
REMARK    1  A    between atoms: C_3  and  O_44
REMARK    2  A    between atoms: C_4  and  O_43
REMARK    3  A    between atoms: C_6  and  C_7
REMARK    4  A    between atoms: C_8  and  O_20
REMARK    5  A    between atoms: C_12  and  O_19
REMARK    6  A    between atoms: C_14  and  O_18
REMARK    7  A    between atoms: O_20  and  C_21
REMARK    8  A    between atoms: C_23  and  O_42
REMARK    9  A    between atoms: C_25  and  O_41
REMARK   10  A    between atoms: C_27  and  O_40
REMARK   11  A    between atoms: C_29  and  C_32
REMARK   12  A    between atoms: C_32  and  O_33
REMARK   13  A    between atoms: O_33  and  C_34
REMARK   14  A    between atoms: C_34  and  C_36
REMARK   15  A    between atoms: C_36  and  C_37
REMARK   16  A    between atoms: C_37  and  O_39
REMARK                            x       y       z     vdW  Elec       q    Type
REMARK                         _______ _______ _______ _____ _____    ______ ____
ROOT
ATOM      1  C   UNL     1       6.584  -0.584  26.192  0.00  0.00    +0.181 A 
ATOM      2  O   UNL     1       7.305  -1.700  26.663  0.00  0.00    -0.451 OA
ATOM      3  C   UNL     1       7.696  -2.690  25.806  0.00  0.00    +0.147 A 
ATOM      4  C   UNL     1       7.286  -2.733  24.493  0.00  0.00    +0.109 A 
ATOM      5  C   UNL     1       7.652  -3.783  23.639  0.00  0.00    +0.135 A 
ATOM      6  C   UNL     1       8.458  -4.797  24.103  0.00  0.00    +0.091 A 
ATOM      7  C   UNL     1       8.888  -4.759  25.428  0.00  0.00    +0.124 A 
ATOM      8  C   UNL     1       6.463  -1.653  24.011  0.00  0.00    +0.238 A 
ATOM      9  O   UNL     1       6.011  -1.794  22.876  0.00  0.00    -0.283 OA
ATOM     10  C   UNL     1       8.514  -3.716  26.284  0.00  0.00    +0.092 A 
ATOM     11  C   UNL     1       6.201  -0.465  24.896  0.00  0.00    +0.214 A 
ENDROOT
BRANCH   1  13
ATOM     12  C   UNL     1       4.938   0.673  27.657  0.00  0.00    +0.015 A 
ATOM     13  C   UNL     1       6.286   0.364  27.345  0.00  0.00    +0.025 A 
ATOM     14  C   UNL     1       7.260   1.064  28.076  0.00  0.00    +0.060 A 
ATOM     15  C   UNL     1       6.887   2.043  28.998  0.00  0.00    +0.159 A 
ATOM     16  C   UNL     1       5.560   2.370  29.235  0.00  0.00    +0.158 A 
ATOM     17  C   UNL     1       4.568   1.669  28.581  0.00  0.00    +0.050 A 
BRANCH  16  18
ATOM     18  O   UNL     1       5.283   3.393  30.099  0.00  0.00    -0.503 OA
ATOM     19  H   UNL     1       4.417   3.225  30.506  0.00  0.00    +0.292 HD
ENDBRANCH  16  18
BRANCH  15  20
ATOM     20  O   UNL     1       7.867   2.734  29.686  0.00  0.00    -0.503 OA
ATOM     21  H   UNL     1       8.557   2.924  29.013  0.00  0.00    +0.292 HD
ENDBRANCH  15  20
ENDBRANCH   1  13
BRANCH   7  22
ATOM     22  O   UNL     1       9.671  -5.754  25.930  0.00  0.00    -0.507 OA
ATOM     23  H   UNL     1      10.160  -5.398  26.694  0.00  0.00    +0.292 HD
ENDBRANCH   7  22
BRANCH   5  24
ATOM     24  O   UNL     1       7.243  -3.881  22.340  0.00  0.00    -0.506 OA
ATOM     25  H   UNL     1       6.351  -4.295  22.333  0.00  0.00    +0.292 HD
ENDBRANCH   5  24
BRANCH  11  26
ATOM     26  O   UNL     1       5.554   0.654  24.376  0.00  0.00    -0.453 OA
BRANCH  26  27
ATOM     27  C   UNL     1       6.184   1.343  23.266  0.00  0.00    +0.340 C 
ATOM     28  O   UNL     1       7.581   1.381  23.520  0.00  0.00    -0.330 OA
ATOM     29  C   UNL     1       8.337   2.596  23.463  0.00  0.00    +0.191 C 
ATOM     30  C   UNL     1       7.596   3.935  23.709  0.00  0.00    +0.178 C 
ATOM     31  C   UNL     1       6.144   3.704  24.103  0.00  0.00    +0.180 C 
ATOM     32  C   UNL     1       5.539   2.738  23.089  0.00  0.00    +0.214 C 
BRANCH  32  33
ATOM     33  O   UNL     1       5.740   3.265  21.759  0.00  0.00    -0.383 OA
ATOM     34  H   UNL     1       4.984   2.987  21.205  0.00  0.00    +0.210 HD
ENDBRANCH  32  33
BRANCH  31  35
ATOM     35  O   UNL     1       6.035   3.238  25.446  0.00  0.00    -0.386 OA
ATOM     36  H   UNL     1       6.334   2.309  25.486  0.00  0.00    +0.210 HD
ENDBRANCH  31  35
BRANCH  30  37
ATOM     37  O   UNL     1       7.668   4.754  22.522  0.00  0.00    -0.386 OA
ATOM     38  H   UNL     1       7.811   4.150  21.757  0.00  0.00    +0.210 HD
ENDBRANCH  30  37
BRANCH  29  39
ATOM     39  C   UNL     1       9.384   2.348  24.559  0.00  0.00    +0.266 C 
BRANCH  39  40
ATOM     40  O   UNL     1       9.506   0.984  24.946  0.00  0.00    -0.462 OA
BRANCH  40  41
ATOM     41  C   UNL     1      10.615   0.352  24.483  0.00  0.00    +0.318 C 
ATOM     42  O   UNL     1      11.752   0.799  24.498  0.00  0.00    -0.250 OA
BRANCH  41  43
ATOM     43  C   UNL     1      10.235  -0.993  23.955  0.00  0.00    +0.240 C 
BRANCH  43  44
ATOM     44  C   UNL     1       9.969  -0.970  22.489  0.00  0.00    +0.316 C 
ATOM     45  O   UNL     1       9.682  -1.935  21.796  0.00  0.00    -0.250 OA
BRANCH  44  46
ATOM     46  O   UNL     1      10.095   0.274  21.956  0.00  0.00    -0.480 OA
ATOM     47  H   UNL     1      10.995   0.646  22.017  0.00  0.00    +0.295 HD
ENDBRANCH  44  46
ENDBRANCH  43  44
ENDBRANCH  41  43
ENDBRANCH  40  41
ENDBRANCH  39  40
ENDBRANCH  29  39
ENDBRANCH  26  27
ENDBRANCH  11  26
TORSDOF 16
ENDMDL
