MODEL 1
REMARK VINA RESULT:      -7.7      0.000      0.000
REMARK  Name = 
REMARK  12 active torsions:
REMARK  status: ('A' for Active; 'I' for Inactive)
REMARK    1  A    between atoms: C_3  and  O_38
REMARK    2  A    between atoms: C_4  and  O_37
REMARK    3  A    between atoms: C_6  and  C_7
REMARK    4  A    between atoms: C_8  and  O_36
REMARK    5  A    between atoms: C_12  and  O_35
REMARK    6  A    between atoms: C_14  and  O_18
REMARK    7  A    between atoms: O_18  and  C_19
REMARK    8  A    between atoms: C_21  and  O_34
REMARK    9  A    between atoms: C_23  and  O_33
REMARK   10  A    between atoms: C_25  and  O_32
REMARK   11  A    between atoms: C_27  and  C_30
REMARK   12  A    between atoms: C_30  and  O_31
REMARK                            x       y       z     vdW  Elec       q    Type
REMARK                         _______ _______ _______ _____ _____    ______ ____
ROOT
ATOM      1  C   UNL     1       6.811  -3.731  24.129  0.00  0.00    +0.181 A 
ATOM      2  O   UNL     1       6.250  -2.457  23.932  0.00  0.00    -0.451 OA
ATOM      3  C   UNL     1       7.078  -1.420  23.538  0.00  0.00    +0.147 A 
ATOM      4  C   UNL     1       8.466  -1.545  23.535  0.00  0.00    +0.109 A 
ATOM      5  C   UNL     1       9.278  -0.466  23.185  0.00  0.00    +0.135 A 
ATOM      6  C   UNL     1       8.720   0.735  22.779  0.00  0.00    +0.092 A 
ATOM      7  C   UNL     1       7.334   0.845  22.663  0.00  0.00    +0.131 A 
ATOM      8  C   UNL     1       9.060  -2.845  23.813  0.00  0.00    +0.238 A 
ATOM      9  O   UNL     1      10.282  -2.974  23.825  0.00  0.00    -0.283 OA
ATOM     10  C   UNL     1       6.510  -0.212  23.102  0.00  0.00    +0.093 A 
ATOM     11  C   UNL     1       8.134  -3.981  24.000  0.00  0.00    +0.208 A 
ENDROOT
BRANCH   1  13
ATOM     12  C   UNL     1       5.817  -5.428  25.738  0.00  0.00    +0.015 A 
ATOM     13  C   UNL     1       5.834  -4.820  24.456  0.00  0.00    +0.025 A 
ATOM     14  C   UNL     1       4.921  -5.302  23.509  0.00  0.00    +0.060 A 
ATOM     15  C   UNL     1       4.117  -6.404  23.810  0.00  0.00    +0.159 A 
ATOM     16  C   UNL     1       4.198  -7.048  25.043  0.00  0.00    +0.158 A 
ATOM     17  C   UNL     1       5.038  -6.556  26.025  0.00  0.00    +0.050 A 
BRANCH  15  18
ATOM     18  O   UNL     1       3.249  -6.878  22.868  0.00  0.00    -0.503 OA
ATOM     19  H   UNL     1       2.541  -7.317  23.380  0.00  0.00    +0.292 HD
ENDBRANCH  15  18
BRANCH  16  20
ATOM     20  O   UNL     1       3.433  -8.162  25.241  0.00  0.00    -0.503 OA
ATOM     21  H   UNL     1       2.970  -8.371  24.410  0.00  0.00    +0.292 HD
ENDBRANCH  16  20
ENDBRANCH   1  13
BRANCH   5  22
ATOM     22  O   UNL     1      10.648  -0.516  23.183  0.00  0.00    -0.506 OA
ATOM     23  H   UNL     1      10.961  -0.188  24.056  0.00  0.00    +0.292 HD
ENDBRANCH   5  22
BRANCH  11  24
ATOM     24  O   UNL     1       8.719  -5.234  24.006  0.00  0.00    -0.501 OA
ATOM     25  H   UNL     1       8.983  -5.435  24.919  0.00  0.00    +0.292 HD
ENDBRANCH  11  24
BRANCH   7  26
ATOM     26  O   UNL     1       6.713   1.932  22.107  0.00  0.00    -0.461 OA
BRANCH  26  27
ATOM     27  C   UNL     1       6.865   3.216  22.771  0.00  0.00    +0.339 C 
ATOM     28  O   UNL     1       7.399   4.230  21.909  0.00  0.00    -0.331 OA
ATOM     29  C   UNL     1       7.488   5.565  22.458  0.00  0.00    +0.179 C 
ATOM     30  C   UNL     1       6.112   6.054  22.947  0.00  0.00    +0.177 C 
ATOM     31  C   UNL     1       5.460   5.017  23.884  0.00  0.00    +0.180 C 
ATOM     32  C   UNL     1       5.446   3.630  23.225  0.00  0.00    +0.214 C 
BRANCH  30  33
ATOM     33  O   UNL     1       5.300   6.297  21.787  0.00  0.00    -0.386 OA
ATOM     34  H   UNL     1       4.832   5.474  21.553  0.00  0.00    +0.210 HD
ENDBRANCH  30  33
BRANCH  31  35
ATOM     35  O   UNL     1       6.110   5.041  25.157  0.00  0.00    -0.386 OA
ATOM     36  H   UNL     1       7.033   5.337  25.074  0.00  0.00    +0.210 HD
ENDBRANCH  31  35
BRANCH  32  37
ATOM     37  O   UNL     1       4.547   3.680  22.098  0.00  0.00    -0.383 OA
ATOM     38  H   UNL     1       3.642   3.732  22.477  0.00  0.00    +0.210 HD
ENDBRANCH  32  37
BRANCH  29  39
ATOM     39  C   UNL     1       8.576   5.748  23.538  0.00  0.00    +0.190 C 
BRANCH  39  40
ATOM     40  O   UNL     1       9.845   6.060  22.976  0.00  0.00    -0.392 OA
ATOM     41  H   UNL     1      10.180   6.863  23.412  0.00  0.00    +0.210 HD
ENDBRANCH  39  40
ENDBRANCH  29  39
ENDBRANCH  26  27
ENDBRANCH   7  26
TORSDOF 12
ENDMDL
MODEL 2
REMARK VINA RESULT:      -7.4      1.906      9.405
REMARK  Name = 
REMARK  12 active torsions:
REMARK  status: ('A' for Active; 'I' for Inactive)
REMARK    1  A    between atoms: C_3  and  O_38
REMARK    2  A    between atoms: C_4  and  O_37
REMARK    3  A    between atoms: C_6  and  C_7
REMARK    4  A    between atoms: C_8  and  O_36
REMARK    5  A    between atoms: C_12  and  O_35
REMARK    6  A    between atoms: C_14  and  O_18
REMARK    7  A    between atoms: O_18  and  C_19
REMARK    8  A    between atoms: C_21  and  O_34
REMARK    9  A    between atoms: C_23  and  O_33
REMARK   10  A    between atoms: C_25  and  O_32
REMARK   11  A    between atoms: C_27  and  C_30
REMARK   12  A    between atoms: C_30  and  O_31
REMARK                            x       y       z     vdW  Elec       q    Type
REMARK                         _______ _______ _______ _____ _____    ______ ____
ROOT
ATOM      1  C   UNL     1       8.057  -0.650  23.160  0.00  0.00    +0.181 A 
ATOM      2  O   UNL     1       6.951  -1.352  22.649  0.00  0.00    -0.451 OA
ATOM      3  C   UNL     1       6.890  -2.722  22.836  0.00  0.00    +0.147 A 
ATOM      4  C   UNL     1       7.975  -3.450  23.323  0.00  0.00    +0.109 A 
ATOM      5  C   UNL     1       7.903  -4.837  23.450  0.00  0.00    +0.135 A 
ATOM      6  C   UNL     1       6.733  -5.514  23.149  0.00  0.00    +0.092 A 
ATOM      7  C   UNL     1       5.599  -4.793  22.773  0.00  0.00    +0.131 A 
ATOM      8  C   UNL     1       9.156  -2.734  23.784  0.00  0.00    +0.238 A 
ATOM      9  O   UNL     1      10.128  -3.357  24.207  0.00  0.00    -0.283 OA
ATOM     10  C   UNL     1       5.695  -3.404  22.556  0.00  0.00    +0.093 A 
ATOM     11  C   UNL     1       9.091  -1.258  23.784  0.00  0.00    +0.208 A 
ENDROOT
BRANCH   1  13
ATOM     12  C   UNL     1       6.786   1.497  22.676  0.00  0.00    +0.015 A 
ATOM     13  C   UNL     1       8.000   0.840  23.005  0.00  0.00    +0.025 A 
ATOM     14  C   UNL     1       9.141   1.641  23.149  0.00  0.00    +0.060 A 
ATOM     15  C   UNL     1       9.075   3.008  22.869  0.00  0.00    +0.159 A 
ATOM     16  C   UNL     1       7.890   3.608  22.444  0.00  0.00    +0.158 A 
ATOM     17  C   UNL     1       6.731   2.860  22.359  0.00  0.00    +0.050 A 
BRANCH  15  18
ATOM     18  O   UNL     1      10.201   3.772  22.990  0.00  0.00    -0.503 OA
ATOM     19  H   UNL     1      10.900   3.258  22.538  0.00  0.00    +0.292 HD
ENDBRANCH  15  18
BRANCH  16  20
ATOM     20  O   UNL     1       7.919   4.934  22.120  0.00  0.00    -0.503 OA
ATOM     21  H   UNL     1       7.163   5.374  22.549  0.00  0.00    +0.292 HD
ENDBRANCH  16  20
ENDBRANCH   1  13
BRANCH   5  22
ATOM     22  O   UNL     1       8.941  -5.612  23.900  0.00  0.00    -0.506 OA
ATOM     23  H   UNL     1       9.651  -5.586  23.220  0.00  0.00    +0.292 HD
ENDBRANCH   5  22
BRANCH  11  24
ATOM     24  O   UNL     1      10.112  -0.615  24.459  0.00  0.00    -0.501 OA
ATOM     25  H   UNL     1      10.805  -0.397  23.813  0.00  0.00    +0.292 HD
ENDBRANCH  11  24
BRANCH   7  26
ATOM     26  O   UNL     1       4.363  -5.365  22.627  0.00  0.00    -0.461 OA
BRANCH  26  27
ATOM     27  C   UNL     1       3.806  -6.083  23.762  0.00  0.00    +0.339 C 
ATOM     28  O   UNL     1       3.328  -5.209  24.794  0.00  0.00    -0.331 OA
ATOM     29  C   UNL     1       2.664  -5.835  25.916  0.00  0.00    +0.179 C 
ATOM     30  C   UNL     1       1.470  -6.689  25.445  0.00  0.00    +0.177 C 
ATOM     31  C   UNL     1       1.897  -7.661  24.326  0.00  0.00    +0.180 C 
ATOM     32  C   UNL     1       2.621  -6.905  23.203  0.00  0.00    +0.214 C 
BRANCH  30  33
ATOM     33  O   UNL     1       0.444  -5.789  24.997  0.00  0.00    -0.386 OA
ATOM     34  H   UNL     1       0.786  -4.876  25.039  0.00  0.00    +0.210 HD
ENDBRANCH  30  33
BRANCH  31  35
ATOM     35  O   UNL     1       2.661  -8.733  24.884  0.00  0.00    -0.386 OA
ATOM     36  H   UNL     1       2.183  -9.577  24.815  0.00  0.00    +0.210 HD
ENDBRANCH  31  35
BRANCH  32  37
ATOM     37  O   UNL     1       1.665  -6.042  22.555  0.00  0.00    -0.383 OA
ATOM     38  H   UNL     1       2.182  -5.292  22.190  0.00  0.00    +0.210 HD
ENDBRANCH  32  37
BRANCH  29  39
ATOM     39  C   UNL     1       3.596  -6.628  26.857  0.00  0.00    +0.190 C 
BRANCH  39  40
ATOM     40  O   UNL     1       2.873  -7.477  27.741  0.00  0.00    -0.392 OA
ATOM     41  H   UNL     1       3.458  -8.208  28.006  0.00  0.00    +0.210 HD
ENDBRANCH  39  40
ENDBRANCH  29  39
ENDBRANCH  26  27
ENDBRANCH   7  26
TORSDOF 12
ENDMDL
MODEL 3
REMARK VINA RESULT:      -7.3      1.533      9.096
REMARK  Name = 
REMARK  12 active torsions:
REMARK  status: ('A' for Active; 'I' for Inactive)
REMARK    1  A    between atoms: C_3  and  O_38
REMARK    2  A    between atoms: C_4  and  O_37
REMARK    3  A    between atoms: C_6  and  C_7
REMARK    4  A    between atoms: C_8  and  O_36
REMARK    5  A    between atoms: C_12  and  O_35
REMARK    6  A    between atoms: C_14  and  O_18
REMARK    7  A    between atoms: O_18  and  C_19
REMARK    8  A    between atoms: C_21  and  O_34
REMARK    9  A    between atoms: C_23  and  O_33
REMARK   10  A    between atoms: C_25  and  O_32
REMARK   11  A    between atoms: C_27  and  C_30
REMARK   12  A    between atoms: C_30  and  O_31
REMARK                            x       y       z     vdW  Elec       q    Type
REMARK                         _______ _______ _______ _____ _____    ______ ____
ROOT
ATOM      1  C   UNL     1       7.567   1.258  23.437  0.00  0.00    +0.181 A 
ATOM      2  O   UNL     1       6.772   0.257  22.853  0.00  0.00    -0.451 OA
ATOM      3  C   UNL     1       7.161  -1.065  22.990  0.00  0.00    +0.147 A 
ATOM      4  C   UNL     1       8.409  -1.417  23.501  0.00  0.00    +0.109 A 
ATOM      5  C   UNL     1       8.796  -2.755  23.577  0.00  0.00    +0.135 A 
ATOM      6  C   UNL     1       7.926  -3.765  23.200  0.00  0.00    +0.092 A 
ATOM      7  C   UNL     1       6.630  -3.440  22.798  0.00  0.00    +0.131 A 
ATOM      8  C   UNL     1       9.273  -0.375  24.039  0.00  0.00    +0.238 A 
ATOM      9  O   UNL     1      10.381  -0.664  24.484  0.00  0.00    -0.283 OA
ATOM     10  C   UNL     1       6.268  -2.088  22.633  0.00  0.00    +0.093 A 
ATOM     11  C   UNL     1       8.724   0.995  24.087  0.00  0.00    +0.208 A 
ENDROOT
BRANCH   1  13
ATOM     12  C   UNL     1       5.873   3.049  24.056  0.00  0.00    +0.015 A 
ATOM     13  C   UNL     1       7.025   2.652  23.330  0.00  0.00    +0.025 A 
ATOM     14  C   UNL     1       7.614   3.610  22.494  0.00  0.00    +0.060 A 
ATOM     15  C   UNL     1       7.006   4.856  22.322  0.00  0.00    +0.159 A 
ATOM     16  C   UNL     1       5.813   5.179  22.967  0.00  0.00    +0.158 A 
ATOM     17  C   UNL     1       5.244   4.284  23.853  0.00  0.00    +0.050 A 
BRANCH  15  18
ATOM     18  O   UNL     1       7.578   5.771  21.483  0.00  0.00    -0.503 OA
ATOM     19  H   UNL     1       8.311   5.289  21.053  0.00  0.00    +0.292 HD
ENDBRANCH  15  18
BRANCH  16  20
ATOM     20  O   UNL     1       5.240   6.389  22.695  0.00  0.00    -0.503 OA
ATOM     21  H   UNL     1       5.454   6.634  21.778  0.00  0.00    +0.292 HD
ENDBRANCH  16  20
ENDBRANCH   1  13
BRANCH   5  22
ATOM     22  O   UNL     1      10.017  -3.166  24.047  0.00  0.00    -0.506 OA
ATOM     23  H   UNL     1       9.957  -4.130  24.234  0.00  0.00    +0.292 HD
ENDBRANCH   5  22
BRANCH  11  24
ATOM     24  O   UNL     1       9.453   1.905  24.829  0.00  0.00    -0.501 OA
ATOM     25  H   UNL     1       9.245   1.759  25.767  0.00  0.00    +0.292 HD
ENDBRANCH  11  24
BRANCH   7  26
ATOM     26  O   UNL     1       5.657  -4.379  22.576  0.00  0.00    -0.461 OA
BRANCH  26  27
ATOM     27  C   UNL     1       5.244  -5.209  23.695  0.00  0.00    +0.339 C 
ATOM     28  O   UNL     1       5.095  -4.469  24.914  0.00  0.00    -0.331 OA
ATOM     29  C   UNL     1       4.587  -5.197  26.056  0.00  0.00    +0.179 C 
ATOM     30  C   UNL     1       3.224  -5.842  25.738  0.00  0.00    +0.177 C 
ATOM     31  C   UNL     1       3.294  -6.661  24.433  0.00  0.00    +0.180 C 
ATOM     32  C   UNL     1       3.877  -5.811  23.294  0.00  0.00    +0.214 C 
BRANCH  30  33
ATOM     33  O   UNL     1       2.255  -4.785  25.644  0.00  0.00    -0.386 OA
ATOM     34  H   UNL     1       1.845  -4.657  26.520  0.00  0.00    +0.210 HD
ENDBRANCH  30  33
BRANCH  31  35
ATOM     35  O   UNL     1       4.007  -7.878  24.664  0.00  0.00    -0.386 OA
ATOM     36  H   UNL     1       4.515  -8.142  23.879  0.00  0.00    +0.210 HD
ENDBRANCH  31  35
BRANCH  32  37
ATOM     37  O   UNL     1       2.932  -4.765  22.988  0.00  0.00    -0.383 OA
ATOM     38  H   UNL     1       2.246  -5.179  22.420  0.00  0.00    +0.210 HD
ENDBRANCH  32  37
BRANCH  29  39
ATOM     39  C   UNL     1       5.574  -6.218  26.661  0.00  0.00    +0.190 C 
BRANCH  39  40
ATOM     40  O   UNL     1       4.910  -7.235  27.402  0.00  0.00    -0.392 OA
ATOM     41  H   UNL     1       5.001  -7.029  28.348  0.00  0.00    +0.210 HD
ENDBRANCH  39  40
ENDBRANCH  29  39
ENDBRANCH  26  27
ENDBRANCH   7  26
TORSDOF 12
ENDMDL
MODEL 4
REMARK VINA RESULT:      -7.1      1.477      2.238
REMARK  Name = 
REMARK  12 active torsions:
REMARK  status: ('A' for Active; 'I' for Inactive)
REMARK    1  A    between atoms: C_3  and  O_38
REMARK    2  A    between atoms: C_4  and  O_37
REMARK    3  A    between atoms: C_6  and  C_7
REMARK    4  A    between atoms: C_8  and  O_36
REMARK    5  A    between atoms: C_12  and  O_35
REMARK    6  A    between atoms: C_14  and  O_18
REMARK    7  A    between atoms: O_18  and  C_19
REMARK    8  A    between atoms: C_21  and  O_34
REMARK    9  A    between atoms: C_23  and  O_33
REMARK   10  A    between atoms: C_25  and  O_32
REMARK   11  A    between atoms: C_27  and  C_30
REMARK   12  A    between atoms: C_30  and  O_31
REMARK                            x       y       z     vdW  Elec       q    Type
REMARK                         _______ _______ _______ _____ _____    ______ ____
ROOT
ATOM      1  C   UNL     1       7.135  -3.446  24.615  0.00  0.00    +0.181 A 
ATOM      2  O   UNL     1       6.829  -2.240  25.269  0.00  0.00    -0.451 OA
ATOM      3  C   UNL     1       7.647  -1.143  25.057  0.00  0.00    +0.147 A 
ATOM      4  C   UNL     1       8.868  -1.251  24.392  0.00  0.00    +0.109 A 
ATOM      5  C   UNL     1       9.697  -0.139  24.241  0.00  0.00    +0.135 A 
ATOM      6  C   UNL     1       9.299   1.106  24.698  0.00  0.00    +0.092 A 
ATOM      7  C   UNL     1       8.031   1.259  25.260  0.00  0.00    +0.131 A 
ATOM      8  C   UNL     1       9.228  -2.520  23.776  0.00  0.00    +0.238 A 
ATOM      9  O   UNL     1      10.304  -2.639  23.195  0.00  0.00    -0.283 OA
ATOM     10  C   UNL     1       7.231   0.123  25.497  0.00  0.00    +0.093 A 
ATOM     11  C   UNL     1       8.222  -3.601  23.825  0.00  0.00    +0.208 A 
ENDROOT
BRANCH   1  13
ATOM     12  C   UNL     1       6.080  -5.263  26.044  0.00  0.00    +0.015 A 
ATOM     13  C   UNL     1       6.147  -4.555  24.816  0.00  0.00    +0.025 A 
ATOM     14  C   UNL     1       5.271  -4.958  23.799  0.00  0.00    +0.060 A 
ATOM     15  C   UNL     1       4.457  -6.079  23.981  0.00  0.00    +0.159 A 
ATOM     16  C   UNL     1       4.490  -6.819  25.161  0.00  0.00    +0.158 A 
ATOM     17  C   UNL     1       5.290  -6.408  26.210  0.00  0.00    +0.050 A 
BRANCH  15  18
ATOM     18  O   UNL     1       3.627  -6.474  22.970  0.00  0.00    -0.503 OA
ATOM     19  H   UNL     1       4.003  -6.066  22.165  0.00  0.00    +0.292 HD
ENDBRANCH  15  18
BRANCH  16  20
ATOM     20  O   UNL     1       3.718  -7.943  25.240  0.00  0.00    -0.503 OA
ATOM     21  H   UNL     1       2.798  -7.675  25.411  0.00  0.00    +0.292 HD
ENDBRANCH  16  20
ENDBRANCH   1  13
BRANCH   5  22
ATOM     22  O   UNL     1      10.918  -0.183  23.618  0.00  0.00    -0.506 OA
ATOM     23  H   UNL     1      11.004  -1.063  23.188  0.00  0.00    +0.292 HD
ENDBRANCH   5  22
BRANCH  11  24
ATOM     24  O   UNL     1       8.481  -4.695  23.020  0.00  0.00    -0.501 OA
ATOM     25  H   UNL     1       7.757  -4.769  22.376  0.00  0.00    +0.292 HD
ENDBRANCH  11  24
BRANCH   7  26
ATOM     26  O   UNL     1       7.495   2.479  25.577  0.00  0.00    -0.461 OA
BRANCH  26  27
ATOM     27  C   UNL     1       7.688   3.572  24.639  0.00  0.00    +0.339 C 
ATOM     28  O   UNL     1       6.461   4.223  24.280  0.00  0.00    -0.331 OA
ATOM     29  C   UNL     1       6.571   5.388  23.430  0.00  0.00    +0.179 C 
ATOM     30  C   UNL     1       7.488   6.451  24.066  0.00  0.00    +0.177 C 
ATOM     31  C   UNL     1       8.837   5.833  24.487  0.00  0.00    +0.180 C 
ATOM     32  C   UNL     1       8.611   4.587  25.354  0.00  0.00    +0.214 C 
BRANCH  30  33
ATOM     33  O   UNL     1       6.790   7.008  25.192  0.00  0.00    -0.386 OA
ATOM     34  H   UNL     1       7.146   6.611  26.009  0.00  0.00    +0.210 HD
ENDBRANCH  30  33
BRANCH  31  35
ATOM     35  O   UNL     1       9.639   5.590  23.329  0.00  0.00    -0.386 OA
ATOM     36  H   UNL     1       9.472   6.256  22.640  0.00  0.00    +0.210 HD
ENDBRANCH  31  35
BRANCH  32  37
ATOM     37  O   UNL     1       8.028   5.010  26.604  0.00  0.00    -0.383 OA
ATOM     38  H   UNL     1       8.770   5.053  27.246  0.00  0.00    +0.210 HD
ENDBRANCH  32  37
BRANCH  29  39
ATOM     39  C   UNL     1       6.974   5.086  21.971  0.00  0.00    +0.190 C 
BRANCH  39  40
ATOM     40  O   UNL     1       7.462   6.241  21.297  0.00  0.00    -0.392 OA
ATOM     41  H   UNL     1       8.257   6.551  21.764  0.00  0.00    +0.210 HD
ENDBRANCH  39  40
ENDBRANCH  29  39
ENDBRANCH  26  27
ENDBRANCH   7  26
TORSDOF 12
ENDMDL
MODEL 5
REMARK VINA RESULT:      -7.1      1.867      9.433
REMARK  Name = 
REMARK  12 active torsions:
REMARK  status: ('A' for Active; 'I' for Inactive)
REMARK    1  A    between atoms: C_3  and  O_38
REMARK    2  A    between atoms: C_4  and  O_37
REMARK    3  A    between atoms: C_6  and  C_7
REMARK    4  A    between atoms: C_8  and  O_36
REMARK    5  A    between atoms: C_12  and  O_35
REMARK    6  A    between atoms: C_14  and  O_18
REMARK    7  A    between atoms: O_18  and  C_19
REMARK    8  A    between atoms: C_21  and  O_34
REMARK    9  A    between atoms: C_23  and  O_33
REMARK   10  A    between atoms: C_25  and  O_32
REMARK   11  A    between atoms: C_27  and  C_30
REMARK   12  A    between atoms: C_30  and  O_31
REMARK                            x       y       z     vdW  Elec       q    Type
REMARK                         _______ _______ _______ _____ _____    ______ ____
ROOT
ATOM      1  C   UNL     1       8.174  -0.345  23.785  0.00  0.00    +0.181 A 
ATOM      2  O   UNL     1       7.022  -1.033  24.203  0.00  0.00    -0.451 OA
ATOM      3  C   UNL     1       7.146  -2.353  24.603  0.00  0.00    +0.147 A 
ATOM      4  C   UNL     1       8.322  -3.076  24.408  0.00  0.00    +0.109 A 
ATOM      5  C   UNL     1       8.400  -4.420  24.772  0.00  0.00    +0.135 A 
ATOM      6  C   UNL     1       7.330  -5.050  25.387  0.00  0.00    +0.092 A 
ATOM      7  C   UNL     1       6.187  -4.313  25.698  0.00  0.00    +0.131 A 
ATOM      8  C   UNL     1       9.500  -2.386  23.902  0.00  0.00    +0.238 A 
ATOM      9  O   UNL     1      10.543  -3.008  23.713  0.00  0.00    -0.283 OA
ATOM     10  C   UNL     1       6.070  -2.982  25.251  0.00  0.00    +0.093 A 
ATOM     11  C   UNL     1       9.393  -0.926  23.707  0.00  0.00    +0.208 A 
ENDROOT
BRANCH   1  13
ATOM     12  C   UNL     1       7.287   1.509  22.290  0.00  0.00    +0.015 A 
ATOM     13  C   UNL     1       7.974   1.106  23.464  0.00  0.00    +0.025 A 
ATOM     14  C   UNL     1       8.477   2.121  24.289  0.00  0.00    +0.060 A 
ATOM     15  C   UNL     1       8.385   3.457  23.890  0.00  0.00    +0.159 A 
ATOM     16  C   UNL     1       7.797   3.815  22.678  0.00  0.00    +0.158 A 
ATOM     17  C   UNL     1       7.228   2.845  21.874  0.00  0.00    +0.050 A 
BRANCH  15  18
ATOM     18  O   UNL     1       8.902   4.433  24.693  0.00  0.00    -0.503 OA
ATOM     19  H   UNL     1       8.134   4.783  25.186  0.00  0.00    +0.292 HD
ENDBRANCH  15  18
BRANCH  16  20
ATOM     20  O   UNL     1       7.806   5.134  22.322  0.00  0.00    -0.503 OA
ATOM     21  H   UNL     1       7.561   5.202  21.382  0.00  0.00    +0.292 HD
ENDBRANCH  16  20
ENDBRANCH   1  13
BRANCH   5  22
ATOM     22  O   UNL     1       9.518  -5.192  24.586  0.00  0.00    -0.506 OA
ATOM     23  H   UNL     1       9.247  -5.998  24.091  0.00  0.00    +0.292 HD
ENDBRANCH   5  22
BRANCH  11  24
ATOM     24  O   UNL     1      10.584  -0.265  23.476  0.00  0.00    -0.501 OA
ATOM     25  H   UNL     1      11.172  -0.436  24.231  0.00  0.00    +0.292 HD
ENDBRANCH  11  24
BRANCH   7  26
ATOM     26  O   UNL     1       5.159  -4.810  26.455  0.00  0.00    -0.461 OA
BRANCH  26  27
ATOM     27  C   UNL     1       3.954  -5.243  25.767  0.00  0.00    +0.339 C 
ATOM     28  O   UNL     1       4.229  -6.004  24.583  0.00  0.00    -0.331 OA
ATOM     29  C   UNL     1       3.088  -6.561  23.892  0.00  0.00    +0.179 C 
ATOM     30  C   UNL     1       2.257  -7.457  24.832  0.00  0.00    +0.177 C 
ATOM     31  C   UNL     1       1.916  -6.714  26.140  0.00  0.00    +0.180 C 
ATOM     32  C   UNL     1       3.187  -6.131  26.775  0.00  0.00    +0.214 C 
BRANCH  30  33
ATOM     33  O   UNL     1       3.021  -8.646  25.086  0.00  0.00    -0.386 OA
ATOM     34  H   UNL     1       3.804  -8.647  24.504  0.00  0.00    +0.210 HD
ENDBRANCH  30  33
BRANCH  31  35
ATOM     35  O   UNL     1       0.899  -5.741  25.891  0.00  0.00    -0.386 OA
ATOM     36  H   UNL     1       0.045  -6.024  26.260  0.00  0.00    +0.210 HD
ENDBRANCH  31  35
BRANCH  32  37
ATOM     37  O   UNL     1       4.012  -7.229  27.215  0.00  0.00    -0.383 OA
ATOM     38  H   UNL     1       3.618  -7.541  28.059  0.00  0.00    +0.210 HD
ENDBRANCH  32  37
BRANCH  29  39
ATOM     39  C   UNL     1       2.206  -5.526  23.162  0.00  0.00    +0.190 C 
BRANCH  39  40
ATOM     40  O   UNL     1       0.942  -6.063  22.789  0.00  0.00    -0.392 OA
ATOM     41  H   UNL     1       0.376  -6.085  23.580  0.00  0.00    +0.210 HD
ENDBRANCH  39  40
ENDBRANCH  29  39
ENDBRANCH  26  27
ENDBRANCH   7  26
TORSDOF 12
ENDMDL
MODEL 6
REMARK VINA RESULT:      -7.0      2.516      9.450
REMARK  Name = 
REMARK  12 active torsions:
REMARK  status: ('A' for Active; 'I' for Inactive)
REMARK    1  A    between atoms: C_3  and  O_38
REMARK    2  A    between atoms: C_4  and  O_37
REMARK    3  A    between atoms: C_6  and  C_7
REMARK    4  A    between atoms: C_8  and  O_36
REMARK    5  A    between atoms: C_12  and  O_35
REMARK    6  A    between atoms: C_14  and  O_18
REMARK    7  A    between atoms: O_18  and  C_19
REMARK    8  A    between atoms: C_21  and  O_34
REMARK    9  A    between atoms: C_23  and  O_33
REMARK   10  A    between atoms: C_25  and  O_32
REMARK   11  A    between atoms: C_27  and  C_30
REMARK   12  A    between atoms: C_30  and  O_31
REMARK                            x       y       z     vdW  Elec       q    Type
REMARK                         _______ _______ _______ _____ _____    ______ ____
ROOT
ATOM      1  C   UNL     1       8.404  -0.306  23.838  0.00  0.00    +0.181 A 
ATOM      2  O   UNL     1       7.480  -0.927  24.696  0.00  0.00    -0.451 OA
ATOM      3  C   UNL     1       7.787  -2.174  25.212  0.00  0.00    +0.147 A 
ATOM      4  C   UNL     1       8.872  -2.918  24.748  0.00  0.00    +0.109 A 
ATOM      5  C   UNL     1       9.126  -4.195  25.248  0.00  0.00    +0.135 A 
ATOM      6  C   UNL     1       8.339  -4.729  26.255  0.00  0.00    +0.092 A 
ATOM      7  C   UNL     1       7.321  -3.956  26.815  0.00  0.00    +0.131 A 
ATOM      8  C   UNL     1       9.792  -2.308  23.799  0.00  0.00    +0.238 A 
ATOM      9  O   UNL     1      10.749  -2.950  23.371  0.00  0.00    -0.283 OA
ATOM     10  C   UNL     1       7.005  -2.703  26.251  0.00  0.00    +0.093 A 
ATOM     11  C   UNL     1       9.560  -0.892  23.451  0.00  0.00    +0.208 A 
ENDROOT
BRANCH   1  13
ATOM     12  C   UNL     1       6.849   1.338  22.681  0.00  0.00    +0.015 A 
ATOM     13  C   UNL     1       8.043   1.083  23.403  0.00  0.00    +0.025 A 
ATOM     14  C   UNL     1       8.878   2.179  23.664  0.00  0.00    +0.060 A 
ATOM     15  C   UNL     1       8.572   3.433  23.131  0.00  0.00    +0.159 A 
ATOM     16  C   UNL     1       7.446   3.630  22.334  0.00  0.00    +0.158 A 
ATOM     17  C   UNL     1       6.565   2.588  22.115  0.00  0.00    +0.050 A 
BRANCH  15  18
ATOM     18  O   UNL     1       9.409   4.486  23.373  0.00  0.00    -0.503 OA
ATOM     19  H   UNL     1      10.306   4.133  23.210  0.00  0.00    +0.292 HD
ENDBRANCH  15  18
BRANCH  16  20
ATOM     20  O   UNL     1       7.250   4.867  21.789  0.00  0.00    -0.503 OA
ATOM     21  H   UNL     1       6.345   4.908  21.431  0.00  0.00    +0.292 HD
ENDBRANCH  16  20
ENDBRANCH   1  13
BRANCH   5  22
ATOM     22  O   UNL     1      10.160  -4.985  24.819  0.00  0.00    -0.506 OA
ATOM     23  H   UNL     1       9.908  -5.362  23.946  0.00  0.00    +0.292 HD
ENDBRANCH   5  22
BRANCH  11  24
ATOM     24  O   UNL     1      10.583  -0.271  22.759  0.00  0.00    -0.501 OA
ATOM     25  H   UNL     1      11.162   0.163  23.409  0.00  0.00    +0.292 HD
ENDBRANCH  11  24
BRANCH   7  26
ATOM     26  O   UNL     1       6.614  -4.338  27.924  0.00  0.00    -0.461 OA
BRANCH  26  27
ATOM     27  C   UNL     1       5.239  -4.771  27.739  0.00  0.00    +0.339 C 
ATOM     28  O   UNL     1       5.138  -6.088  27.179  0.00  0.00    -0.331 OA
ATOM     29  C   UNL     1       3.807  -6.639  27.056  0.00  0.00    +0.179 C 
ATOM     30  C   UNL     1       3.091  -6.663  28.420  0.00  0.00    +0.177 C 
ATOM     31  C   UNL     1       3.153  -5.278  29.098  0.00  0.00    +0.180 C 
ATOM     32  C   UNL     1       4.600  -4.768  29.148  0.00  0.00    +0.214 C 
BRANCH  30  33
ATOM     33  O   UNL     1       3.723  -7.671  29.225  0.00  0.00    -0.386 OA
ATOM     34  H   UNL     1       3.098  -7.959  29.916  0.00  0.00    +0.210 HD
ENDBRANCH  30  33
BRANCH  31  35
ATOM     35  O   UNL     1       2.249  -4.382  28.449  0.00  0.00    -0.386 OA
ATOM     36  H   UNL     1       2.069  -3.603  29.003  0.00  0.00    +0.210 HD
ENDBRANCH  31  35
BRANCH  32  37
ATOM     37  O   UNL     1       5.344  -5.618  30.045  0.00  0.00    -0.383 OA
ATOM     38  H   UNL     1       6.288  -5.514  29.794  0.00  0.00    +0.210 HD
ENDBRANCH  32  37
BRANCH  29  39
ATOM     39  C   UNL     1       2.935  -5.982  25.965  0.00  0.00    +0.190 C 
BRANCH  39  40
ATOM     40  O   UNL     1       1.548  -6.234  26.160  0.00  0.00    -0.392 OA
ATOM     41  H   UNL     1       1.050  -5.474  25.812  0.00  0.00    +0.210 HD
ENDBRANCH  39  40
ENDBRANCH  29  39
ENDBRANCH  26  27
ENDBRANCH   7  26
TORSDOF 12
ENDMDL
MODEL 7
REMARK VINA RESULT:      -6.9      2.375      9.109
REMARK  Name = 
REMARK  12 active torsions:
REMARK  status: ('A' for Active; 'I' for Inactive)
REMARK    1  A    between atoms: C_3  and  O_38
REMARK    2  A    between atoms: C_4  and  O_37
REMARK    3  A    between atoms: C_6  and  C_7
REMARK    4  A    between atoms: C_8  and  O_36
REMARK    5  A    between atoms: C_12  and  O_35
REMARK    6  A    between atoms: C_14  and  O_18
REMARK    7  A    between atoms: O_18  and  C_19
REMARK    8  A    between atoms: C_21  and  O_34
REMARK    9  A    between atoms: C_23  and  O_33
REMARK   10  A    between atoms: C_25  and  O_32
REMARK   11  A    between atoms: C_27  and  C_30
REMARK   12  A    between atoms: C_30  and  O_31
REMARK                            x       y       z     vdW  Elec       q    Type
REMARK                         _______ _______ _______ _____ _____    ______ ____
ROOT
ATOM      1  C   UNL     1       8.471  -0.281  24.334  0.00  0.00    +0.181 A 
ATOM      2  O   UNL     1       7.521  -0.959  25.117  0.00  0.00    -0.451 OA
ATOM      3  C   UNL     1       7.762  -2.279  25.460  0.00  0.00    +0.147 A 
ATOM      4  C   UNL     1       8.801  -3.012  24.887  0.00  0.00    +0.109 A 
ATOM      5  C   UNL     1       8.987  -4.356  25.211  0.00  0.00    +0.135 A 
ATOM      6  C   UNL     1       8.180  -4.974  26.151  0.00  0.00    +0.092 A 
ATOM      7  C   UNL     1       7.211  -4.228  26.823  0.00  0.00    +0.131 A 
ATOM      8  C   UNL     1       9.747  -2.333  24.012  0.00  0.00    +0.238 A 
ATOM      9  O   UNL     1      10.663  -2.963  23.489  0.00  0.00    -0.283 OA
ATOM     10  C   UNL     1       6.960  -2.897  26.433  0.00  0.00    +0.093 A 
ATOM     11  C   UNL     1       9.590  -0.873  23.856  0.00  0.00    +0.208 A 
ENDROOT
BRANCH   1  13
ATOM     12  C   UNL     1       8.617   2.166  25.004  0.00  0.00    +0.015 A 
ATOM     13  C   UNL     1       8.185   1.170  24.090  0.00  0.00    +0.025 A 
ATOM     14  C   UNL     1       7.460   1.602  22.971  0.00  0.00    +0.060 A 
ATOM     15  C   UNL     1       7.102   2.946  22.847  0.00  0.00    +0.159 A 
ATOM     16  C   UNL     1       7.450   3.885  23.816  0.00  0.00    +0.158 A 
ATOM     17  C   UNL     1       8.225   3.506  24.896  0.00  0.00    +0.050 A 
BRANCH  15  18
ATOM     18  O   UNL     1       6.373   3.348  21.763  0.00  0.00    -0.503 OA
ATOM     19  H   UNL     1       6.952   3.171  20.995  0.00  0.00    +0.292 HD
ENDBRANCH  15  18
BRANCH  16  20
ATOM     20  O   UNL     1       7.005   5.167  23.662  0.00  0.00    -0.503 OA
ATOM     21  H   UNL     1       6.587   5.247  22.786  0.00  0.00    +0.292 HD
ENDBRANCH  16  20
ENDBRANCH   1  13
BRANCH   5  22
ATOM     22  O   UNL     1       9.974  -5.137  24.667  0.00  0.00    -0.506 OA
ATOM     23  H   UNL     1      10.727  -5.153  25.299  0.00  0.00    +0.292 HD
ENDBRANCH   5  22
BRANCH  11  24
ATOM     24  O   UNL     1      10.641  -0.222  23.237  0.00  0.00    -0.501 OA
ATOM     25  H   UNL     1      10.269   0.487  22.686  0.00  0.00    +0.292 HD
ENDBRANCH  11  24
BRANCH   7  26
ATOM     26  O   UNL     1       6.492  -4.715  27.882  0.00  0.00    -0.461 OA
BRANCH  26  27
ATOM     27  C   UNL     1       5.060  -4.891  27.710  0.00  0.00    +0.339 C 
ATOM     28  O   UNL     1       4.675  -5.018  26.334  0.00  0.00    -0.331 OA
ATOM     29  C   UNL     1       3.280  -5.300  26.076  0.00  0.00    +0.179 C 
ATOM     30  C   UNL     1       2.833  -6.585  26.800  0.00  0.00    +0.177 C 
ATOM     31  C   UNL     1       3.212  -6.535  28.294  0.00  0.00    +0.180 C 
ATOM     32  C   UNL     1       4.700  -6.195  28.460  0.00  0.00    +0.214 C 
BRANCH  30  33
ATOM     33  O   UNL     1       3.456  -7.696  26.136  0.00  0.00    -0.386 OA
ATOM     34  H   UNL     1       2.795  -8.404  26.020  0.00  0.00    +0.210 HD
ENDBRANCH  30  33
BRANCH  31  35
ATOM     35  O   UNL     1       2.337  -5.639  28.984  0.00  0.00    -0.386 OA
ATOM     36  H   UNL     1       2.764  -4.779  29.136  0.00  0.00    +0.210 HD
ENDBRANCH  31  35
BRANCH  32  37
ATOM     37  O   UNL     1       5.472  -7.303  27.953  0.00  0.00    -0.383 OA
ATOM     38  H   UNL     1       4.993  -8.114  28.228  0.00  0.00    +0.210 HD
ENDBRANCH  32  37
BRANCH  29  39
ATOM     39  C   UNL     1       2.321  -4.124  26.356  0.00  0.00    +0.190 C 
BRANCH  39  40
ATOM     40  O   UNL     1       2.453  -3.081  25.398  0.00  0.00    -0.392 OA
ATOM     41  H   UNL     1       2.978  -3.418  24.652  0.00  0.00    +0.210 HD
ENDBRANCH  39  40
ENDBRANCH  29  39
ENDBRANCH  26  27
ENDBRANCH   7  26
TORSDOF 12
ENDMDL
MODEL 8
REMARK VINA RESULT:      -6.8      1.639      2.819
REMARK  Name = 
REMARK  12 active torsions:
REMARK  status: ('A' for Active; 'I' for Inactive)
REMARK    1  A    between atoms: C_3  and  O_38
REMARK    2  A    between atoms: C_4  and  O_37
REMARK    3  A    between atoms: C_6  and  C_7
REMARK    4  A    between atoms: C_8  and  O_36
REMARK    5  A    between atoms: C_12  and  O_35
REMARK    6  A    between atoms: C_14  and  O_18
REMARK    7  A    between atoms: O_18  and  C_19
REMARK    8  A    between atoms: C_21  and  O_34
REMARK    9  A    between atoms: C_23  and  O_33
REMARK   10  A    between atoms: C_25  and  O_32
REMARK   11  A    between atoms: C_27  and  C_30
REMARK   12  A    between atoms: C_30  and  O_31
REMARK                            x       y       z     vdW  Elec       q    Type
REMARK                         _______ _______ _______ _____ _____    ______ ____
ROOT
ATOM      1  C   UNL     1       7.121  -3.715  25.102  0.00  0.00    +0.181 A 
ATOM      2  O   UNL     1       6.768  -2.470  25.652  0.00  0.00    -0.451 OA
ATOM      3  C   UNL     1       7.568  -1.373  25.380  0.00  0.00    +0.147 A 
ATOM      4  C   UNL     1       8.810  -1.501  24.761  0.00  0.00    +0.109 A 
ATOM      5  C   UNL     1       9.619  -0.385  24.548  0.00  0.00    +0.135 A 
ATOM      6  C   UNL     1       9.180   0.882  24.895  0.00  0.00    +0.092 A 
ATOM      7  C   UNL     1       7.892   1.046  25.407  0.00  0.00    +0.131 A 
ATOM      8  C   UNL     1       9.218  -2.805  24.256  0.00  0.00    +0.238 A 
ATOM      9  O   UNL     1      10.313  -2.941  23.716  0.00  0.00    -0.283 OA
ATOM     10  C   UNL     1       7.110  -0.087  25.708  0.00  0.00    +0.093 A 
ATOM     11  C   UNL     1       8.235  -3.903  24.359  0.00  0.00    +0.208 A 
ENDROOT
BRANCH   1  13
ATOM     12  C   UNL     1       5.070  -5.079  24.478  0.00  0.00    +0.015 A 
ATOM     13  C   UNL     1       6.152  -4.829  25.361  0.00  0.00    +0.025 A 
ATOM     14  C   UNL     1       6.255  -5.650  26.492  0.00  0.00    +0.060 A 
ATOM     15  C   UNL     1       5.260  -6.591  26.766  0.00  0.00    +0.159 A 
ATOM     16  C   UNL     1       4.151  -6.741  25.935  0.00  0.00    +0.158 A 
ATOM     17  C   UNL     1       4.054  -5.998  24.774  0.00  0.00    +0.050 A 
BRANCH  15  18
ATOM     18  O   UNL     1       5.361  -7.367  27.886  0.00  0.00    -0.503 OA
ATOM     19  H   UNL     1       4.438  -7.517  28.170  0.00  0.00    +0.292 HD
ENDBRANCH  15  18
BRANCH  16  20
ATOM     20  O   UNL     1       3.184  -7.632  26.304  0.00  0.00    -0.503 OA
ATOM     21  H   UNL     1       3.112  -7.627  27.275  0.00  0.00    +0.292 HD
ENDBRANCH  16  20
ENDBRANCH   1  13
BRANCH   5  22
ATOM     22  O   UNL     1      10.859  -0.446  23.966  0.00  0.00    -0.506 OA
ATOM     23  H   UNL     1      11.123   0.471  23.726  0.00  0.00    +0.292 HD
ENDBRANCH   5  22
BRANCH  11  24
ATOM     24  O   UNL     1       8.543  -5.049  23.649  0.00  0.00    -0.501 OA
ATOM     25  H   UNL     1       9.510  -5.098  23.567  0.00  0.00    +0.292 HD
ENDBRANCH  11  24
BRANCH   7  26
ATOM     26  O   UNL     1       7.319   2.274  25.613  0.00  0.00    -0.461 OA
BRANCH  26  27
ATOM     27  C   UNL     1       6.760   2.966  24.463  0.00  0.00    +0.339 C 
ATOM     28  O   UNL     1       5.461   3.516  24.721  0.00  0.00    -0.331 OA
ATOM     29  C   UNL     1       4.874   4.310  23.664  0.00  0.00    +0.179 C 
ATOM     30  C   UNL     1       5.799   5.478  23.271  0.00  0.00    +0.177 C 
ATOM     31  C   UNL     1       7.227   4.973  22.978  0.00  0.00    +0.180 C 
ATOM     32  C   UNL     1       7.744   4.115  24.141  0.00  0.00    +0.214 C 
BRANCH  30  33
ATOM     33  O   UNL     1       5.788   6.424  24.353  0.00  0.00    -0.386 OA
ATOM     34  H   UNL     1       6.690   6.494  24.718  0.00  0.00    +0.210 HD
ENDBRANCH  30  33
BRANCH  31  35
ATOM     35  O   UNL     1       7.253   4.305  21.714  0.00  0.00    -0.386 OA
ATOM     36  H   UNL     1       7.238   3.340  21.828  0.00  0.00    +0.210 HD
ENDBRANCH  31  35
BRANCH  32  37
ATOM     37  O   UNL     1       7.917   4.972  25.288  0.00  0.00    -0.383 OA
ATOM     38  H   UNL     1       7.363   4.586  26.000  0.00  0.00    +0.210 HD
ENDBRANCH  32  37
BRANCH  29  39
ATOM     39  C   UNL     1       4.416   3.505  22.430  0.00  0.00    +0.190 C 
BRANCH  39  40
ATOM     40  O   UNL     1       3.241   2.744  22.688  0.00  0.00    -0.392 OA
ATOM     41  H   UNL     1       2.987   2.885  23.617  0.00  0.00    +0.210 HD
ENDBRANCH  39  40
ENDBRANCH  29  39
ENDBRANCH  26  27
ENDBRANCH   7  26
TORSDOF 12
ENDMDL
MODEL 9
REMARK VINA RESULT:      -6.8      2.927      8.740
REMARK  Name = 
REMARK  12 active torsions:
REMARK  status: ('A' for Active; 'I' for Inactive)
REMARK    1  A    between atoms: C_3  and  O_38
REMARK    2  A    between atoms: C_4  and  O_37
REMARK    3  A    between atoms: C_6  and  C_7
REMARK    4  A    between atoms: C_8  and  O_36
REMARK    5  A    between atoms: C_12  and  O_35
REMARK    6  A    between atoms: C_14  and  O_18
REMARK    7  A    between atoms: O_18  and  C_19
REMARK    8  A    between atoms: C_21  and  O_34
REMARK    9  A    between atoms: C_23  and  O_33
REMARK   10  A    between atoms: C_25  and  O_32
REMARK   11  A    between atoms: C_27  and  C_30
REMARK   12  A    between atoms: C_30  and  O_31
REMARK                            x       y       z     vdW  Elec       q    Type
REMARK                         _______ _______ _______ _____ _____    ______ ____
ROOT
ATOM      1  C   UNL     1       7.216   2.942  25.649  0.00  0.00    +0.181 A 
ATOM      2  O   UNL     1       6.924   1.698  25.065  0.00  0.00    -0.451 OA
ATOM      3  C   UNL     1       7.728   1.244  24.032  0.00  0.00    +0.147 A 
ATOM      4  C   UNL     1       8.675   2.064  23.420  0.00  0.00    +0.109 A 
ATOM      5  C   UNL     1       9.433   1.597  22.346  0.00  0.00    +0.135 A 
ATOM      6  C   UNL     1       9.301   0.292  21.902  0.00  0.00    +0.092 A 
ATOM      7  C   UNL     1       8.444  -0.580  22.576  0.00  0.00    +0.131 A 
ATOM      8  C   UNL     1       8.928   3.386  23.973  0.00  0.00    +0.238 A 
ATOM      9  O   UNL     1       9.752   4.129  23.442  0.00  0.00    -0.283 OA
ATOM     10  C   UNL     1       7.612  -0.087  23.601  0.00  0.00    +0.093 A 
ATOM     11  C   UNL     1       8.216   3.744  25.217  0.00  0.00    +0.208 A 
ENDROOT
BRANCH   1  13
ATOM     12  C   UNL     1       5.173   4.069  26.656  0.00  0.00    +0.015 A 
ATOM     13  C   UNL     1       6.363   3.315  26.825  0.00  0.00    +0.025 A 
ATOM     14  C   UNL     1       6.715   2.963  28.134  0.00  0.00    +0.060 A 
ATOM     15  C   UNL     1       5.966   3.440  29.212  0.00  0.00    +0.159 A 
ATOM     16  C   UNL     1       4.861   4.268  29.021  0.00  0.00    +0.158 A 
ATOM     17  C   UNL     1       4.445   4.577  27.740  0.00  0.00    +0.050 A 
BRANCH  15  18
ATOM     18  O   UNL     1       6.337   3.108  30.485  0.00  0.00    -0.503 OA
ATOM     19  H   UNL     1       6.372   3.959  30.964  0.00  0.00    +0.292 HD
ENDBRANCH  15  18
BRANCH  16  20
ATOM     20  O   UNL     1       4.220   4.753  30.125  0.00  0.00    -0.503 OA
ATOM     21  H   UNL     1       4.861   4.810  30.856  0.00  0.00    +0.292 HD
ENDBRANCH  16  20
ENDBRANCH   1  13
BRANCH   5  22
ATOM     22  O   UNL     1      10.362   2.359  21.686  0.00  0.00    -0.506 OA
ATOM     23  H   UNL     1      10.215   2.242  20.720  0.00  0.00    +0.292 HD
ENDBRANCH   5  22
BRANCH  11  24
ATOM     24  O   UNL     1       8.662   4.886  25.854  0.00  0.00    -0.501 OA
ATOM     25  H   UNL     1       7.885   5.421  26.086  0.00  0.00    +0.292 HD
ENDBRANCH  11  24
BRANCH   7  26
ATOM     26  O   UNL     1       8.385  -1.923  22.313  0.00  0.00    -0.461 OA
BRANCH  26  27
ATOM     27  C   UNL     1       7.964  -2.809  23.387  0.00  0.00    +0.339 C 
ATOM     28  O   UNL     1       7.776  -4.162  22.951  0.00  0.00    -0.331 OA
ATOM     29  C   UNL     1       7.457  -5.132  23.975  0.00  0.00    +0.179 C 
ATOM     30  C   UNL     1       8.534  -5.148  25.077  0.00  0.00    +0.177 C 
ATOM     31  C   UNL     1       8.802  -3.723  25.604  0.00  0.00    +0.180 C 
ATOM     32  C   UNL     1       9.096  -2.765  24.440  0.00  0.00    +0.214 C 
BRANCH  30  33
ATOM     33  O   UNL     1       9.721  -5.733  24.517  0.00  0.00    -0.386 OA
ATOM     34  H   UNL     1       9.839  -5.394  23.609  0.00  0.00    +0.210 HD
ENDBRANCH  30  33
BRANCH  31  35
ATOM     35  O   UNL     1       7.717  -3.303  26.434  0.00  0.00    -0.386 OA
ATOM     36  H   UNL     1       7.970  -3.314  27.373  0.00  0.00    +0.210 HD
ENDBRANCH  31  35
BRANCH  32  37
ATOM     37  O   UNL     1      10.354  -3.150  23.850  0.00  0.00    -0.383 OA
ATOM     38  H   UNL     1      10.419  -2.654  23.005  0.00  0.00    +0.210 HD
ENDBRANCH  32  37
BRANCH  29  39
ATOM     39  C   UNL     1       6.038  -5.003  24.567  0.00  0.00    +0.190 C 
BRANCH  39  40
ATOM     40  O   UNL     1       5.908  -5.683  25.810  0.00  0.00    -0.392 OA
ATOM     41  H   UNL     1       6.796  -5.791  26.191  0.00  0.00    +0.210 HD
ENDBRANCH  39  40
ENDBRANCH  29  39
ENDBRANCH  26  27
ENDBRANCH   7  26
TORSDOF 12
ENDMDL
