MODEL 1
REMARK VINA RESULT:      -7.0      0.000      0.000
REMARK  Name = 
REMARK  16 active torsions:
REMARK  status: ('A' for Active; 'I' for Inactive)
REMARK    1  A    between atoms: C_2  and  O_51
REMARK    2  A    between atoms: C_4  and  O_50
REMARK    3  A    between atoms: C_6  and  O_33
REMARK    4  A    between atoms: C_8  and  O_11
REMARK    5  A    between atoms: O_11  and  C_12
REMARK    6  A    between atoms: C_13  and  C_25
REMARK    7  A    between atoms: C_17  and  O_24
REMARK    8  A    between atoms: C_19  and  O_23
REMARK    9  A    between atoms: C_27  and  O_32
REMARK   10  A    between atoms: C_28  and  O_31
REMARK   11  A    between atoms: O_33  and  C_34
REMARK   12  A    between atoms: C_36  and  O_49
REMARK   13  A    between atoms: C_38  and  O_48
REMARK   14  A    between atoms: C_40  and  O_47
REMARK   15  A    between atoms: C_42  and  C_45
REMARK   16  A    between atoms: C_45  and  O_46
REMARK                            x       y       z     vdW  Elec       q    Type
REMARK                         _______ _______ _______ _____ _____    ______ ____
ROOT
ATOM      1  C   UNL     1       9.877  -4.299  25.274  0.00  0.00    +0.198 C 
ATOM      2  O   UNL     1       9.139  -3.108  24.975  0.00  0.00    -0.337 OA
ATOM      3  C   UNL     1       8.341  -2.714  26.091  0.00  0.00    +0.340 C 
ATOM      4  C   UNL     1       7.486  -3.870  26.698  0.00  0.00    +0.221 C 
ATOM      5  C   UNL     1       7.783  -5.305  26.220  0.00  0.00    +0.180 C 
ATOM      6  C   UNL     1       8.925  -5.478  25.215  0.00  0.00    +0.171 C 
ENDROOT
BRANCH   6   7
ATOM      7  O   UNL     1       9.603  -6.712  25.454  0.00  0.00    -0.387 OA
ATOM      8  H   UNL     1       9.696  -6.809  26.420  0.00  0.00    +0.210 HD
ENDBRANCH   6   7
BRANCH   5   9
ATOM      9  O   UNL     1       7.989  -6.082  27.426  0.00  0.00    -0.386 OA
ATOM     10  H   UNL     1       7.292  -5.811  28.058  0.00  0.00    +0.210 HD
ENDBRANCH   5   9
BRANCH   4  11
ATOM     11  O   UNL     1       6.055  -3.567  26.652  0.00  0.00    -0.337 OA
BRANCH  11  12
ATOM     12  C   UNL     1       5.384  -3.668  27.907  0.00  0.00    +0.282 C 
ATOM     13  O   UNL     1       5.350  -5.028  28.329  0.00  0.00    -0.341 OA
ATOM     14  C   UNL     1       4.171  -5.809  28.172  0.00  0.00    +0.178 C 
ATOM     15  C   UNL     1       2.842  -5.048  28.166  0.00  0.00    +0.177 C 
ATOM     16  C   UNL     1       2.885  -3.704  27.445  0.00  0.00    +0.179 C 
ATOM     17  C   UNL     1       4.060  -2.877  27.937  0.00  0.00    +0.201 C 
BRANCH  15  18
ATOM     18  O   UNL     1       1.775  -5.851  27.653  0.00  0.00    -0.386 OA
ATOM     19  H   UNL     1       2.014  -6.773  27.896  0.00  0.00    +0.210 HD
ENDBRANCH  15  18
BRANCH  16  20
ATOM     20  O   UNL     1       2.869  -3.850  26.021  0.00  0.00    -0.386 OA
ATOM     21  H   UNL     1       2.856  -2.981  25.580  0.00  0.00    +0.210 HD
ENDBRANCH  16  20
BRANCH  17  22
ATOM     22  O   UNL     1       3.828  -2.396  29.267  0.00  0.00    -0.384 OA
ATOM     23  H   UNL     1       2.863  -2.472  29.415  0.00  0.00    +0.210 HD
ENDBRANCH  17  22
BRANCH  14  24
ATOM     24  C   UNL     1       4.358  -6.853  27.048  0.00  0.00    +0.190 C 
BRANCH  24  25
ATOM     25  O   UNL     1       4.424  -6.269  25.757  0.00  0.00    -0.392 OA
ATOM     26  H   UNL     1       5.337  -6.416  25.430  0.00  0.00    +0.210 HD
ENDBRANCH  24  25
ENDBRANCH  14  24
ENDBRANCH  11  12
ENDBRANCH   4  11
BRANCH   3  27
ATOM     27  O   UNL     1       7.394  -1.652  25.909  0.00  0.00    -0.453 OA
BRANCH  27  28
ATOM     28  C   UNL     1       7.441  -0.690  24.954  0.00  0.00    +0.214 A 
ATOM     29  C   UNL     1       7.388   0.730  25.479  0.00  0.00    +0.238 A 
ATOM     30  O   UNL     1       7.218   0.926  26.674  0.00  0.00    -0.283 OA
ATOM     31  C   UNL     1       7.437   1.817  24.491  0.00  0.00    +0.109 A 
ATOM     32  C   UNL     1       7.143   1.488  23.173  0.00  0.00    +0.147 A 
ATOM     33  C   UNL     1       7.076   2.476  22.184  0.00  0.00    +0.092 A 
ATOM     34  C   UNL     1       7.347   3.795  22.525  0.00  0.00    +0.124 A 
ATOM     35  C   UNL     1       7.673   4.142  23.830  0.00  0.00    +0.091 A 
ATOM     36  O   UNL     1       6.888   0.205  22.770  0.00  0.00    -0.451 OA
ATOM     37  C   UNL     1       7.708   3.153  24.818  0.00  0.00    +0.135 A 
ATOM     38  C   UNL     1       7.045  -0.852  23.661  0.00  0.00    +0.181 A 
BRANCH  38  39
ATOM     39  C   UNL     1       6.541  -2.117  23.077  0.00  0.00    +0.025 A 
ATOM     40  C   UNL     1       7.372  -2.939  22.290  0.00  0.00    +0.015 A 
ATOM     41  C   UNL     1       6.984  -4.221  21.900  0.00  0.00    +0.050 A 
ATOM     42  C   UNL     1       5.768  -4.732  22.350  0.00  0.00    +0.158 A 
ATOM     43  C   UNL     1       4.932  -3.941  23.118  0.00  0.00    +0.159 A 
ATOM     44  C   UNL     1       5.293  -2.642  23.480  0.00  0.00    +0.060 A 
BRANCH  42  45
ATOM     45  O   UNL     1       5.439  -6.015  22.043  0.00  0.00    -0.503 OA
ATOM     46  H   UNL     1       6.272  -6.401  21.711  0.00  0.00    +0.292 HD
ENDBRANCH  42  45
BRANCH  43  47
ATOM     47  O   UNL     1       3.760  -4.511  23.544  0.00  0.00    -0.503 OA
ATOM     48  H   UNL     1       3.733  -4.484  24.511  0.00  0.00    +0.292 HD
ENDBRANCH  43  47
ENDBRANCH  38  39
BRANCH  34  49
ATOM     49  O   UNL     1       7.312   4.795  21.601  0.00  0.00    -0.507 OA
ATOM     50  H   UNL     1       8.185   5.218  21.550  0.00  0.00    +0.292 HD
ENDBRANCH  34  49
BRANCH  37  51
ATOM     51  O   UNL     1       8.043   3.512  26.090  0.00  0.00    -0.506 OA
ATOM     52  H   UNL     1       8.896   3.978  26.091  0.00  0.00    +0.292 HD
ENDBRANCH  37  51
ENDBRANCH  27  28
ENDBRANCH   3  27
TORSDOF 16
ENDMDL
MODEL 2
REMARK VINA RESULT:      -6.8      2.499      6.446
REMARK  Name = 
REMARK  16 active torsions:
REMARK  status: ('A' for Active; 'I' for Inactive)
REMARK    1  A    between atoms: C_2  and  O_51
REMARK    2  A    between atoms: C_4  and  O_50
REMARK    3  A    between atoms: C_6  and  O_33
REMARK    4  A    between atoms: C_8  and  O_11
REMARK    5  A    between atoms: O_11  and  C_12
REMARK    6  A    between atoms: C_13  and  C_25
REMARK    7  A    between atoms: C_17  and  O_24
REMARK    8  A    between atoms: C_19  and  O_23
REMARK    9  A    between atoms: C_27  and  O_32
REMARK   10  A    between atoms: C_28  and  O_31
REMARK   11  A    between atoms: O_33  and  C_34
REMARK   12  A    between atoms: C_36  and  O_49
REMARK   13  A    between atoms: C_38  and  O_48
REMARK   14  A    between atoms: C_40  and  O_47
REMARK   15  A    between atoms: C_42  and  C_45
REMARK   16  A    between atoms: C_45  and  O_46
REMARK                            x       y       z     vdW  Elec       q    Type
REMARK                         _______ _______ _______ _____ _____    ______ ____
ROOT
ATOM      1  C   UNL     1       5.082  -5.793  23.320  0.00  0.00    +0.198 C 
ATOM      2  O   UNL     1       5.335  -4.987  24.477  0.00  0.00    -0.337 OA
ATOM      3  C   UNL     1       5.029  -3.617  24.217  0.00  0.00    +0.340 C 
ATOM      4  C   UNL     1       5.654  -3.069  22.895  0.00  0.00    +0.221 C 
ATOM      5  C   UNL     1       6.283  -4.088  21.926  0.00  0.00    +0.180 C 
ATOM      6  C   UNL     1       6.203  -5.564  22.324  0.00  0.00    +0.171 C 
ENDROOT
BRANCH   6   7
ATOM      7  O   UNL     1       6.044  -6.377  21.161  0.00  0.00    -0.387 OA
ATOM      8  H   UNL     1       5.129  -6.257  20.847  0.00  0.00    +0.210 HD
ENDBRANCH   6   7
BRANCH   5   9
ATOM      9  O   UNL     1       5.666  -3.832  20.639  0.00  0.00    -0.386 OA
ATOM     10  H   UNL     1       5.347  -4.695  20.304  0.00  0.00    +0.210 HD
ENDBRANCH   5   9
BRANCH   4  11
ATOM     11  O   UNL     1       6.548  -1.938  23.149  0.00  0.00    -0.337 OA
BRANCH  11  12
ATOM     12  C   UNL     1       7.933  -2.221  22.965  0.00  0.00    +0.282 C 
ATOM     13  O   UNL     1       8.489  -2.724  24.177  0.00  0.00    -0.341 OA
ATOM     14  C   UNL     1       9.259  -1.884  25.029  0.00  0.00    +0.178 C 
ATOM     15  C   UNL     1       9.990  -0.718  24.359  0.00  0.00    +0.177 C 
ATOM     16  C   UNL     1       9.210  -0.040  23.238  0.00  0.00    +0.179 C 
ATOM     17  C   UNL     1       8.685  -1.075  22.258  0.00  0.00    +0.201 C 
BRANCH  15  18
ATOM     18  O   UNL     1      10.426   0.252  25.316  0.00  0.00    -0.386 OA
ATOM     19  H   UNL     1      11.227   0.658  24.918  0.00  0.00    +0.210 HD
ENDBRANCH  15  18
BRANCH  16  20
ATOM     20  O   UNL     1       8.182   0.822  23.735  0.00  0.00    -0.386 OA
ATOM     21  H   UNL     1       8.389   1.757  23.551  0.00  0.00    +0.210 HD
ENDBRANCH  16  20
BRANCH  17  22
ATOM     22  O   UNL     1       9.751  -1.624  21.472  0.00  0.00    -0.384 OA
ATOM     23  H   UNL     1      10.316  -2.123  22.097  0.00  0.00    +0.210 HD
ENDBRANCH  17  22
BRANCH  14  24
ATOM     24  C   UNL     1       8.466  -1.540  26.311  0.00  0.00    +0.190 C 
BRANCH  24  25
ATOM     25  O   UNL     1       7.950  -0.218  26.301  0.00  0.00    -0.392 OA
ATOM     26  H   UNL     1       8.418   0.269  27.013  0.00  0.00    +0.210 HD
ENDBRANCH  24  25
ENDBRANCH  14  24
ENDBRANCH  11  12
ENDBRANCH   4  11
BRANCH   3  27
ATOM     27  O   UNL     1       5.399  -2.639  25.198  0.00  0.00    -0.453 OA
BRANCH  27  28
ATOM     28  C   UNL     1       4.567  -2.043  26.089  0.00  0.00    +0.214 A 
ATOM     29  C   UNL     1       4.520  -0.531  26.002  0.00  0.00    +0.238 A 
ATOM     30  O   UNL     1       5.271   0.053  25.234  0.00  0.00    -0.283 OA
ATOM     31  C   UNL     1       3.635   0.172  26.942  0.00  0.00    +0.109 A 
ATOM     32  C   UNL     1       3.215  -0.534  28.064  0.00  0.00    +0.147 A 
ATOM     33  C   UNL     1       2.447   0.086  29.056  0.00  0.00    +0.092 A 
ATOM     34  C   UNL     1       2.071   1.413  28.891  0.00  0.00    +0.124 A 
ATOM     35  C   UNL     1       2.454   2.128  27.762  0.00  0.00    +0.091 A 
ATOM     36  O   UNL     1       3.534  -1.848  28.273  0.00  0.00    -0.451 OA
ATOM     37  C   UNL     1       3.247   1.510  26.791  0.00  0.00    +0.135 A 
ATOM     38  C   UNL     1       4.196  -2.573  27.287  0.00  0.00    +0.181 A 
BRANCH  38  39
ATOM     39  C   UNL     1       4.604  -3.905  27.791  0.00  0.00    +0.025 A 
ATOM     40  C   UNL     1       3.647  -4.889  28.110  0.00  0.00    +0.015 A 
ATOM     41  C   UNL     1       4.010  -6.206  28.393  0.00  0.00    +0.050 A 
ATOM     42  C   UNL     1       5.350  -6.580  28.299  0.00  0.00    +0.158 A 
ATOM     43  C   UNL     1       6.308  -5.629  27.994  0.00  0.00    +0.159 A 
ATOM     44  C   UNL     1       5.960  -4.300  27.748  0.00  0.00    +0.060 A 
BRANCH  42  45
ATOM     45  O   UNL     1       5.684  -7.884  28.485  0.00  0.00    -0.503 OA
ATOM     46  H   UNL     1       5.246  -8.124  29.324  0.00  0.00    +0.292 HD
ENDBRANCH  42  45
BRANCH  43  47
ATOM     47  O   UNL     1       7.604  -6.066  27.897  0.00  0.00    -0.503 OA
ATOM     48  H   UNL     1       7.732  -6.472  27.028  0.00  0.00    +0.292 HD
ENDBRANCH  43  47
ENDBRANCH  38  39
BRANCH  34  49
ATOM     49  O   UNL     1       1.311   2.063  29.816  0.00  0.00    -0.507 OA
ATOM     50  H   UNL     1       1.857   2.273  30.592  0.00  0.00    +0.292 HD
ENDBRANCH  34  49
BRANCH  37  51
ATOM     51  O   UNL     1       3.600   2.225  25.685  0.00  0.00    -0.506 OA
ATOM     52  H   UNL     1       4.022   3.060  25.949  0.00  0.00    +0.292 HD
ENDBRANCH  37  51
ENDBRANCH  27  28
ENDBRANCH   3  27
TORSDOF 16
ENDMDL
MODEL 3
REMARK VINA RESULT:      -6.8      0.822      1.546
REMARK  Name = 
REMARK  16 active torsions:
REMARK  status: ('A' for Active; 'I' for Inactive)
REMARK    1  A    between atoms: C_2  and  O_51
REMARK    2  A    between atoms: C_4  and  O_50
REMARK    3  A    between atoms: C_6  and  O_33
REMARK    4  A    between atoms: C_8  and  O_11
REMARK    5  A    between atoms: O_11  and  C_12
REMARK    6  A    between atoms: C_13  and  C_25
REMARK    7  A    between atoms: C_17  and  O_24
REMARK    8  A    between atoms: C_19  and  O_23
REMARK    9  A    between atoms: C_27  and  O_32
REMARK   10  A    between atoms: C_28  and  O_31
REMARK   11  A    between atoms: O_33  and  C_34
REMARK   12  A    between atoms: C_36  and  O_49
REMARK   13  A    between atoms: C_38  and  O_48
REMARK   14  A    between atoms: C_40  and  O_47
REMARK   15  A    between atoms: C_42  and  C_45
REMARK   16  A    between atoms: C_45  and  O_46
REMARK                            x       y       z     vdW  Elec       q    Type
REMARK                         _______ _______ _______ _____ _____    ______ ____
ROOT
ATOM      1  C   UNL     1       9.837  -4.258  25.332  0.00  0.00    +0.198 C 
ATOM      2  O   UNL     1       9.083  -3.083  25.012  0.00  0.00    -0.337 OA
ATOM      3  C   UNL     1       8.253  -2.700  26.108  0.00  0.00    +0.340 C 
ATOM      4  C   UNL     1       7.408  -3.871  26.702  0.00  0.00    +0.221 C 
ATOM      5  C   UNL     1       7.743  -5.302  26.236  0.00  0.00    +0.180 C 
ATOM      6  C   UNL     1       8.910  -5.456  25.258  0.00  0.00    +0.171 C 
ENDROOT
BRANCH   6   7
ATOM      7  O   UNL     1       9.607  -6.675  25.517  0.00  0.00    -0.387 OA
ATOM      8  H   UNL     1       9.020  -7.235  26.059  0.00  0.00    +0.210 HD
ENDBRANCH   6   7
BRANCH   5   9
ATOM      9  O   UNL     1       7.938  -6.069  27.451  0.00  0.00    -0.386 OA
ATOM     10  H   UNL     1       7.978  -7.011  27.185  0.00  0.00    +0.210 HD
ENDBRANCH   5   9
BRANCH   4  11
ATOM     11  O   UNL     1       5.973  -3.597  26.623  0.00  0.00    -0.337 OA
BRANCH  11  12
ATOM     12  C   UNL     1       5.140  -4.624  27.159  0.00  0.00    +0.282 C 
ATOM     13  O   UNL     1       3.940  -4.719  26.397  0.00  0.00    -0.341 OA
ATOM     14  C   UNL     1       2.728  -4.144  26.872  0.00  0.00    +0.178 C 
ATOM     15  C   UNL     1       2.581  -4.017  28.391  0.00  0.00    +0.177 C 
ATOM     16  C   UNL     1       3.864  -3.636  29.122  0.00  0.00    +0.179 C 
ATOM     17  C   UNL     1       5.007  -4.539  28.693  0.00  0.00    +0.201 C 
BRANCH  15  18
ATOM     18  O   UNL     1       1.523  -3.123  28.747  0.00  0.00    -0.386 OA
ATOM     19  H   UNL     1       1.885  -2.585  29.485  0.00  0.00    +0.210 HD
ENDBRANCH  15  18
BRANCH  16  20
ATOM     20  O   UNL     1       4.175  -2.246  28.984  0.00  0.00    -0.386 OA
ATOM     21  H   UNL     1       4.713  -1.931  29.734  0.00  0.00    +0.210 HD
ENDBRANCH  16  20
BRANCH  17  22
ATOM     22  O   UNL     1       4.845  -5.860  29.226  0.00  0.00    -0.384 OA
ATOM     23  H   UNL     1       3.979  -6.178  28.896  0.00  0.00    +0.210 HD
ENDBRANCH  17  22
BRANCH  14  24
ATOM     24  C   UNL     1       2.367  -2.886  26.050  0.00  0.00    +0.190 C 
BRANCH  24  25
ATOM     25  O   UNL     1       3.260  -1.806  26.272  0.00  0.00    -0.392 OA
ATOM     26  H   UNL     1       4.006  -2.166  26.798  0.00  0.00    +0.210 HD
ENDBRANCH  24  25
ENDBRANCH  14  24
ENDBRANCH  11  12
ENDBRANCH   4  11
BRANCH   3  27
ATOM     27  O   UNL     1       7.289  -1.659  25.901  0.00  0.00    -0.453 OA
BRANCH  27  28
ATOM     28  C   UNL     1       7.342  -0.696  24.947  0.00  0.00    +0.214 A 
ATOM     29  C   UNL     1       7.253   0.723  25.472  0.00  0.00    +0.238 A 
ATOM     30  O   UNL     1       7.052   0.916  26.662  0.00  0.00    -0.283 OA
ATOM     31  C   UNL     1       7.306   1.812  24.486  0.00  0.00    +0.109 A 
ATOM     32  C   UNL     1       7.048   1.479  23.161  0.00  0.00    +0.147 A 
ATOM     33  C   UNL     1       6.987   2.466  22.170  0.00  0.00    +0.092 A 
ATOM     34  C   UNL     1       7.227   3.789  22.518  0.00  0.00    +0.124 A 
ATOM     35  C   UNL     1       7.518   4.140  23.831  0.00  0.00    +0.091 A 
ATOM     36  O   UNL     1       6.824   0.191  22.752  0.00  0.00    -0.451 OA
ATOM     37  C   UNL     1       7.546   3.151  24.819  0.00  0.00    +0.135 A 
ATOM     38  C   UNL     1       6.978  -0.863  23.646  0.00  0.00    +0.181 A 
BRANCH  38  39
ATOM     39  C   UNL     1       6.510  -2.136  23.050  0.00  0.00    +0.025 A 
ATOM     40  C   UNL     1       7.371  -2.941  22.278  0.00  0.00    +0.015 A 
ATOM     41  C   UNL     1       7.014  -4.229  21.878  0.00  0.00    +0.050 A 
ATOM     42  C   UNL     1       5.799  -4.764  22.304  0.00  0.00    +0.158 A 
ATOM     43  C   UNL     1       4.935  -3.990  23.058  0.00  0.00    +0.159 A 
ATOM     44  C   UNL     1       5.264  -2.685  23.429  0.00  0.00    +0.060 A 
BRANCH  42  45
ATOM     45  O   UNL     1       5.501  -6.052  21.988  0.00  0.00    -0.503 OA
ATOM     46  H   UNL     1       4.537  -6.042  21.835  0.00  0.00    +0.292 HD
ENDBRANCH  42  45
BRANCH  43  47
ATOM     47  O   UNL     1       3.766  -4.583  23.461  0.00  0.00    -0.503 OA
ATOM     48  H   UNL     1       3.853  -4.846  24.388  0.00  0.00    +0.292 HD
ENDBRANCH  43  47
ENDBRANCH  38  39
BRANCH  34  49
ATOM     49  O   UNL     1       7.197   4.789  21.593  0.00  0.00    -0.507 OA
ATOM     50  H   UNL     1       8.053   4.833  21.137  0.00  0.00    +0.292 HD
ENDBRANCH  34  49
BRANCH  37  51
ATOM     51  O   UNL     1       7.846   3.516  26.098  0.00  0.00    -0.506 OA
ATOM     52  H   UNL     1       7.628   4.453  26.238  0.00  0.00    +0.292 HD
ENDBRANCH  37  51
ENDBRANCH  27  28
ENDBRANCH   3  27
TORSDOF 16
ENDMDL
MODEL 4
REMARK VINA RESULT:      -6.4      1.893      4.185
REMARK  Name = 
REMARK  16 active torsions:
REMARK  status: ('A' for Active; 'I' for Inactive)
REMARK    1  A    between atoms: C_2  and  O_51
REMARK    2  A    between atoms: C_4  and  O_50
REMARK    3  A    between atoms: C_6  and  O_33
REMARK    4  A    between atoms: C_8  and  O_11
REMARK    5  A    between atoms: O_11  and  C_12
REMARK    6  A    between atoms: C_13  and  C_25
REMARK    7  A    between atoms: C_17  and  O_24
REMARK    8  A    between atoms: C_19  and  O_23
REMARK    9  A    between atoms: C_27  and  O_32
REMARK   10  A    between atoms: C_28  and  O_31
REMARK   11  A    between atoms: O_33  and  C_34
REMARK   12  A    between atoms: C_36  and  O_49
REMARK   13  A    between atoms: C_38  and  O_48
REMARK   14  A    between atoms: C_40  and  O_47
REMARK   15  A    between atoms: C_42  and  C_45
REMARK   16  A    between atoms: C_45  and  O_46
REMARK                            x       y       z     vdW  Elec       q    Type
REMARK                         _______ _______ _______ _____ _____    ______ ____
ROOT
ATOM      1  C   UNL     1       4.087   0.014  28.646  0.00  0.00    +0.198 C 
ATOM      2  O   UNL     1       5.017   0.096  27.558  0.00  0.00    -0.337 OA
ATOM      3  C   UNL     1       4.508  -0.574  26.406  0.00  0.00    +0.340 C 
ATOM      4  C   UNL     1       3.971  -2.012  26.693  0.00  0.00    +0.221 C 
ATOM      5  C   UNL     1       3.812  -2.433  28.168  0.00  0.00    +0.180 C 
ATOM      6  C   UNL     1       4.156  -1.385  29.229  0.00  0.00    +0.171 C 
ENDROOT
BRANCH   6   7
ATOM      7  O   UNL     1       3.289  -1.526  30.354  0.00  0.00    -0.387 OA
ATOM      8  H   UNL     1       2.794  -2.358  30.236  0.00  0.00    +0.210 HD
ENDBRANCH   6   7
BRANCH   5   9
ATOM      9  O   UNL     1       2.449  -2.912  28.289  0.00  0.00    -0.386 OA
ATOM     10  H   UNL     1       2.336  -3.207  29.216  0.00  0.00    +0.210 HD
ENDBRANCH   5   9
BRANCH   4  11
ATOM     11  O   UNL     1       4.688  -3.022  25.914  0.00  0.00    -0.337 OA
BRANCH  11  12
ATOM     12  C   UNL     1       3.910  -3.652  24.898  0.00  0.00    +0.282 C 
ATOM     13  O   UNL     1       2.747  -4.241  25.474  0.00  0.00    -0.341 OA
ATOM     14  C   UNL     1       2.688  -5.639  25.726  0.00  0.00    +0.178 C 
ATOM     15  C   UNL     1       3.548  -6.533  24.828  0.00  0.00    +0.177 C 
ATOM     16  C   UNL     1       4.911  -5.949  24.473  0.00  0.00    +0.179 C 
ATOM     17  C   UNL     1       4.761  -4.529  23.957  0.00  0.00    +0.201 C 
BRANCH  15  18
ATOM     18  O   UNL     1       3.699  -7.846  25.376  0.00  0.00    -0.386 OA
ATOM     19  H   UNL     1       2.814  -8.262  25.282  0.00  0.00    +0.210 HD
ENDBRANCH  15  18
BRANCH  16  20
ATOM     20  O   UNL     1       5.844  -6.049  25.554  0.00  0.00    -0.386 OA
ATOM     21  H   UNL     1       5.921  -5.202  26.029  0.00  0.00    +0.210 HD
ENDBRANCH  16  20
BRANCH  17  22
ATOM     22  O   UNL     1       4.179  -4.518  22.647  0.00  0.00    -0.384 OA
ATOM     23  H   UNL     1       4.379  -5.394  22.257  0.00  0.00    +0.210 HD
ENDBRANCH  17  22
BRANCH  14  24
ATOM     24  C   UNL     1       2.775  -5.922  27.244  0.00  0.00    +0.190 C 
BRANCH  24  25
ATOM     25  O   UNL     1       4.057  -5.645  27.784  0.00  0.00    -0.392 OA
ATOM     26  H   UNL     1       4.178  -4.672  27.730  0.00  0.00    +0.210 HD
ENDBRANCH  24  25
ENDBRANCH  14  24
ENDBRANCH  11  12
ENDBRANCH   4  11
BRANCH   3  27
ATOM     27  O   UNL     1       5.381  -0.757  25.283  0.00  0.00    -0.453 OA
BRANCH  27  28
ATOM     28  C   UNL     1       6.544  -0.097  25.056  0.00  0.00    +0.214 A 
ATOM     29  C   UNL     1       6.383   1.291  24.470  0.00  0.00    +0.238 A 
ATOM     30  O   UNL     1       5.270   1.689  24.157  0.00  0.00    -0.283 OA
ATOM     31  C   UNL     1       7.608   2.058  24.202  0.00  0.00    +0.109 A 
ATOM     32  C   UNL     1       8.800   1.344  24.138  0.00  0.00    +0.147 A 
ATOM     33  C   UNL     1       9.999   1.979  23.798  0.00  0.00    +0.092 A 
ATOM     34  C   UNL     1       9.998   3.348  23.561  0.00  0.00    +0.124 A 
ATOM     35  C   UNL     1       8.824   4.086  23.651  0.00  0.00    +0.091 A 
ATOM     36  O   UNL     1       8.870  -0.001  24.380  0.00  0.00    -0.451 OA
ATOM     37  C   UNL     1       7.624   3.438  23.962  0.00  0.00    +0.135 A 
ATOM     38  C   UNL     1       7.750  -0.689  24.835  0.00  0.00    +0.181 A 
BRANCH  38  39
ATOM     39  C   UNL     1       7.996  -2.150  24.852  0.00  0.00    +0.025 A 
ATOM     40  C   UNL     1       8.004  -2.903  23.660  0.00  0.00    +0.015 A 
ATOM     41  C   UNL     1       8.427  -4.232  23.631  0.00  0.00    +0.050 A 
ATOM     42  C   UNL     1       8.915  -4.818  24.797  0.00  0.00    +0.158 A 
ATOM     43  C   UNL     1       8.911  -4.101  25.980  0.00  0.00    +0.159 A 
ATOM     44  C   UNL     1       8.452  -2.784  26.029  0.00  0.00    +0.060 A 
BRANCH  42  45
ATOM     45  O   UNL     1       9.412  -6.082  24.739  0.00  0.00    -0.503 OA
ATOM     46  H   UNL     1       9.899  -6.185  25.579  0.00  0.00    +0.292 HD
ENDBRANCH  42  45
BRANCH  43  47
ATOM     47  O   UNL     1       9.424  -4.729  27.086  0.00  0.00    -0.503 OA
ATOM     48  H   UNL     1       9.843  -4.068  27.654  0.00  0.00    +0.292 HD
ENDBRANCH  43  47
ENDBRANCH  38  39
BRANCH  34  49
ATOM     49  O   UNL     1      11.139   4.021  23.242  0.00  0.00    -0.507 OA
ATOM     50  H   UNL     1      11.656   3.496  22.609  0.00  0.00    +0.292 HD
ENDBRANCH  34  49
BRANCH  37  51
ATOM     51  O   UNL     1       6.486   4.183  24.058  0.00  0.00    -0.506 OA
ATOM     52  H   UNL     1       5.760   3.746  23.583  0.00  0.00    +0.292 HD
ENDBRANCH  37  51
ENDBRANCH  27  28
ENDBRANCH   3  27
TORSDOF 16
ENDMDL
MODEL 5
REMARK VINA RESULT:      -6.4      2.553      4.591
REMARK  Name = 
REMARK  16 active torsions:
REMARK  status: ('A' for Active; 'I' for Inactive)
REMARK    1  A    between atoms: C_2  and  O_51
REMARK    2  A    between atoms: C_4  and  O_50
REMARK    3  A    between atoms: C_6  and  O_33
REMARK    4  A    between atoms: C_8  and  O_11
REMARK    5  A    between atoms: O_11  and  C_12
REMARK    6  A    between atoms: C_13  and  C_25
REMARK    7  A    between atoms: C_17  and  O_24
REMARK    8  A    between atoms: C_19  and  O_23
REMARK    9  A    between atoms: C_27  and  O_32
REMARK   10  A    between atoms: C_28  and  O_31
REMARK   11  A    between atoms: O_33  and  C_34
REMARK   12  A    between atoms: C_36  and  O_49
REMARK   13  A    between atoms: C_38  and  O_48
REMARK   14  A    between atoms: C_40  and  O_47
REMARK   15  A    between atoms: C_42  and  C_45
REMARK   16  A    between atoms: C_45  and  O_46
REMARK                            x       y       z     vdW  Elec       q    Type
REMARK                         _______ _______ _______ _____ _____    ______ ____
ROOT
ATOM      1  C   UNL     1       9.623  -3.116  24.532  0.00  0.00    +0.198 C 
ATOM      2  O   UNL     1       8.375  -2.463  24.265  0.00  0.00    -0.337 OA
ATOM      3  C   UNL     1       7.626  -2.292  25.467  0.00  0.00    +0.340 C 
ATOM      4  C   UNL     1       7.508  -3.588  26.330  0.00  0.00    +0.221 C 
ATOM      5  C   UNL     1       8.394  -4.788  25.942  0.00  0.00    +0.180 C 
ATOM      6  C   UNL     1       9.350  -4.590  24.763  0.00  0.00    +0.171 C 
ENDROOT
BRANCH   6   7
ATOM      7  O   UNL     1      10.558  -5.317  24.986  0.00  0.00    -0.387 OA
ATOM      8  H   UNL     1      11.130  -4.763  25.550  0.00  0.00    +0.210 HD
ENDBRANCH   6   7
BRANCH   5   9
ATOM      9  O   UNL     1       9.089  -5.166  27.156  0.00  0.00    -0.386 OA
ATOM     10  H   UNL     1       9.568  -5.997  26.960  0.00  0.00    +0.210 HD
ENDBRANCH   5   9
BRANCH   4  11
ATOM     11  O   UNL     1       6.112  -3.983  26.522  0.00  0.00    -0.337 OA
BRANCH  11  12
ATOM     12  C   UNL     1       5.861  -5.378  26.359  0.00  0.00    +0.282 C 
ATOM     13  O   UNL     1       5.664  -5.676  24.980  0.00  0.00    -0.341 OA
ATOM     14  C   UNL     1       4.355  -5.861  24.455  0.00  0.00    +0.178 C 
ATOM     15  C   UNL     1       3.289  -6.361  25.434  0.00  0.00    +0.177 C 
ATOM     16  C   UNL     1       3.397  -5.780  26.839  0.00  0.00    +0.179 C 
ATOM     17  C   UNL     1       4.817  -5.914  27.361  0.00  0.00    +0.201 C 
BRANCH  15  18
ATOM     18  O   UNL     1       1.968  -6.173  24.919  0.00  0.00    -0.386 OA
ATOM     19  H   UNL     1       1.603  -7.080  24.822  0.00  0.00    +0.210 HD
ENDBRANCH  15  18
BRANCH  16  20
ATOM     20  O   UNL     1       2.907  -4.437  26.911  0.00  0.00    -0.386 OA
ATOM     21  H   UNL     1       2.181  -4.295  26.276  0.00  0.00    +0.210 HD
ENDBRANCH  16  20
BRANCH  17  22
ATOM     22  O   UNL     1       5.122  -7.280  27.673  0.00  0.00    -0.384 OA
ATOM     23  H   UNL     1       4.385  -7.810  27.304  0.00  0.00    +0.210 HD
ENDBRANCH  17  22
BRANCH  14  24
ATOM     24  C   UNL     1       3.950  -4.658  23.571  0.00  0.00    +0.190 C 
BRANCH  24  25
ATOM     25  O   UNL     1       4.108  -3.412  24.231  0.00  0.00    -0.392 OA
ATOM     26  H   UNL     1       4.570  -2.819  23.599  0.00  0.00    +0.210 HD
ENDBRANCH  24  25
ENDBRANCH  14  24
ENDBRANCH  11  12
ENDBRANCH   4  11
BRANCH   3  27
ATOM     27  O   UNL     1       6.273  -1.828  25.366  0.00  0.00    -0.453 OA
BRANCH  27  28
ATOM     28  C   UNL     1       5.800  -0.634  25.803  0.00  0.00    +0.214 A 
ATOM     29  C   UNL     1       4.405  -0.680  26.392  0.00  0.00    +0.238 A 
ATOM     30  O   UNL     1       3.769  -1.724  26.358  0.00  0.00    -0.283 OA
ATOM     31  C   UNL     1       3.838   0.583  26.884  0.00  0.00    +0.109 A 
ATOM     32  C   UNL     1       4.431   1.759  26.440  0.00  0.00    +0.147 A 
ATOM     33  C   UNL     1       3.900   3.007  26.785  0.00  0.00    +0.092 A 
ATOM     34  C   UNL     1       2.787   3.063  27.615  0.00  0.00    +0.124 A 
ATOM     35  C   UNL     1       2.197   1.900  28.096  0.00  0.00    +0.091 A 
ATOM     36  O   UNL     1       5.541   1.770  25.638  0.00  0.00    -0.451 OA
ATOM     37  C   UNL     1       2.716   0.657  27.722  0.00  0.00    +0.135 A 
ATOM     38  C   UNL     1       6.200   0.583  25.341  0.00  0.00    +0.181 A 
BRANCH  38  39
ATOM     39  C   UNL     1       7.250   0.801  24.319  0.00  0.00    +0.025 A 
ATOM     40  C   UNL     1       6.922   0.950  22.956  0.00  0.00    +0.015 A 
ATOM     41  C   UNL     1       7.866   1.352  22.010  0.00  0.00    +0.050 A 
ATOM     42  C   UNL     1       9.155   1.677  22.429  0.00  0.00    +0.158 A 
ATOM     43  C   UNL     1       9.502   1.533  23.761  0.00  0.00    +0.159 A 
ATOM     44  C   UNL     1       8.577   1.093  24.708  0.00  0.00    +0.060 A 
BRANCH  42  45
ATOM     45  O   UNL     1      10.041   2.157  21.517  0.00  0.00    -0.503 OA
ATOM     46  H   UNL     1      10.794   2.467  22.056  0.00  0.00    +0.292 HD
ENDBRANCH  42  45
BRANCH  43  47
ATOM     47  O   UNL     1      10.780   1.889  24.109  0.00  0.00    -0.503 OA
ATOM     48  H   UNL     1      11.158   1.191  24.662  0.00  0.00    +0.292 HD
ENDBRANCH  43  47
ENDBRANCH  38  39
BRANCH  34  49
ATOM     49  O   UNL     1       2.237   4.250  27.996  0.00  0.00    -0.507 OA
ATOM     50  H   UNL     1       2.858   4.970  27.800  0.00  0.00    +0.292 HD
ENDBRANCH  34  49
BRANCH  37  51
ATOM     51  O   UNL     1       2.130  -0.470  28.215  0.00  0.00    -0.506 OA
ATOM     52  H   UNL     1       2.649  -1.253  27.966  0.00  0.00    +0.292 HD
ENDBRANCH  37  51
ENDBRANCH  27  28
ENDBRANCH   3  27
TORSDOF 16
ENDMDL
MODEL 6
REMARK VINA RESULT:      -6.3      2.809      8.091
REMARK  Name = 
REMARK  16 active torsions:
REMARK  status: ('A' for Active; 'I' for Inactive)
REMARK    1  A    between atoms: C_2  and  O_51
REMARK    2  A    between atoms: C_4  and  O_50
REMARK    3  A    between atoms: C_6  and  O_33
REMARK    4  A    between atoms: C_8  and  O_11
REMARK    5  A    between atoms: O_11  and  C_12
REMARK    6  A    between atoms: C_13  and  C_25
REMARK    7  A    between atoms: C_17  and  O_24
REMARK    8  A    between atoms: C_19  and  O_23
REMARK    9  A    between atoms: C_27  and  O_32
REMARK   10  A    between atoms: C_28  and  O_31
REMARK   11  A    between atoms: O_33  and  C_34
REMARK   12  A    between atoms: C_36  and  O_49
REMARK   13  A    between atoms: C_38  and  O_48
REMARK   14  A    between atoms: C_40  and  O_47
REMARK   15  A    between atoms: C_42  and  C_45
REMARK   16  A    between atoms: C_45  and  O_46
REMARK                            x       y       z     vdW  Elec       q    Type
REMARK                         _______ _______ _______ _____ _____    ______ ____
ROOT
ATOM      1  C   UNL     1       7.329   0.862  28.289  0.00  0.00    +0.198 C 
ATOM      2  O   UNL     1       6.457   0.203  27.362  0.00  0.00    -0.337 OA
ATOM      3  C   UNL     1       6.726   0.626  26.026  0.00  0.00    +0.340 C 
ATOM      4  C   UNL     1       6.802   2.176  25.856  0.00  0.00    +0.221 C 
ATOM      5  C   UNL     1       6.841   3.035  27.135  0.00  0.00    +0.180 C 
ATOM      6  C   UNL     1       6.844   2.287  28.471  0.00  0.00    +0.171 C 
ENDROOT
BRANCH   6   7
ATOM      7  O   UNL     1       7.638   2.993  29.424  0.00  0.00    -0.387 OA
ATOM      8  H   UNL     1       8.386   2.414  29.664  0.00  0.00    +0.210 HD
ENDBRANCH   6   7
BRANCH   5   9
ATOM      9  O   UNL     1       7.995   3.900  26.987  0.00  0.00    -0.386 OA
ATOM     10  H   UNL     1       7.742   4.771  27.356  0.00  0.00    +0.210 HD
ENDBRANCH   5   9
BRANCH   4  11
ATOM     11  O   UNL     1       5.804   2.665  24.903  0.00  0.00    -0.337 OA
BRANCH  11  12
ATOM     12  C   UNL     1       5.477   4.047  25.041  0.00  0.00    +0.282 C 
ATOM     13  O   UNL     1       4.062   4.208  25.078  0.00  0.00    -0.341 OA
ATOM     14  C   UNL     1       3.348   4.640  23.927  0.00  0.00    +0.178 C 
ATOM     15  C   UNL     1       4.121   5.506  22.927  0.00  0.00    +0.177 C 
ATOM     16  C   UNL     1       5.577   5.097  22.728  0.00  0.00    +0.179 C 
ATOM     17  C   UNL     1       6.272   4.944  24.069  0.00  0.00    +0.201 C 
BRANCH  15  18
ATOM     18  O   UNL     1       3.451   5.584  21.666  0.00  0.00    -0.386 OA
ATOM     19  H   UNL     1       2.681   4.980  21.751  0.00  0.00    +0.210 HD
ENDBRANCH  15  18
BRANCH  16  20
ATOM     20  O   UNL     1       5.707   3.935  21.902  0.00  0.00    -0.386 OA
ATOM     21  H   UNL     1       5.266   4.065  21.043  0.00  0.00    +0.210 HD
ENDBRANCH  16  20
BRANCH  17  22
ATOM     22  O   UNL     1       6.493   6.221  24.681  0.00  0.00    -0.384 OA
ATOM     23  H   UNL     1       5.634   6.484  25.071  0.00  0.00    +0.210 HD
ENDBRANCH  17  22
BRANCH  14  24
ATOM     24  C   UNL     1       2.535   3.472  23.322  0.00  0.00    +0.190 C 
BRANCH  24  25
ATOM     25  O   UNL     1       3.293   2.681  22.421  0.00  0.00    -0.392 OA
ATOM     26  H   UNL     1       2.918   2.839  21.528  0.00  0.00    +0.210 HD
ENDBRANCH  24  25
ENDBRANCH  14  24
ENDBRANCH  11  12
ENDBRANCH   4  11
BRANCH   3  27
ATOM     27  O   UNL     1       5.827   0.215  24.988  0.00  0.00    -0.453 OA
BRANCH  27  28
ATOM     28  C   UNL     1       5.979  -0.860  24.175  0.00  0.00    +0.214 A 
ATOM     29  C   UNL     1       5.341  -2.137  24.684  0.00  0.00    +0.238 A 
ATOM     30  O   UNL     1       4.830  -2.155  25.795  0.00  0.00    -0.283 OA
ATOM     31  C   UNL     1       5.471  -3.337  23.846  0.00  0.00    +0.109 A 
ATOM     32  C   UNL     1       6.463  -3.325  22.872  0.00  0.00    +0.147 A 
ATOM     33  C   UNL     1       6.717  -4.458  22.091  0.00  0.00    +0.092 A 
ATOM     34  C   UNL     1       5.937  -5.593  22.272  0.00  0.00    +0.124 A 
ATOM     35  C   UNL     1       4.920  -5.617  23.218  0.00  0.00    +0.091 A 
ATOM     36  O   UNL     1       7.250  -2.231  22.631  0.00  0.00    -0.451 OA
ATOM     37  C   UNL     1       4.693  -4.491  24.015  0.00  0.00    +0.135 A 
ATOM     38  C   UNL     1       6.992  -1.028  23.280  0.00  0.00    +0.181 A 
BRANCH  38  39
ATOM     39  C   UNL     1       8.066  -0.042  23.017  0.00  0.00    +0.025 A 
ATOM     40  C   UNL     1       7.824   1.114  22.249  0.00  0.00    +0.015 A 
ATOM     41  C   UNL     1       8.758   2.146  22.157  0.00  0.00    +0.050 A 
ATOM     42  C   UNL     1       9.939   2.066  22.892  0.00  0.00    +0.158 A 
ATOM     43  C   UNL     1      10.201   0.937  23.649  0.00  0.00    +0.159 A 
ATOM     44  C   UNL     1       9.292  -0.119  23.716  0.00  0.00    +0.060 A 
BRANCH  42  45
ATOM     45  O   UNL     1      10.801   3.117  22.870  0.00  0.00    -0.503 OA
ATOM     46  H   UNL     1      10.316   3.812  22.387  0.00  0.00    +0.292 HD
ENDBRANCH  42  45
BRANCH  43  47
ATOM     47  O   UNL     1      11.371   0.931  24.364  0.00  0.00    -0.503 OA
ATOM     48  H   UNL     1      11.161   0.974  25.308  0.00  0.00    +0.292 HD
ENDBRANCH  43  47
ENDBRANCH  38  39
BRANCH  34  49
ATOM     49  O   UNL     1       6.129  -6.720  21.529  0.00  0.00    -0.507 OA
ATOM     50  H   UNL     1       6.276  -7.475  22.122  0.00  0.00    +0.292 HD
ENDBRANCH  34  49
BRANCH  37  51
ATOM     51  O   UNL     1       3.682  -4.531  24.929  0.00  0.00    -0.506 OA
ATOM     52  H   UNL     1       2.977  -5.125  24.620  0.00  0.00    +0.292 HD
ENDBRANCH  37  51
ENDBRANCH  27  28
ENDBRANCH   3  27
TORSDOF 16
ENDMDL
MODEL 7
REMARK VINA RESULT:      -6.2      3.282      8.512
REMARK  Name = 
REMARK  16 active torsions:
REMARK  status: ('A' for Active; 'I' for Inactive)
REMARK    1  A    between atoms: C_2  and  O_51
REMARK    2  A    between atoms: C_4  and  O_50
REMARK    3  A    between atoms: C_6  and  O_33
REMARK    4  A    between atoms: C_8  and  O_11
REMARK    5  A    between atoms: O_11  and  C_12
REMARK    6  A    between atoms: C_13  and  C_25
REMARK    7  A    between atoms: C_17  and  O_24
REMARK    8  A    between atoms: C_19  and  O_23
REMARK    9  A    between atoms: C_27  and  O_32
REMARK   10  A    between atoms: C_28  and  O_31
REMARK   11  A    between atoms: O_33  and  C_34
REMARK   12  A    between atoms: C_36  and  O_49
REMARK   13  A    between atoms: C_38  and  O_48
REMARK   14  A    between atoms: C_40  and  O_47
REMARK   15  A    between atoms: C_42  and  C_45
REMARK   16  A    between atoms: C_45  and  O_46
REMARK                            x       y       z     vdW  Elec       q    Type
REMARK                         _______ _______ _______ _____ _____    ______ ____
ROOT
ATOM      1  C   UNL     1      10.935   3.262  23.252  0.00  0.00    +0.198 C 
ATOM      2  O   UNL     1      10.144   2.357  24.033  0.00  0.00    -0.337 OA
ATOM      3  C   UNL     1       8.764   2.464  23.686  0.00  0.00    +0.340 C 
ATOM      4  C   UNL     1       8.231   3.931  23.656  0.00  0.00    +0.221 C 
ATOM      5  C   UNL     1       9.266   5.070  23.738  0.00  0.00    +0.180 C 
ATOM      6  C   UNL     1      10.741   4.662  23.801  0.00  0.00    +0.171 C 
ENDROOT
BRANCH   6   7
ATOM      7  O   UNL     1      11.542   5.614  23.102  0.00  0.00    -0.387 OA
ATOM      8  H   UNL     1      12.457   5.516  23.424  0.00  0.00    +0.210 HD
ENDBRANCH   6   7
BRANCH   5   9
ATOM      9  O   UNL     1       8.983   5.935  22.610  0.00  0.00    -0.386 OA
ATOM     10  H   UNL     1       8.520   6.720  22.967  0.00  0.00    +0.210 HD
ENDBRANCH   5   9
BRANCH   4  11
ATOM     11  O   UNL     1       7.132   4.127  24.603  0.00  0.00    -0.337 OA
BRANCH  11  12
ATOM     12  C   UNL     1       6.053   4.919  24.107  0.00  0.00    +0.282 C 
ATOM     13  O   UNL     1       4.955   4.861  25.013  0.00  0.00    -0.341 OA
ATOM     14  C   UNL     1       3.837   4.022  24.749  0.00  0.00    +0.178 C 
ATOM     15  C   UNL     1       3.543   3.718  23.277  0.00  0.00    +0.177 C 
ATOM     16  C   UNL     1       4.782   3.515  22.412  0.00  0.00    +0.179 C 
ATOM     17  C   UNL     1       5.762   4.657  22.615  0.00  0.00    +0.201 C 
BRANCH  15  18
ATOM     18  O   UNL     1       2.651   2.608  23.134  0.00  0.00    -0.386 OA
ATOM     19  H   UNL     1       1.766   3.011  22.998  0.00  0.00    +0.210 HD
ENDBRANCH  15  18
BRANCH  16  20
ATOM     20  O   UNL     1       5.380   2.230  22.612  0.00  0.00    -0.386 OA
ATOM     21  H   UNL     1       4.701   1.533  22.672  0.00  0.00    +0.210 HD
ENDBRANCH  16  20
BRANCH  17  22
ATOM     22  O   UNL     1       5.277   5.863  22.010  0.00  0.00    -0.384 OA
ATOM     23  H   UNL     1       4.301   5.785  22.003  0.00  0.00    +0.210 HD
ENDBRANCH  17  22
BRANCH  14  24
ATOM     24  C   UNL     1       3.834   2.807  25.705  0.00  0.00    +0.190 C 
BRANCH  24  25
ATOM     25  O   UNL     1       4.269   1.611  25.078  0.00  0.00    -0.392 OA
ATOM     26  H   UNL     1       3.760   1.533  24.242  0.00  0.00    +0.210 HD
ENDBRANCH  24  25
ENDBRANCH  14  24
ENDBRANCH  11  12
ENDBRANCH   4  11
BRANCH   3  27
ATOM     27  O   UNL     1       7.803   1.772  24.495  0.00  0.00    -0.453 OA
BRANCH  27  28
ATOM     28  C   UNL     1       7.985   0.576  25.110  0.00  0.00    +0.214 A 
ATOM     29  C   UNL     1       8.190  -0.596  24.171  0.00  0.00    +0.238 A 
ATOM     30  O   UNL     1       8.090  -0.427  22.964  0.00  0.00    -0.283 OA
ATOM     31  C   UNL     1       8.394  -1.919  24.777  0.00  0.00    +0.109 A 
ATOM     32  C   UNL     1       8.010  -2.072  26.105  0.00  0.00    +0.147 A 
ATOM     33  C   UNL     1       8.083  -3.320  26.734  0.00  0.00    +0.092 A 
ATOM     34  C   UNL     1       8.584  -4.406  26.027  0.00  0.00    +0.124 A 
ATOM     35  C   UNL     1       9.002  -4.268  24.709  0.00  0.00    +0.091 A 
ATOM     36  O   UNL     1       7.530  -1.037  26.861  0.00  0.00    -0.451 OA
ATOM     37  C   UNL     1       8.897  -3.025  24.079  0.00  0.00    +0.135 A 
ATOM     38  C   UNL     1       7.530   0.258  26.353  0.00  0.00    +0.181 A 
BRANCH  38  39
ATOM     39  C   UNL     1       6.802   1.181  27.254  0.00  0.00    +0.025 A 
ATOM     40  C   UNL     1       5.812   0.709  28.139  0.00  0.00    +0.015 A 
ATOM     41  C   UNL     1       5.260   1.521  29.129  0.00  0.00    +0.050 A 
ATOM     42  C   UNL     1       5.741   2.819  29.294  0.00  0.00    +0.158 A 
ATOM     43  C   UNL     1       6.709   3.307  28.433  0.00  0.00    +0.159 A 
ATOM     44  C   UNL     1       7.239   2.516  27.414  0.00  0.00    +0.060 A 
BRANCH  42  45
ATOM     45  O   UNL     1       5.264   3.572  30.320  0.00  0.00    -0.503 OA
ATOM     46  H   UNL     1       5.838   3.337  31.075  0.00  0.00    +0.292 HD
ENDBRANCH  42  45
BRANCH  43  47
ATOM     47  O   UNL     1       7.153   4.584  28.663  0.00  0.00    -0.503 OA
ATOM     48  H   UNL     1       6.776   5.171  27.992  0.00  0.00    +0.292 HD
ENDBRANCH  43  47
ENDBRANCH  38  39
BRANCH  34  49
ATOM     49  O   UNL     1       8.692  -5.641  26.594  0.00  0.00    -0.507 OA
ATOM     50  H   UNL     1       8.019  -5.737  27.288  0.00  0.00    +0.292 HD
ENDBRANCH  34  49
BRANCH  37  51
ATOM     51  O   UNL     1       9.325  -2.908  22.790  0.00  0.00    -0.506 OA
ATOM     52  H   UNL     1       8.650  -3.254  22.182  0.00  0.00    +0.292 HD
ENDBRANCH  37  51
ENDBRANCH  27  28
ENDBRANCH   3  27
TORSDOF 16
ENDMDL
MODEL 8
REMARK VINA RESULT:      -6.1      2.450      8.143
REMARK  Name = 
REMARK  16 active torsions:
REMARK  status: ('A' for Active; 'I' for Inactive)
REMARK    1  A    between atoms: C_2  and  O_51
REMARK    2  A    between atoms: C_4  and  O_50
REMARK    3  A    between atoms: C_6  and  O_33
REMARK    4  A    between atoms: C_8  and  O_11
REMARK    5  A    between atoms: O_11  and  C_12
REMARK    6  A    between atoms: C_13  and  C_25
REMARK    7  A    between atoms: C_17  and  O_24
REMARK    8  A    between atoms: C_19  and  O_23
REMARK    9  A    between atoms: C_27  and  O_32
REMARK   10  A    between atoms: C_28  and  O_31
REMARK   11  A    between atoms: O_33  and  C_34
REMARK   12  A    between atoms: C_36  and  O_49
REMARK   13  A    between atoms: C_38  and  O_48
REMARK   14  A    between atoms: C_40  and  O_47
REMARK   15  A    between atoms: C_42  and  C_45
REMARK   16  A    between atoms: C_45  and  O_46
REMARK                            x       y       z     vdW  Elec       q    Type
REMARK                         _______ _______ _______ _____ _____    ______ ____
ROOT
ATOM      1  C   UNL     1      10.498  -0.799  23.498  0.00  0.00    +0.198 C 
ATOM      2  O   UNL     1       9.232  -1.417  23.757  0.00  0.00    -0.337 OA
ATOM      3  C   UNL     1       8.176  -0.690  23.131  0.00  0.00    +0.340 C 
ATOM      4  C   UNL     1       8.216   0.847  23.405  0.00  0.00    +0.221 C 
ATOM      5  C   UNL     1       9.481   1.421  24.072  0.00  0.00    +0.180 C 
ATOM      6  C   UNL     1      10.614   0.436  24.371  0.00  0.00    +0.171 C 
ENDROOT
BRANCH   6   7
ATOM      7  O   UNL     1      11.878   1.079  24.204  0.00  0.00    -0.387 OA
ATOM      8  H   UNL     1      12.051   1.130  23.245  0.00  0.00    +0.210 HD
ENDBRANCH   6   7
BRANCH   5   9
ATOM      9  O   UNL     1       9.910   2.510  23.217  0.00  0.00    -0.386 OA
ATOM     10  H   UNL     1       9.204   3.187  23.249  0.00  0.00    +0.210 HD
ENDBRANCH   5   9
BRANCH   4  11
ATOM     11  O   UNL     1       6.995   1.309  24.068  0.00  0.00    -0.337 OA
BRANCH  11  12
ATOM     12  C   UNL     1       6.111   2.055  23.233  0.00  0.00    +0.282 C 
ATOM     13  O   UNL     1       6.843   3.044  22.515  0.00  0.00    -0.341 OA
ATOM     14  C   UNL     1       6.835   4.403  22.933  0.00  0.00    +0.178 C 
ATOM     15  C   UNL     1       5.596   4.875  23.701  0.00  0.00    +0.177 C 
ATOM     16  C   UNL     1       5.022   3.847  24.670  0.00  0.00    +0.179 C 
ATOM     17  C   UNL     1       4.837   2.509  23.975  0.00  0.00    +0.201 C 
BRANCH  15  18
ATOM     18  O   UNL     1       5.832   6.114  24.375  0.00  0.00    -0.386 OA
ATOM     19  H   UNL     1       6.809   6.177  24.454  0.00  0.00    +0.210 HD
ENDBRANCH  15  18
BRANCH  16  20
ATOM     20  O   UNL     1       5.792   3.744  25.872  0.00  0.00    -0.386 OA
ATOM     21  H   UNL     1       6.142   4.613  26.140  0.00  0.00    +0.210 HD
ENDBRANCH  16  20
BRANCH  17  22
ATOM     22  O   UNL     1       3.744   2.560  23.049  0.00  0.00    -0.384 OA
ATOM     23  H   UNL     1       3.333   3.440  23.167  0.00  0.00    +0.210 HD
ENDBRANCH  17  22
BRANCH  14  24
ATOM     24  C   UNL     1       8.200   4.790  23.548  0.00  0.00    +0.190 C 
BRANCH  24  25
ATOM     25  O   UNL     1       8.275   4.518  24.939  0.00  0.00    -0.392 OA
ATOM     26  H   UNL     1       8.806   5.241  25.336  0.00  0.00    +0.210 HD
ENDBRANCH  24  25
ENDBRANCH  14  24
ENDBRANCH  11  12
ENDBRANCH   4  11
BRANCH   3  27
ATOM     27  O   UNL     1       6.823  -1.054  23.437  0.00  0.00    -0.453 OA
BRANCH  27  28
ATOM     28  C   UNL     1       6.420  -2.189  24.061  0.00  0.00    +0.214 A 
ATOM     29  C   UNL     1       5.751  -3.206  23.158  0.00  0.00    +0.238 A 
ATOM     30  O   UNL     1       5.534  -2.925  21.988  0.00  0.00    -0.283 OA
ATOM     31  C   UNL     1       5.293  -4.458  23.776  0.00  0.00    +0.109 A 
ATOM     32  C   UNL     1       5.152  -4.467  25.159  0.00  0.00    +0.147 A 
ATOM     33  C   UNL     1       4.634  -5.586  25.821  0.00  0.00    +0.092 A 
ATOM     34  C   UNL     1       4.296  -6.714  25.083  0.00  0.00    +0.124 A 
ATOM     35  C   UNL     1       4.459  -6.738  23.703  0.00  0.00    +0.091 A 
ATOM     36  O   UNL     1       5.486  -3.396  25.944  0.00  0.00    -0.451 OA
ATOM     37  C   UNL     1       4.948  -5.604  23.046  0.00  0.00    +0.135 A 
ATOM     38  C   UNL     1       6.113  -2.288  25.383  0.00  0.00    +0.181 A 
BRANCH  38  39
ATOM     39  C   UNL     1       6.213  -1.183  26.365  0.00  0.00    +0.025 A 
ATOM     40  C   UNL     1       7.454  -0.809  26.918  0.00  0.00    +0.015 A 
ATOM     41  C   UNL     1       7.601   0.348  27.685  0.00  0.00    +0.050 A 
ATOM     42  C   UNL     1       6.507   1.193  27.860  0.00  0.00    +0.158 A 
ATOM     43  C   UNL     1       5.277   0.843  27.331  0.00  0.00    +0.159 A 
ATOM     44  C   UNL     1       5.110  -0.332  26.597  0.00  0.00    +0.060 A 
BRANCH  42  45
ATOM     45  O   UNL     1       6.680   2.364  28.529  0.00  0.00    -0.503 OA
ATOM     46  H   UNL     1       6.080   2.987  28.077  0.00  0.00    +0.292 HD
ENDBRANCH  42  45
BRANCH  43  47
ATOM     47  O   UNL     1       4.247   1.729  27.523  0.00  0.00    -0.503 OA
ATOM     48  H   UNL     1       4.599   2.629  27.483  0.00  0.00    +0.292 HD
ENDBRANCH  43  47
ENDBRANCH  38  39
BRANCH  34  49
ATOM     49  O   UNL     1       3.803  -7.837  25.676  0.00  0.00    -0.507 OA
ATOM     50  H   UNL     1       3.095  -7.590  26.294  0.00  0.00    +0.292 HD
ENDBRANCH  34  49
BRANCH  37  51
ATOM     51  O   UNL     1       5.112  -5.654  21.694  0.00  0.00    -0.506 OA
ATOM     52  H   UNL     1       4.817  -4.820  21.291  0.00  0.00    +0.292 HD
ENDBRANCH  37  51
ENDBRANCH  27  28
ENDBRANCH   3  27
TORSDOF 16
ENDMDL
MODEL 9
REMARK VINA RESULT:      -6.1      2.272      5.833
REMARK  Name = 
REMARK  16 active torsions:
REMARK  status: ('A' for Active; 'I' for Inactive)
REMARK    1  A    between atoms: C_2  and  O_51
REMARK    2  A    between atoms: C_4  and  O_50
REMARK    3  A    between atoms: C_6  and  O_33
REMARK    4  A    between atoms: C_8  and  O_11
REMARK    5  A    between atoms: O_11  and  C_12
REMARK    6  A    between atoms: C_13  and  C_25
REMARK    7  A    between atoms: C_17  and  O_24
REMARK    8  A    between atoms: C_19  and  O_23
REMARK    9  A    between atoms: C_27  and  O_32
REMARK   10  A    between atoms: C_28  and  O_31
REMARK   11  A    between atoms: O_33  and  C_34
REMARK   12  A    between atoms: C_36  and  O_49
REMARK   13  A    between atoms: C_38  and  O_48
REMARK   14  A    between atoms: C_40  and  O_47
REMARK   15  A    between atoms: C_42  and  C_45
REMARK   16  A    between atoms: C_45  and  O_46
REMARK                            x       y       z     vdW  Elec       q    Type
REMARK                         _______ _______ _______ _____ _____    ______ ____
ROOT
ATOM      1  C   UNL     1       9.386  -0.218  22.843  0.00  0.00    +0.198 C 
ATOM      2  O   UNL     1       7.991  -0.008  23.094  0.00  0.00    -0.337 OA
ATOM      3  C   UNL     1       7.589  -0.662  24.296  0.00  0.00    +0.340 C 
ATOM      4  C   UNL     1       8.047  -2.152  24.391  0.00  0.00    +0.221 C 
ATOM      5  C   UNL     1       9.063  -2.654  23.347  0.00  0.00    +0.180 C 
ATOM      6  C   UNL     1       9.570  -1.632  22.326  0.00  0.00    +0.171 C 
ENDROOT
BRANCH   6   7
ATOM      7  O   UNL     1      10.936  -1.898  22.005  0.00  0.00    -0.387 OA
ATOM      8  H   UNL     1      11.086  -1.583  21.094  0.00  0.00    +0.210 HD
ENDBRANCH   6   7
BRANCH   5   9
ATOM      9  O   UNL     1      10.142  -3.250  24.110  0.00  0.00    -0.386 OA
ATOM     10  H   UNL     1      10.451  -4.028  23.601  0.00  0.00    +0.210 HD
ENDBRANCH   5   9
BRANCH   4  11
ATOM     11  O   UNL     1       6.908  -3.061  24.522  0.00  0.00    -0.337 OA
BRANCH  11  12
ATOM     12  C   UNL     1       7.258  -4.428  24.731  0.00  0.00    +0.282 C 
ATOM     13  O   UNL     1       6.612  -5.246  23.761  0.00  0.00    -0.341 OA
ATOM     14  C   UNL     1       5.444  -5.987  24.095  0.00  0.00    +0.178 C 
ATOM     15  C   UNL     1       5.288  -6.392  25.563  0.00  0.00    +0.177 C 
ATOM     16  C   UNL     1       5.751  -5.338  26.564  0.00  0.00    +0.179 C 
ATOM     17  C   UNL     1       7.145  -4.849  26.211  0.00  0.00    +0.201 C 
BRANCH  15  18
ATOM     18  O   UNL     1       3.949  -6.802  25.860  0.00  0.00    -0.386 OA
ATOM     19  H   UNL     1       3.380  -6.216  25.314  0.00  0.00    +0.210 HD
ENDBRANCH  15  18
BRANCH  16  20
ATOM     20  O   UNL     1       4.809  -4.270  26.704  0.00  0.00    -0.386 OA
ATOM     21  H   UNL     1       5.244  -3.460  27.029  0.00  0.00    +0.210 HD
ENDBRANCH  16  20
BRANCH  17  22
ATOM     22  O   UNL     1       8.128  -5.855  26.491  0.00  0.00    -0.384 OA
ATOM     23  H   UNL     1       8.837  -5.729  25.827  0.00  0.00    +0.210 HD
ENDBRANCH  17  22
BRANCH  14  24
ATOM     24  C   UNL     1       4.196  -5.361  23.430  0.00  0.00    +0.190 C 
BRANCH  24  25
ATOM     25  O   UNL     1       3.881  -4.078  23.946  0.00  0.00    -0.392 OA
ATOM     26  H   UNL     1       4.714  -3.559  23.933  0.00  0.00    +0.210 HD
ENDBRANCH  24  25
ENDBRANCH  14  24
ENDBRANCH  11  12
ENDBRANCH   4  11
BRANCH   3  27
ATOM     27  O   UNL     1       6.190  -0.718  24.606  0.00  0.00    -0.453 OA
BRANCH  27  28
ATOM     28  C   UNL     1       5.582  -0.147  25.676  0.00  0.00    +0.214 A 
ATOM     29  C   UNL     1       4.395  -0.917  26.219  0.00  0.00    +0.238 A 
ATOM     30  O   UNL     1       4.006  -1.918  25.633  0.00  0.00    -0.283 OA
ATOM     31  C   UNL     1       3.695  -0.349  27.379  0.00  0.00    +0.109 A 
ATOM     32  C   UNL     1       3.910   0.998  27.651  0.00  0.00    +0.147 A 
ATOM     33  C   UNL     1       3.214   1.643  28.680  0.00  0.00    +0.092 A 
ATOM     34  C   UNL     1       2.328   0.911  29.460  0.00  0.00    +0.124 A 
ATOM     35  C   UNL     1       2.122  -0.443  29.226  0.00  0.00    +0.091 A 
ATOM     36  O   UNL     1       4.785   1.767  26.932  0.00  0.00    -0.451 OA
ATOM     37  C   UNL     1       2.798  -1.073  28.177  0.00  0.00    +0.135 A 
ATOM     38  C   UNL     1       5.600   1.183  25.969  0.00  0.00    +0.181 A 
BRANCH  38  39
ATOM     39  C   UNL     1       6.325   2.215  25.191  0.00  0.00    +0.025 A 
ATOM     40  C   UNL     1       7.625   2.622  25.553  0.00  0.00    +0.015 A 
ATOM     41  C   UNL     1       8.398   3.439  24.727  0.00  0.00    +0.050 A 
ATOM     42  C   UNL     1       7.901   3.814  23.480  0.00  0.00    +0.158 A 
ATOM     43  C   UNL     1       6.625   3.431  23.106  0.00  0.00    +0.159 A 
ATOM     44  C   UNL     1       5.828   2.648  23.942  0.00  0.00    +0.060 A 
BRANCH  42  45
ATOM     45  O   UNL     1       8.697   4.531  22.644  0.00  0.00    -0.503 OA
ATOM     46  H   UNL     1       9.394   3.901  22.379  0.00  0.00    +0.292 HD
ENDBRANCH  42  45
BRANCH  43  47
ATOM     47  O   UNL     1       6.205   3.816  21.859  0.00  0.00    -0.503 OA
ATOM     48  H   UNL     1       5.242   3.735  21.815  0.00  0.00    +0.292 HD
ENDBRANCH  43  47
ENDBRANCH  38  39
BRANCH  34  49
ATOM     49  O   UNL     1       1.636   1.483  30.485  0.00  0.00    -0.507 OA
ATOM     50  H   UNL     1       2.027   1.208  31.331  0.00  0.00    +0.292 HD
ENDBRANCH  34  49
BRANCH  37  51
ATOM     51  O   UNL     1       2.591  -2.404  27.973  0.00  0.00    -0.506 OA
ATOM     52  H   UNL     1       3.443  -2.869  27.912  0.00  0.00    +0.292 HD
ENDBRANCH  37  51
ENDBRANCH  27  28
ENDBRANCH   3  27
TORSDOF 16
ENDMDL
