MODEL 1
REMARK VINA RESULT:      -7.6      0.000      0.000
REMARK  Name = 
REMARK  16 active torsions:
REMARK  status: ('A' for Active; 'I' for Inactive)
REMARK    1  A    between atoms: C_3  and  O_49
REMARK    2  A    between atoms: C_6  and  C_7
REMARK    3  A    between atoms: C_8  and  C_9
REMARK    4  A    between atoms: C_9  and  O_11
REMARK    5  A    between atoms: O_11  and  C_12
REMARK    6  A    between atoms: C_14  and  C_47
REMARK    7  A    between atoms: C_17  and  O_25
REMARK    8  A    between atoms: C_19  and  O_24
REMARK    9  A    between atoms: C_21  and  O_23
REMARK   10  A    between atoms: O_25  and  C_26
REMARK   11  A    between atoms: C_27  and  C_39
REMARK   12  A    between atoms: C_31  and  O_38
REMARK   13  A    between atoms: C_33  and  O_37
REMARK   14  A    between atoms: C_41  and  O_46
REMARK   15  A    between atoms: C_42  and  O_45
REMARK   16  A    between atoms: C_47  and  O_48
REMARK                            x       y       z     vdW  Elec       q    Type
REMARK                         _______ _______ _______ _____ _____    ______ ____
ROOT
ATOM      1  C   UNL     1       5.484   4.058  27.173  0.00  0.00    +0.239 C 
ATOM      2  C   UNL     1       4.666   4.082  25.866  0.00  0.00    +0.192 C 
ATOM      3  C   UNL     1       4.288   2.702  25.317  0.00  0.00    +0.215 C 
ATOM      4  C   UNL     1       5.456   1.703  25.449  0.00  0.00    +0.340 C 
ATOM      5  O   UNL     1       5.955   1.611  26.792  0.00  0.00    -0.330 OA
ATOM      6  C   UNL     1       6.462   2.855  27.308  0.00  0.00    +0.191 C 
ENDROOT
BRANCH   3   7
ATOM      7  O   UNL     1       3.915   2.835  23.928  0.00  0.00    -0.383 OA
ATOM      8  H   UNL     1       4.657   3.286  23.490  0.00  0.00    +0.210 HD
ENDBRANCH   3   7
BRANCH   2   9
ATOM      9  O   UNL     1       3.440   4.821  26.095  0.00  0.00    -0.385 OA
ATOM     10  H   UNL     1       3.675   5.680  26.483  0.00  0.00    +0.210 HD
ENDBRANCH   2   9
BRANCH   4  11
ATOM     11  O   UNL     1       5.164   0.419  24.806  0.00  0.00    -0.453 OA
BRANCH  11  12
ATOM     12  C   UNL     1       5.800  -0.765  25.129  0.00  0.00    +0.214 A 
ATOM     13  C   UNL     1       5.045  -1.805  25.896  0.00  0.00    +0.238 A 
ATOM     14  O   UNL     1       3.822  -1.886  25.884  0.00  0.00    -0.283 OA
ATOM     15  C   UNL     1       5.797  -2.859  26.557  0.00  0.00    +0.109 A 
ATOM     16  C   UNL     1       7.082  -3.098  26.097  0.00  0.00    +0.147 A 
ATOM     17  C   UNL     1       7.758  -4.241  26.541  0.00  0.00    +0.092 A 
ATOM     18  C   UNL     1       7.124  -5.106  27.441  0.00  0.00    +0.124 A 
ATOM     19  C   UNL     1       5.859  -4.840  27.939  0.00  0.00    +0.091 A 
ATOM     20  O   UNL     1       7.706  -2.275  25.190  0.00  0.00    -0.451 OA
ATOM     21  C   UNL     1       5.195  -3.704  27.503  0.00  0.00    +0.135 A 
ATOM     22  C   UNL     1       7.096  -1.066  24.793  0.00  0.00    +0.181 A 
BRANCH  22  23
ATOM     23  C   UNL     1       8.048  -0.227  23.934  0.00  0.00    +0.025 A 
ATOM     24  C   UNL     1       9.328   0.160  24.378  0.00  0.00    +0.015 A 
ATOM     25  C   UNL     1      10.198   0.944  23.597  0.00  0.00    +0.050 A 
ATOM     26  C   UNL     1       9.798   1.392  22.358  0.00  0.00    +0.158 A 
ATOM     27  C   UNL     1       8.536   1.060  21.873  0.00  0.00    +0.159 A 
ATOM     28  C   UNL     1       7.674   0.254  22.642  0.00  0.00    +0.060 A 
BRANCH  27  29
ATOM     29  O   UNL     1       8.200   1.562  20.644  0.00  0.00    -0.503 OA
ATOM     30  H   UNL     1       7.296   1.285  20.423  0.00  0.00    +0.292 HD
ENDBRANCH  27  29
BRANCH  26  31
ATOM     31  O   UNL     1      10.642   2.182  21.628  0.00  0.00    -0.503 OA
ATOM     32  H   UNL     1      10.334   3.097  21.774  0.00  0.00    +0.292 HD
ENDBRANCH  26  31
ENDBRANCH  22  23
BRANCH  21  33
ATOM     33  O   UNL     1       3.982  -3.395  28.038  0.00  0.00    -0.506 OA
ATOM     34  H   UNL     1       3.561  -4.184  28.412  0.00  0.00    +0.292 HD
ENDBRANCH  21  33
BRANCH  18  35
ATOM     35  O   UNL     1       7.707  -6.259  27.870  0.00  0.00    -0.507 OA
ATOM     36  H   UNL     1       7.556  -6.355  28.824  0.00  0.00    +0.292 HD
ENDBRANCH  18  35
ENDBRANCH  11  12
ENDBRANCH   4  11
BRANCH   1  37
ATOM     37  O   UNL     1       6.121   5.380  27.379  0.00  0.00    -0.453 OA
BRANCH  37  38
ATOM     38  C   UNL     1       6.510   6.061  26.273  0.00  0.00    +0.332 C 
ATOM     39  O   UNL     1       5.798   6.838  25.644  0.00  0.00    -0.246 OA
BRANCH  38  41
ATOM     40  C   UNL     1       8.643   6.551  24.957  0.00  0.00    +0.015 C 
ATOM     41  C   UNL     1       7.915   5.869  25.854  0.00  0.00    +0.092 C 
BRANCH  40  43
ATOM     42  C   UNL     1      11.131   6.862  25.050  0.00  0.00    +0.011 A 
ATOM     43  C   UNL     1      10.020   6.139  24.586  0.00  0.00    -0.025 A 
ATOM     44  C   UNL     1      10.254   5.070  23.704  0.00  0.00    +0.011 A 
ATOM     45  C   UNL     1      11.553   4.721  23.315  0.00  0.00    +0.046 A 
ATOM     46  C   UNL     1      12.634   5.449  23.788  0.00  0.00    +0.117 A 
ATOM     47  C   UNL     1      12.437   6.516  24.656  0.00  0.00    +0.046 A 
BRANCH  46  48
ATOM     48  O   UNL     1      13.877   5.085  23.362  0.00  0.00    -0.507 OA
ATOM     49  H   UNL     1      13.897   4.123  23.228  0.00  0.00    +0.292 HD
ENDBRANCH  46  48
ENDBRANCH  40  43
ENDBRANCH  38  41
ENDBRANCH  37  38
ENDBRANCH   1  37
BRANCH   6  50
ATOM     50  C   UNL     1       6.833   2.668  28.798  0.00  0.00    +0.191 C 
BRANCH  50  51
ATOM     51  O   UNL     1       7.536   3.795  29.318  0.00  0.00    -0.392 OA
ATOM     52  H   UNL     1       7.721   3.615  30.257  0.00  0.00    +0.210 HD
ENDBRANCH  50  51
ENDBRANCH   6  50
TORSDOF 16
ENDMDL
MODEL 2
REMARK VINA RESULT:      -7.4      2.233      3.123
REMARK  Name = 
REMARK  16 active torsions:
REMARK  status: ('A' for Active; 'I' for Inactive)
REMARK    1  A    between atoms: C_3  and  O_49
REMARK    2  A    between atoms: C_6  and  C_7
REMARK    3  A    between atoms: C_8  and  C_9
REMARK    4  A    between atoms: C_9  and  O_11
REMARK    5  A    between atoms: O_11  and  C_12
REMARK    6  A    between atoms: C_14  and  C_47
REMARK    7  A    between atoms: C_17  and  O_25
REMARK    8  A    between atoms: C_19  and  O_24
REMARK    9  A    between atoms: C_21  and  O_23
REMARK   10  A    between atoms: O_25  and  C_26
REMARK   11  A    between atoms: C_27  and  C_39
REMARK   12  A    between atoms: C_31  and  O_38
REMARK   13  A    between atoms: C_33  and  O_37
REMARK   14  A    between atoms: C_41  and  O_46
REMARK   15  A    between atoms: C_42  and  O_45
REMARK   16  A    between atoms: C_47  and  O_48
REMARK                            x       y       z     vdW  Elec       q    Type
REMARK                         _______ _______ _______ _____ _____    ______ ____
ROOT
ATOM      1  C   UNL     1       6.109   3.582  25.254  0.00  0.00    +0.239 C 
ATOM      2  C   UNL     1       6.375   3.041  26.674  0.00  0.00    +0.192 C 
ATOM      3  C   UNL     1       6.768   1.562  26.737  0.00  0.00    +0.215 C 
ATOM      4  C   UNL     1       5.931   0.712  25.759  0.00  0.00    +0.340 C 
ATOM      5  O   UNL     1       5.983   1.209  24.413  0.00  0.00    -0.330 OA
ATOM      6  C   UNL     1       5.483   2.551  24.271  0.00  0.00    +0.191 C 
ENDROOT
BRANCH   3   7
ATOM      7  O   UNL     1       6.578   1.082  28.085  0.00  0.00    -0.383 OA
ATOM      8  H   UNL     1       6.350   0.139  28.008  0.00  0.00    +0.210 HD
ENDBRANCH   3   7
BRANCH   2   9
ATOM      9  O   UNL     1       7.444   3.813  27.276  0.00  0.00    -0.385 OA
ATOM     10  H   UNL     1       8.174   3.865  26.636  0.00  0.00    +0.210 HD
ENDBRANCH   2   9
BRANCH   4  11
ATOM     11  O   UNL     1       6.195  -0.721  25.902  0.00  0.00    -0.453 OA
BRANCH  11  12
ATOM     12  C   UNL     1       6.293  -1.595  24.835  0.00  0.00    +0.214 A 
ATOM     13  C   UNL     1       5.205  -2.602  24.624  0.00  0.00    +0.238 A 
ATOM     14  O   UNL     1       4.061  -2.443  25.031  0.00  0.00    -0.283 OA
ATOM     15  C   UNL     1       5.478  -3.744  23.765  0.00  0.00    +0.109 A 
ATOM     16  C   UNL     1       6.526  -3.619  22.867  0.00  0.00    +0.147 A 
ATOM     17  C   UNL     1       6.683  -4.591  21.871  0.00  0.00    +0.092 A 
ATOM     18  C   UNL     1       5.784  -5.663  21.812  0.00  0.00    +0.124 A 
ATOM     19  C   UNL     1       4.767  -5.813  22.740  0.00  0.00    +0.091 A 
ATOM     20  O   UNL     1       7.397  -2.558  22.893  0.00  0.00    -0.451 OA
ATOM     21  C   UNL     1       4.618  -4.853  23.730  0.00  0.00    +0.135 A 
ATOM     22  C   UNL     1       7.330  -1.610  23.937  0.00  0.00    +0.181 A 
BRANCH  22  23
ATOM     23  C   UNL     1       8.508  -0.633  23.869  0.00  0.00    +0.025 A 
ATOM     24  C   UNL     1       9.429  -0.479  24.924  0.00  0.00    +0.015 A 
ATOM     25  C   UNL     1      10.503   0.429  24.871  0.00  0.00    +0.050 A 
ATOM     26  C   UNL     1      10.668   1.237  23.768  0.00  0.00    +0.158 A 
ATOM     27  C   UNL     1       9.778   1.147  22.701  0.00  0.00    +0.159 A 
ATOM     28  C   UNL     1       8.718   0.220  22.743  0.00  0.00    +0.060 A 
BRANCH  27  29
ATOM     29  O   UNL     1       9.992   1.999  21.650  0.00  0.00    -0.503 OA
ATOM     30  H   UNL     1      10.495   2.770  21.962  0.00  0.00    +0.292 HD
ENDBRANCH  27  29
BRANCH  26  31
ATOM     31  O   UNL     1      11.695   2.138  23.747  0.00  0.00    -0.503 OA
ATOM     32  H   UNL     1      11.463   2.814  24.412  0.00  0.00    +0.292 HD
ENDBRANCH  26  31
ENDBRANCH  22  23
BRANCH  21  33
ATOM     33  O   UNL     1       3.667  -5.026  24.688  0.00  0.00    -0.506 OA
ATOM     34  H   UNL     1       3.808  -4.414  25.425  0.00  0.00    +0.292 HD
ENDBRANCH  21  33
BRANCH  18  35
ATOM     35  O   UNL     1       5.851  -6.612  20.838  0.00  0.00    -0.507 OA
ATOM     36  H   UNL     1       6.583  -6.398  20.238  0.00  0.00    +0.292 HD
ENDBRANCH  18  35
ENDBRANCH  11  12
ENDBRANCH   4  11
BRANCH   1  37
ATOM     37  O   UNL     1       5.364   4.860  25.345  0.00  0.00    -0.453 OA
BRANCH  37  38
ATOM     38  C   UNL     1       6.022   5.990  24.985  0.00  0.00    +0.332 C 
ATOM     39  O   UNL     1       5.519   7.108  24.939  0.00  0.00    -0.246 OA
BRANCH  38  41
ATOM     40  C   UNL     1       8.519   6.490  25.181  0.00  0.00    +0.015 C 
ATOM     41  C   UNL     1       7.461   5.833  24.682  0.00  0.00    +0.092 C 
BRANCH  40  43
ATOM     42  C   UNL     1      10.116   5.472  23.535  0.00  0.00    +0.011 A 
ATOM     43  C   UNL     1       9.895   6.268  24.670  0.00  0.00    -0.025 A 
ATOM     44  C   UNL     1      11.019   6.777  25.345  0.00  0.00    +0.011 A 
ATOM     45  C   UNL     1      12.317   6.517  24.889  0.00  0.00    +0.046 A 
ATOM     46  C   UNL     1      12.508   5.730  23.763  0.00  0.00    +0.117 A 
ATOM     47  C   UNL     1      11.419   5.206  23.078  0.00  0.00    +0.046 A 
BRANCH  46  48
ATOM     48  O   UNL     1      13.792   5.487  23.373  0.00  0.00    -0.507 OA
ATOM     49  H   UNL     1      14.312   6.301  23.470  0.00  0.00    +0.292 HD
ENDBRANCH  46  48
ENDBRANCH  40  43
ENDBRANCH  38  41
ENDBRANCH  37  38
ENDBRANCH   1  37
BRANCH   6  50
ATOM     50  C   UNL     1       5.722   3.027  22.818  0.00  0.00    +0.191 C 
BRANCH  50  51
ATOM     51  O   UNL     1       4.753   3.990  22.405  0.00  0.00    -0.392 OA
ATOM     52  H   UNL     1       4.999   4.285  21.511  0.00  0.00    +0.210 HD
ENDBRANCH  50  51
ENDBRANCH   6  50
TORSDOF 16
ENDMDL
MODEL 3
REMARK VINA RESULT:      -7.4      2.172      9.052
REMARK  Name = 
REMARK  16 active torsions:
REMARK  status: ('A' for Active; 'I' for Inactive)
REMARK    1  A    between atoms: C_3  and  O_49
REMARK    2  A    between atoms: C_6  and  C_7
REMARK    3  A    between atoms: C_8  and  C_9
REMARK    4  A    between atoms: C_9  and  O_11
REMARK    5  A    between atoms: O_11  and  C_12
REMARK    6  A    between atoms: C_14  and  C_47
REMARK    7  A    between atoms: C_17  and  O_25
REMARK    8  A    between atoms: C_19  and  O_24
REMARK    9  A    between atoms: C_21  and  O_23
REMARK   10  A    between atoms: O_25  and  C_26
REMARK   11  A    between atoms: C_27  and  C_39
REMARK   12  A    between atoms: C_31  and  O_38
REMARK   13  A    between atoms: C_33  and  O_37
REMARK   14  A    between atoms: C_41  and  O_46
REMARK   15  A    between atoms: C_42  and  O_45
REMARK   16  A    between atoms: C_47  and  O_48
REMARK                            x       y       z     vdW  Elec       q    Type
REMARK                         _______ _______ _______ _____ _____    ______ ____
ROOT
ATOM      1  C   UNL     1       9.365  -1.584  23.614  0.00  0.00    +0.239 C 
ATOM      2  C   UNL     1       9.348  -1.028  22.176  0.00  0.00    +0.192 C 
ATOM      3  C   UNL     1       9.255   0.498  22.075  0.00  0.00    +0.215 C 
ATOM      4  C   UNL     1       8.265   1.073  23.109  0.00  0.00    +0.340 C 
ATOM      5  O   UNL     1       8.564   0.656  24.450  0.00  0.00    -0.330 OA
ATOM      6  C   UNL     1       8.519  -0.771  24.636  0.00  0.00    +0.191 C 
ENDROOT
BRANCH   3   7
ATOM      7  O   UNL     1       8.831   0.857  20.743  0.00  0.00    -0.383 OA
ATOM      8  H   UNL     1       9.636   0.870  20.196  0.00  0.00    +0.210 HD
ENDBRANCH   3   7
BRANCH   2   9
ATOM      9  O   UNL     1      10.560  -1.446  21.498  0.00  0.00    -0.385 OA
ATOM     10  H   UNL     1      11.071  -0.649  21.277  0.00  0.00    +0.210 HD
ENDBRANCH   2   9
BRANCH   4  11
ATOM     11  O   UNL     1       8.058   2.513  22.939  0.00  0.00    -0.453 OA
BRANCH  11  12
ATOM     12  C   UNL     1       7.735   3.371  23.974  0.00  0.00    +0.214 A 
ATOM     13  C   UNL     1       6.385   3.261  24.610  0.00  0.00    +0.238 A 
ATOM     14  O   UNL     1       5.724   2.229  24.596  0.00  0.00    -0.283 OA
ATOM     15  C   UNL     1       5.905   4.375  25.412  0.00  0.00    +0.109 A 
ATOM     16  C   UNL     1       6.857   5.257  25.896  0.00  0.00    +0.147 A 
ATOM     17  C   UNL     1       6.476   6.206  26.854  0.00  0.00    +0.092 A 
ATOM     18  C   UNL     1       5.146   6.244  27.287  0.00  0.00    +0.124 A 
ATOM     19  C   UNL     1       4.184   5.395  26.765  0.00  0.00    +0.091 A 
ATOM     20  O   UNL     1       8.173   5.212  25.503  0.00  0.00    -0.451 OA
ATOM     21  C   UNL     1       4.562   4.461  25.813  0.00  0.00    +0.135 A 
ATOM     22  C   UNL     1       8.576   4.334  24.473  0.00  0.00    +0.181 A 
BRANCH  22  23
ATOM     23  C   UNL     1      10.032   4.589  24.073  0.00  0.00    +0.025 A 
ATOM     24  C   UNL     1      10.792   3.656  23.341  0.00  0.00    +0.015 A 
ATOM     25  C   UNL     1      12.135   3.880  22.985  0.00  0.00    +0.050 A 
ATOM     26  C   UNL     1      12.769   5.036  23.382  0.00  0.00    +0.158 A 
ATOM     27  C   UNL     1      12.077   5.988  24.126  0.00  0.00    +0.159 A 
ATOM     28  C   UNL     1      10.725   5.776  24.460  0.00  0.00    +0.060 A 
BRANCH  27  29
ATOM     29  O   UNL     1      12.781   7.101  24.504  0.00  0.00    -0.503 OA
ATOM     30  H   UNL     1      12.348   7.891  24.138  0.00  0.00    +0.292 HD
ENDBRANCH  27  29
BRANCH  26  31
ATOM     31  O   UNL     1      14.084   5.224  23.058  0.00  0.00    -0.503 OA
ATOM     32  H   UNL     1      14.486   4.333  23.075  0.00  0.00    +0.292 HD
ENDBRANCH  26  31
ENDBRANCH  22  23
BRANCH  21  33
ATOM     33  O   UNL     1       3.614   3.670  25.242  0.00  0.00    -0.506 OA
ATOM     34  H   UNL     1       2.763   4.132  25.197  0.00  0.00    +0.292 HD
ENDBRANCH  21  33
BRANCH  18  35
ATOM     35  O   UNL     1       4.723   7.108  28.252  0.00  0.00    -0.507 OA
ATOM     36  H   UNL     1       4.604   7.987  27.859  0.00  0.00    +0.292 HD
ENDBRANCH  18  35
ENDBRANCH  11  12
ENDBRANCH   4  11
BRANCH   1  37
ATOM     37  O   UNL     1       9.051  -3.031  23.586  0.00  0.00    -0.453 OA
BRANCH  37  38
ATOM     38  C   UNL     1       7.760  -3.383  23.365  0.00  0.00    +0.332 C 
ATOM     39  O   UNL     1       7.171  -3.246  22.297  0.00  0.00    -0.246 OA
BRANCH  38  41
ATOM     40  C   UNL     1       7.403  -5.096  25.226  0.00  0.00    +0.015 C 
ATOM     41  C   UNL     1       7.059  -4.021  24.499  0.00  0.00    +0.092 C 
BRANCH  40  43
ATOM     42  C   UNL     1       6.872  -5.614  27.622  0.00  0.00    +0.011 A 
ATOM     43  C   UNL     1       6.509  -5.660  26.267  0.00  0.00    -0.025 A 
ATOM     44  C   UNL     1       5.316  -6.323  25.929  0.00  0.00    +0.011 A 
ATOM     45  C   UNL     1       4.504  -6.902  26.913  0.00  0.00    +0.046 A 
ATOM     46  C   UNL     1       4.885  -6.841  28.244  0.00  0.00    +0.117 A 
ATOM     47  C   UNL     1       6.061  -6.199  28.611  0.00  0.00    +0.046 A 
BRANCH  46  48
ATOM     48  O   UNL     1       4.072  -7.440  29.162  0.00  0.00    -0.507 OA
ATOM     49  H   UNL     1       4.620  -7.858  29.845  0.00  0.00    +0.292 HD
ENDBRANCH  46  48
ENDBRANCH  40  43
ENDBRANCH  38  41
ENDBRANCH  37  38
ENDBRANCH   1  37
BRANCH   6  50
ATOM     50  C   UNL     1       8.996  -1.107  26.069  0.00  0.00    +0.191 C 
BRANCH  50  51
ATOM     51  O   UNL     1       8.716  -0.049  26.986  0.00  0.00    -0.392 OA
ATOM     52  H   UNL     1       8.199  -0.428  27.718  0.00  0.00    +0.210 HD
ENDBRANCH  50  51
ENDBRANCH   6  50
TORSDOF 16
ENDMDL
MODEL 4
REMARK VINA RESULT:      -7.3      2.525      9.412
REMARK  Name = 
REMARK  16 active torsions:
REMARK  status: ('A' for Active; 'I' for Inactive)
REMARK    1  A    between atoms: C_3  and  O_49
REMARK    2  A    between atoms: C_6  and  C_7
REMARK    3  A    between atoms: C_8  and  C_9
REMARK    4  A    between atoms: C_9  and  O_11
REMARK    5  A    between atoms: O_11  and  C_12
REMARK    6  A    between atoms: C_14  and  C_47
REMARK    7  A    between atoms: C_17  and  O_25
REMARK    8  A    between atoms: C_19  and  O_24
REMARK    9  A    between atoms: C_21  and  O_23
REMARK   10  A    between atoms: O_25  and  C_26
REMARK   11  A    between atoms: C_27  and  C_39
REMARK   12  A    between atoms: C_31  and  O_38
REMARK   13  A    between atoms: C_33  and  O_37
REMARK   14  A    between atoms: C_41  and  O_46
REMARK   15  A    between atoms: C_42  and  O_45
REMARK   16  A    between atoms: C_47  and  O_48
REMARK                            x       y       z     vdW  Elec       q    Type
REMARK                         _______ _______ _______ _____ _____    ______ ____
ROOT
ATOM      1  C   UNL     1       9.003  -1.476  23.688  0.00  0.00    +0.239 C 
ATOM      2  C   UNL     1       9.135  -0.950  22.245  0.00  0.00    +0.192 C 
ATOM      3  C   UNL     1       9.354   0.562  22.127  0.00  0.00    +0.215 C 
ATOM      4  C   UNL     1       8.474   1.339  23.128  0.00  0.00    +0.340 C 
ATOM      5  O   UNL     1       8.648   0.890  24.481  0.00  0.00    -0.330 OA
ATOM      6  C   UNL     1       8.313  -0.495  24.679  0.00  0.00    +0.191 C 
ENDROOT
BRANCH   3   7
ATOM      7  O   UNL     1       9.045   0.979  20.780  0.00  0.00    -0.383 OA
ATOM      8  H   UNL     1       8.339   0.386  20.468  0.00  0.00    +0.210 HD
ENDBRANCH   3   7
BRANCH   2   9
ATOM      9  O   UNL     1      10.255  -1.613  21.605  0.00  0.00    -0.385 OA
ATOM     10  H   UNL     1      10.935  -0.943  21.421  0.00  0.00    +0.210 HD
ENDBRANCH   2   9
BRANCH   4  11
ATOM     11  O   UNL     1       8.566   2.789  22.939  0.00  0.00    -0.453 OA
BRANCH  11  12
ATOM     12  C   UNL     1       7.589   3.681  23.344  0.00  0.00    +0.214 A 
ATOM     13  C   UNL     1       6.151   3.319  23.138  0.00  0.00    +0.238 A 
ATOM     14  O   UNL     1       5.760   2.161  23.051  0.00  0.00    -0.283 OA
ATOM     15  C   UNL     1       5.156   4.378  23.202  0.00  0.00    +0.109 A 
ATOM     16  C   UNL     1       5.518   5.542  23.862  0.00  0.00    +0.147 A 
ATOM     17  C   UNL     1       4.530   6.492  24.148  0.00  0.00    +0.092 A 
ATOM     18  C   UNL     1       3.209   6.247  23.753  0.00  0.00    +0.124 A 
ATOM     19  C   UNL     1       2.859   5.107  23.049  0.00  0.00    +0.091 A 
ATOM     20  O   UNL     1       6.803   5.782  24.282  0.00  0.00    -0.451 OA
ATOM     21  C   UNL     1       3.839   4.171  22.761  0.00  0.00    +0.135 A 
ATOM     22  C   UNL     1       7.843   4.894  23.931  0.00  0.00    +0.181 A 
BRANCH  22  23
ATOM     23  C   UNL     1       9.208   5.457  24.340  0.00  0.00    +0.025 A 
ATOM     24  C   UNL     1       9.358   6.410  25.367  0.00  0.00    +0.015 A 
ATOM     25  C   UNL     1      10.609   6.940  25.735  0.00  0.00    +0.050 A 
ATOM     26  C   UNL     1      11.746   6.556  25.060  0.00  0.00    +0.158 A 
ATOM     27  C   UNL     1      11.659   5.634  24.021  0.00  0.00    +0.159 A 
ATOM     28  C   UNL     1      10.411   5.082  23.670  0.00  0.00    +0.060 A 
BRANCH  27  29
ATOM     29  O   UNL     1      12.828   5.318  23.382  0.00  0.00    -0.503 OA
ATOM     30  H   UNL     1      13.012   4.372  23.502  0.00  0.00    +0.292 HD
ENDBRANCH  27  29
BRANCH  26  31
ATOM     31  O   UNL     1      12.948   7.107  25.406  0.00  0.00    -0.503 OA
ATOM     32  H   UNL     1      13.181   6.704  26.265  0.00  0.00    +0.292 HD
ENDBRANCH  26  31
ENDBRANCH  22  23
BRANCH  21  33
ATOM     33  O   UNL     1       3.521   3.082  22.010  0.00  0.00    -0.506 OA
ATOM     34  H   UNL     1       2.900   3.320  21.306  0.00  0.00    +0.292 HD
ENDBRANCH  21  33
BRANCH  18  35
ATOM     35  O   UNL     1       2.195   7.107  24.045  0.00  0.00    -0.507 OA
ATOM     36  H   UNL     1       2.239   7.866  23.442  0.00  0.00    +0.292 HD
ENDBRANCH  18  35
ENDBRANCH  11  12
ENDBRANCH   4  11
BRANCH   1  37
ATOM     37  O   UNL     1       8.404  -2.832  23.665  0.00  0.00    -0.453 OA
BRANCH  37  38
ATOM     38  C   UNL     1       9.009  -3.791  24.410  0.00  0.00    +0.332 C 
ATOM     39  O   UNL     1      10.209  -4.044  24.384  0.00  0.00    -0.246 OA
BRANCH  38  41
ATOM     40  C   UNL     1       6.871  -4.949  25.192  0.00  0.00    +0.015 C 
ATOM     41  C   UNL     1       8.136  -4.529  25.348  0.00  0.00    +0.092 C 
BRANCH  40  43
ATOM     42  C   UNL     1       6.590  -5.529  27.617  0.00  0.00    +0.011 A 
ATOM     43  C   UNL     1       6.113  -5.586  26.298  0.00  0.00    -0.025 A 
ATOM     44  C   UNL     1       4.943  -6.327  26.053  0.00  0.00    +0.011 A 
ATOM     45  C   UNL     1       4.262  -6.971  27.094  0.00  0.00    +0.046 A 
ATOM     46  C   UNL     1       4.753  -6.898  28.388  0.00  0.00    +0.117 A 
ATOM     47  C   UNL     1       5.911  -6.180  28.662  0.00  0.00    +0.046 A 
BRANCH  46  48
ATOM     48  O   UNL     1       4.067  -7.562  29.362  0.00  0.00    -0.507 OA
ATOM     49  H   UNL     1       3.611  -8.323  28.967  0.00  0.00    +0.292 HD
ENDBRANCH  46  48
ENDBRANCH  40  43
ENDBRANCH  38  41
ENDBRANCH  37  38
ENDBRANCH   1  37
BRANCH   6  50
ATOM     50  C   UNL     1       8.675  -0.899  26.128  0.00  0.00    +0.191 C 
BRANCH  50  51
ATOM     51  O   UNL     1       8.637   0.216  27.018  0.00  0.00    -0.392 OA
ATOM     52  H   UNL     1       8.357  -0.116  27.888  0.00  0.00    +0.210 HD
ENDBRANCH  50  51
ENDBRANCH   6  50
TORSDOF 16
ENDMDL
MODEL 5
REMARK VINA RESULT:      -7.3      2.381      9.131
REMARK  Name = 
REMARK  16 active torsions:
REMARK  status: ('A' for Active; 'I' for Inactive)
REMARK    1  A    between atoms: C_3  and  O_49
REMARK    2  A    between atoms: C_6  and  C_7
REMARK    3  A    between atoms: C_8  and  C_9
REMARK    4  A    between atoms: C_9  and  O_11
REMARK    5  A    between atoms: O_11  and  C_12
REMARK    6  A    between atoms: C_14  and  C_47
REMARK    7  A    between atoms: C_17  and  O_25
REMARK    8  A    between atoms: C_19  and  O_24
REMARK    9  A    between atoms: C_21  and  O_23
REMARK   10  A    between atoms: O_25  and  C_26
REMARK   11  A    between atoms: C_27  and  C_39
REMARK   12  A    between atoms: C_31  and  O_38
REMARK   13  A    between atoms: C_33  and  O_37
REMARK   14  A    between atoms: C_41  and  O_46
REMARK   15  A    between atoms: C_42  and  O_45
REMARK   16  A    between atoms: C_47  and  O_48
REMARK                            x       y       z     vdW  Elec       q    Type
REMARK                         _______ _______ _______ _____ _____    ______ ____
ROOT
ATOM      1  C   UNL     1       7.674  -1.134  22.959  0.00  0.00    +0.239 C 
ATOM      2  C   UNL     1       6.670  -1.062  24.128  0.00  0.00    +0.192 C 
ATOM      3  C   UNL     1       6.351   0.355  24.617  0.00  0.00    +0.215 C 
ATOM      4  C   UNL     1       7.618   1.235  24.664  0.00  0.00    +0.340 C 
ATOM      5  O   UNL     1       8.318   1.261  23.411  0.00  0.00    -0.330 OA
ATOM      6  C   UNL     1       8.773  -0.033  22.975  0.00  0.00    +0.191 C 
ENDROOT
BRANCH   3   7
ATOM      7  O   UNL     1       5.763   0.276  25.933  0.00  0.00    -0.383 OA
ATOM      8  H   UNL     1       5.990   1.110  26.382  0.00  0.00    +0.210 HD
ENDBRANCH   3   7
BRANCH   2   9
ATOM      9  O   UNL     1       5.426  -1.682  23.716  0.00  0.00    -0.385 OA
ATOM     10  H   UNL     1       5.542  -2.015  22.810  0.00  0.00    +0.210 HD
ENDBRANCH   2   9
BRANCH   4  11
ATOM     11  O   UNL     1       7.359   2.548  25.258  0.00  0.00    -0.453 OA
BRANCH  11  12
ATOM     12  C   UNL     1       6.668   3.560  24.617  0.00  0.00    +0.214 A 
ATOM     13  C   UNL     1       5.192   3.412  24.416  0.00  0.00    +0.238 A 
ATOM     14  O   UNL     1       4.490   2.706  25.130  0.00  0.00    -0.283 OA
ATOM     15  C   UNL     1       4.539   4.261  23.433  0.00  0.00    +0.109 A 
ATOM     16  C   UNL     1       5.202   5.422  23.066  0.00  0.00    +0.147 A 
ATOM     17  C   UNL     1       4.519   6.378  22.304  0.00  0.00    +0.092 A 
ATOM     18  C   UNL     1       3.193   6.134  21.927  0.00  0.00    +0.124 A 
ATOM     19  C   UNL     1       2.549   4.952  22.250  0.00  0.00    +0.091 A 
ATOM     20  O   UNL     1       6.492   5.690  23.455  0.00  0.00    -0.451 OA
ATOM     21  C   UNL     1       3.229   4.003  22.999  0.00  0.00    +0.135 A 
ATOM     22  C   UNL     1       7.243   4.712  24.142  0.00  0.00    +0.181 A 
BRANCH  22  23
ATOM     23  C   UNL     1       8.701   5.152  24.303  0.00  0.00    +0.025 A 
ATOM     24  C   UNL     1       9.070   6.309  25.019  0.00  0.00    +0.015 A 
ATOM     25  C   UNL     1      10.407   6.725  25.155  0.00  0.00    +0.050 A 
ATOM     26  C   UNL     1      11.416   6.011  24.549  0.00  0.00    +0.158 A 
ATOM     27  C   UNL     1      11.114   4.871  23.809  0.00  0.00    +0.159 A 
ATOM     28  C   UNL     1       9.778   4.439  23.694  0.00  0.00    +0.060 A 
BRANCH  27  29
ATOM     29  O   UNL     1      12.167   4.227  23.216  0.00  0.00    -0.503 OA
ATOM     30  H   UNL     1      11.996   3.271  23.214  0.00  0.00    +0.292 HD
ENDBRANCH  27  29
BRANCH  26  31
ATOM     31  O   UNL     1      12.707   6.448  24.662  0.00  0.00    -0.503 OA
ATOM     32  H   UNL     1      12.888   6.478  25.621  0.00  0.00    +0.292 HD
ENDBRANCH  26  31
ENDBRANCH  22  23
BRANCH  21  33
ATOM     33  O   UNL     1       2.632   2.810  23.264  0.00  0.00    -0.506 OA
ATOM     34  H   UNL     1       2.215   2.821  24.139  0.00  0.00    +0.292 HD
ENDBRANCH  21  33
BRANCH  18  35
ATOM     35  O   UNL     1       2.460   7.045  21.229  0.00  0.00    -0.507 OA
ATOM     36  H   UNL     1       2.846   7.155  20.346  0.00  0.00    +0.292 HD
ENDBRANCH  18  35
ENDBRANCH  11  12
ENDBRANCH   4  11
BRANCH   1  37
ATOM     37  O   UNL     1       8.202  -2.514  22.848  0.00  0.00    -0.453 OA
BRANCH  37  38
ATOM     38  C   UNL     1       8.932  -2.985  23.890  0.00  0.00    +0.332 C 
ATOM     39  O   UNL     1      10.117  -2.732  24.084  0.00  0.00    -0.246 OA
BRANCH  38  41
ATOM     40  C   UNL     1       7.205  -4.694  24.676  0.00  0.00    +0.015 C 
ATOM     41  C   UNL     1       8.202  -3.816  24.869  0.00  0.00    +0.092 C 
BRANCH  40  43
ATOM     42  C   UNL     1       7.066  -5.334  27.098  0.00  0.00    +0.011 A 
ATOM     43  C   UNL     1       6.515  -5.362  25.807  0.00  0.00    -0.025 A 
ATOM     44  C   UNL     1       5.337  -6.105  25.613  0.00  0.00    +0.011 A 
ATOM     45  C   UNL     1       4.720  -6.778  26.675  0.00  0.00    +0.046 A 
ATOM     46  C   UNL     1       5.284  -6.733  27.940  0.00  0.00    +0.117 A 
ATOM     47  C   UNL     1       6.452  -6.014  28.165  0.00  0.00    +0.046 A 
BRANCH  46  48
ATOM     48  O   UNL     1       4.659  -7.424  28.936  0.00  0.00    -0.507 OA
ATOM     49  H   UNL     1       5.315  -7.965  29.406  0.00  0.00    +0.292 HD
ENDBRANCH  46  48
ENDBRANCH  40  43
ENDBRANCH  38  41
ENDBRANCH  37  38
ENDBRANCH   1  37
BRANCH   6  50
ATOM     50  C   UNL     1       9.380   0.098  21.558  0.00  0.00    +0.191 C 
BRANCH  50  51
ATOM     51  O   UNL     1      10.025  -1.105  21.140  0.00  0.00    -0.392 OA
ATOM     52  H   UNL     1       9.707  -1.820  21.717  0.00  0.00    +0.210 HD
ENDBRANCH  50  51
ENDBRANCH   6  50
TORSDOF 16
ENDMDL
MODEL 6
REMARK VINA RESULT:      -7.3      2.179      5.432
REMARK  Name = 
REMARK  16 active torsions:
REMARK  status: ('A' for Active; 'I' for Inactive)
REMARK    1  A    between atoms: C_3  and  O_49
REMARK    2  A    between atoms: C_6  and  C_7
REMARK    3  A    between atoms: C_8  and  C_9
REMARK    4  A    between atoms: C_9  and  O_11
REMARK    5  A    between atoms: O_11  and  C_12
REMARK    6  A    between atoms: C_14  and  C_47
REMARK    7  A    between atoms: C_17  and  O_25
REMARK    8  A    between atoms: C_19  and  O_24
REMARK    9  A    between atoms: C_21  and  O_23
REMARK   10  A    between atoms: O_25  and  C_26
REMARK   11  A    between atoms: C_27  and  C_39
REMARK   12  A    between atoms: C_31  and  O_38
REMARK   13  A    between atoms: C_33  and  O_37
REMARK   14  A    between atoms: C_41  and  O_46
REMARK   15  A    between atoms: C_42  and  O_45
REMARK   16  A    between atoms: C_47  and  O_48
REMARK                            x       y       z     vdW  Elec       q    Type
REMARK                         _______ _______ _______ _____ _____    ______ ____
ROOT
ATOM      1  C   UNL     1       8.073   4.148  23.985  0.00  0.00    +0.239 C 
ATOM      2  C   UNL     1       7.791   3.213  22.792  0.00  0.00    +0.192 C 
ATOM      3  C   UNL     1       6.586   2.283  22.972  0.00  0.00    +0.215 C 
ATOM      4  C   UNL     1       6.526   1.708  24.402  0.00  0.00    +0.340 C 
ATOM      5  O   UNL     1       6.551   2.731  25.410  0.00  0.00    -0.330 OA
ATOM      6  C   UNL     1       7.738   3.544  25.379  0.00  0.00    +0.191 C 
ENDROOT
BRANCH   3   7
ATOM      7  O   UNL     1       6.677   1.205  22.016  0.00  0.00    -0.383 OA
ATOM      8  H   UNL     1       7.346   1.477  21.364  0.00  0.00    +0.210 HD
ENDBRANCH   3   7
BRANCH   2   9
ATOM      9  O   UNL     1       7.558   4.020  21.609  0.00  0.00    -0.385 OA
ATOM     10  H   UNL     1       8.258   4.692  21.562  0.00  0.00    +0.210 HD
ENDBRANCH   2   9
BRANCH   4  11
ATOM     11  O   UNL     1       5.463   0.712  24.555  0.00  0.00    -0.453 OA
BRANCH  11  12
ATOM     12  C   UNL     1       5.641  -0.515  25.168  0.00  0.00    +0.214 A 
ATOM     13  C   UNL     1       5.717  -1.743  24.317  0.00  0.00    +0.238 A 
ATOM     14  O   UNL     1       6.064  -1.720  23.142  0.00  0.00    -0.283 OA
ATOM     15  C   UNL     1       5.521  -3.037  24.951  0.00  0.00    +0.109 A 
ATOM     16  C   UNL     1       5.712  -3.101  26.322  0.00  0.00    +0.147 A 
ATOM     17  C   UNL     1       5.760  -4.356  26.941  0.00  0.00    +0.092 A 
ATOM     18  C   UNL     1       5.607  -5.509  26.163  0.00  0.00    +0.124 A 
ATOM     19  C   UNL     1       5.367  -5.443  24.801  0.00  0.00    +0.091 A 
ATOM     20  O   UNL     1       5.894  -1.979  27.094  0.00  0.00    -0.451 OA
ATOM     21  C   UNL     1       5.313  -4.199  24.191  0.00  0.00    +0.135 A 
ATOM     22  C   UNL     1       5.758  -0.695  26.523  0.00  0.00    +0.181 A 
BRANCH  22  23
ATOM     23  C   UNL     1       5.813   0.393  27.600  0.00  0.00    +0.025 A 
ATOM     24  C   UNL     1       4.682   1.144  27.978  0.00  0.00    +0.015 A 
ATOM     25  C   UNL     1       4.733   2.155  28.956  0.00  0.00    +0.050 A 
ATOM     26  C   UNL     1       5.929   2.468  29.562  0.00  0.00    +0.158 A 
ATOM     27  C   UNL     1       7.086   1.776  29.215  0.00  0.00    +0.159 A 
ATOM     28  C   UNL     1       7.031   0.746  28.256  0.00  0.00    +0.060 A 
BRANCH  27  29
ATOM     29  O   UNL     1       8.241   2.159  29.844  0.00  0.00    -0.503 OA
ATOM     30  H   UNL     1       8.033   2.438  30.751  0.00  0.00    +0.292 HD
ENDBRANCH  27  29
BRANCH  26  31
ATOM     31  O   UNL     1       5.968   3.477  30.485  0.00  0.00    -0.503 OA
ATOM     32  H   UNL     1       5.633   4.268  30.019  0.00  0.00    +0.292 HD
ENDBRANCH  26  31
ENDBRANCH  22  23
BRANCH  21  33
ATOM     33  O   UNL     1       5.008  -4.119  22.867  0.00  0.00    -0.506 OA
ATOM     34  H   UNL     1       5.414  -3.334  22.469  0.00  0.00    +0.292 HD
ENDBRANCH  21  33
BRANCH  18  35
ATOM     35  O   UNL     1       5.695  -6.759  26.696  0.00  0.00    -0.507 OA
ATOM     36  H   UNL     1       5.991  -6.691  27.618  0.00  0.00    +0.292 HD
ENDBRANCH  18  35
ENDBRANCH  11  12
ENDBRANCH   4  11
BRANCH   1  37
ATOM     37  O   UNL     1       9.450   4.685  23.874  0.00  0.00    -0.453 OA
BRANCH  37  38
ATOM     38  C   UNL     1      10.441   3.801  23.600  0.00  0.00    +0.332 C 
ATOM     39  O   UNL     1      11.600   4.108  23.340  0.00  0.00    -0.246 OA
BRANCH  38  41
ATOM     40  C   UNL     1      10.594   1.393  24.439  0.00  0.00    +0.015 C 
ATOM     41  C   UNL     1      10.074   2.371  23.681  0.00  0.00    +0.092 C 
BRANCH  40  43
ATOM     42  C   UNL     1      10.324  -0.702  23.085  0.00  0.00    +0.011 A 
ATOM     43  C   UNL     1      10.164  -0.021  24.302  0.00  0.00    -0.025 A 
ATOM     44  C   UNL     1       9.516  -0.696  25.352  0.00  0.00    +0.011 A 
ATOM     45  C   UNL     1       9.063  -2.011  25.198  0.00  0.00    +0.046 A 
ATOM     46  C   UNL     1       9.236  -2.663  23.986  0.00  0.00    +0.117 A 
ATOM     47  C   UNL     1       9.865  -2.022  22.926  0.00  0.00    +0.046 A 
BRANCH  46  48
ATOM     48  O   UNL     1       8.757  -3.935  23.879  0.00  0.00    -0.507 OA
ATOM     49  H   UNL     1       8.016  -3.943  23.251  0.00  0.00    +0.292 HD
ENDBRANCH  46  48
ENDBRANCH  40  43
ENDBRANCH  38  41
ENDBRANCH  37  38
ENDBRANCH   1  37
BRANCH   6  50
ATOM     50  C   UNL     1       7.588   4.692  26.406  0.00  0.00    +0.191 C 
BRANCH  50  51
ATOM     51  O   UNL     1       8.693   5.594  26.363  0.00  0.00    -0.392 OA
ATOM     52  H   UNL     1       9.492   5.067  26.185  0.00  0.00    +0.210 HD
ENDBRANCH  50  51
ENDBRANCH   6  50
TORSDOF 16
ENDMDL
MODEL 7
REMARK VINA RESULT:      -7.2      2.916      8.883
REMARK  Name = 
REMARK  16 active torsions:
REMARK  status: ('A' for Active; 'I' for Inactive)
REMARK    1  A    between atoms: C_3  and  O_49
REMARK    2  A    between atoms: C_6  and  C_7
REMARK    3  A    between atoms: C_8  and  C_9
REMARK    4  A    between atoms: C_9  and  O_11
REMARK    5  A    between atoms: O_11  and  C_12
REMARK    6  A    between atoms: C_14  and  C_47
REMARK    7  A    between atoms: C_17  and  O_25
REMARK    8  A    between atoms: C_19  and  O_24
REMARK    9  A    between atoms: C_21  and  O_23
REMARK   10  A    between atoms: O_25  and  C_26
REMARK   11  A    between atoms: C_27  and  C_39
REMARK   12  A    between atoms: C_31  and  O_38
REMARK   13  A    between atoms: C_33  and  O_37
REMARK   14  A    between atoms: C_41  and  O_46
REMARK   15  A    between atoms: C_42  and  O_45
REMARK   16  A    between atoms: C_47  and  O_48
REMARK                            x       y       z     vdW  Elec       q    Type
REMARK                         _______ _______ _______ _____ _____    ______ ____
ROOT
ATOM      1  C   UNL     1       8.882  -0.305  24.557  0.00  0.00    +0.239 C 
ATOM      2  C   UNL     1       8.458  -0.227  26.038  0.00  0.00    +0.192 C 
ATOM      3  C   UNL     1       7.547   0.956  26.386  0.00  0.00    +0.215 C 
ATOM      4  C   UNL     1       7.998   2.245  25.670  0.00  0.00    +0.340 C 
ATOM      5  O   UNL     1       8.112   2.076  24.249  0.00  0.00    -0.330 OA
ATOM      6  C   UNL     1       9.069   1.074  23.860  0.00  0.00    +0.191 C 
ENDROOT
BRANCH   3   7
ATOM      7  O   UNL     1       7.567   1.159  27.815  0.00  0.00    -0.383 OA
ATOM      8  H   UNL     1       7.288   0.316  28.213  0.00  0.00    +0.210 HD
ENDBRANCH   3   7
BRANCH   2   9
ATOM      9  O   UNL     1       7.757  -1.447  26.389  0.00  0.00    -0.385 OA
ATOM     10  H   UNL     1       8.421  -2.121  26.611  0.00  0.00    +0.210 HD
ENDBRANCH   2   9
BRANCH   4  11
ATOM     11  O   UNL     1       7.226   3.415  26.096  0.00  0.00    -0.453 OA
BRANCH  11  12
ATOM     12  C   UNL     1       6.602   4.285  25.220  0.00  0.00    +0.214 A 
ATOM     13  C   UNL     1       5.121   4.179  25.030  0.00  0.00    +0.238 A 
ATOM     14  O   UNL     1       4.372   3.704  25.875  0.00  0.00    -0.283 OA
ATOM     15  C   UNL     1       4.528   4.808  23.860  0.00  0.00    +0.109 A 
ATOM     16  C   UNL     1       5.262   5.810  23.245  0.00  0.00    +0.147 A 
ATOM     17  C   UNL     1       4.644   6.596  22.265  0.00  0.00    +0.092 A 
ATOM     18  C   UNL     1       3.308   6.346  21.928  0.00  0.00    +0.124 A 
ATOM     19  C   UNL     1       2.591   5.313  22.508  0.00  0.00    +0.091 A 
ATOM     20  O   UNL     1       6.563   6.086  23.586  0.00  0.00    -0.451 OA
ATOM     21  C   UNL     1       3.207   4.531  23.473  0.00  0.00    +0.135 A 
ATOM     22  C   UNL     1       7.249   5.257  24.500  0.00  0.00    +0.181 A 
BRANCH  22  23
ATOM     23  C   UNL     1       8.731   5.638  24.582  0.00  0.00    +0.025 A 
ATOM     24  C   UNL     1       9.217   6.597  25.492  0.00  0.00    +0.015 A 
ATOM     25  C   UNL     1      10.575   6.962  25.560  0.00  0.00    +0.050 A 
ATOM     26  C   UNL     1      11.484   6.398  24.693  0.00  0.00    +0.158 A 
ATOM     27  C   UNL     1      11.060   5.460  23.755  0.00  0.00    +0.159 A 
ATOM     28  C   UNL     1       9.706   5.075  23.704  0.00  0.00    +0.060 A 
BRANCH  27  29
ATOM     29  O   UNL     1      12.017   4.961  22.912  0.00  0.00    -0.503 OA
ATOM     30  H   UNL     1      11.614   4.292  22.333  0.00  0.00    +0.292 HD
ENDBRANCH  27  29
BRANCH  26  31
ATOM     31  O   UNL     1      12.793   6.788  24.748  0.00  0.00    -0.503 OA
ATOM     32  H   UNL     1      12.857   7.568  24.164  0.00  0.00    +0.292 HD
ENDBRANCH  26  31
ENDBRANCH  22  23
BRANCH  21  33
ATOM     33  O   UNL     1       2.536   3.471  23.999  0.00  0.00    -0.506 OA
ATOM     34  H   UNL     1       2.107   2.955  23.299  0.00  0.00    +0.292 HD
ENDBRANCH  21  33
BRANCH  18  35
ATOM     35  O   UNL     1       2.636   7.108  21.021  0.00  0.00    -0.507 OA
ATOM     36  H   UNL     1       2.725   6.706  20.142  0.00  0.00    +0.292 HD
ENDBRANCH  18  35
ENDBRANCH  11  12
ENDBRANCH   4  11
BRANCH   1  37
ATOM     37  O   UNL     1      10.047  -1.211  24.426  0.00  0.00    -0.453 OA
BRANCH  37  38
ATOM     38  C   UNL     1      10.033  -2.096  23.399  0.00  0.00    +0.332 C 
ATOM     39  O   UNL     1      10.943  -2.244  22.590  0.00  0.00    -0.246 OA
BRANCH  38  41
ATOM     40  C   UNL     1       8.000  -3.168  22.284  0.00  0.00    +0.015 C 
ATOM     41  C   UNL     1       8.841  -2.966  23.310  0.00  0.00    +0.092 C 
BRANCH  40  43
ATOM     42  C   UNL     1       5.677  -3.545  23.152  0.00  0.00    +0.011 A 
ATOM     43  C   UNL     1       6.782  -4.005  22.418  0.00  0.00    -0.025 A 
ATOM     44  C   UNL     1       6.722  -5.305  21.886  0.00  0.00    +0.011 A 
ATOM     45  C   UNL     1       5.590  -6.110  22.063  0.00  0.00    +0.046 A 
ATOM     46  C   UNL     1       4.511  -5.632  22.791  0.00  0.00    +0.117 A 
ATOM     47  C   UNL     1       4.541  -4.354  23.336  0.00  0.00    +0.046 A 
BRANCH  46  48
ATOM     48  O   UNL     1       3.442  -6.462  22.955  0.00  0.00    -0.507 OA
ATOM     49  H   UNL     1       3.291  -6.600  23.904  0.00  0.00    +0.292 HD
ENDBRANCH  46  48
ENDBRANCH  40  43
ENDBRANCH  38  41
ENDBRANCH  37  38
ENDBRANCH   1  37
BRANCH   6  50
ATOM     50  C   UNL     1       9.001   0.880  22.327  0.00  0.00    +0.191 C 
BRANCH  50  51
ATOM     51  O   UNL     1       9.782   1.851  21.631  0.00  0.00    -0.392 OA
ATOM     52  H   UNL     1      10.470   1.371  21.137  0.00  0.00    +0.210 HD
ENDBRANCH  50  51
ENDBRANCH   6  50
TORSDOF 16
ENDMDL
MODEL 8
REMARK VINA RESULT:      -7.2      2.719      9.455
REMARK  Name = 
REMARK  16 active torsions:
REMARK  status: ('A' for Active; 'I' for Inactive)
REMARK    1  A    between atoms: C_3  and  O_49
REMARK    2  A    between atoms: C_6  and  C_7
REMARK    3  A    between atoms: C_8  and  C_9
REMARK    4  A    between atoms: C_9  and  O_11
REMARK    5  A    between atoms: O_11  and  C_12
REMARK    6  A    between atoms: C_14  and  C_47
REMARK    7  A    between atoms: C_17  and  O_25
REMARK    8  A    between atoms: C_19  and  O_24
REMARK    9  A    between atoms: C_21  and  O_23
REMARK   10  A    between atoms: O_25  and  C_26
REMARK   11  A    between atoms: C_27  and  C_39
REMARK   12  A    between atoms: C_31  and  O_38
REMARK   13  A    between atoms: C_33  and  O_37
REMARK   14  A    between atoms: C_41  and  O_46
REMARK   15  A    between atoms: C_42  and  O_45
REMARK   16  A    between atoms: C_47  and  O_48
REMARK                            x       y       z     vdW  Elec       q    Type
REMARK                         _______ _______ _______ _____ _____    ______ ____
ROOT
ATOM      1  C   UNL     1       9.149  -2.420  24.054  0.00  0.00    +0.239 C 
ATOM      2  C   UNL     1       9.593  -1.408  22.978  0.00  0.00    +0.192 C 
ATOM      3  C   UNL     1       9.873   0.006  23.500  0.00  0.00    +0.215 C 
ATOM      4  C   UNL     1       8.827   0.439  24.547  0.00  0.00    +0.340 C 
ATOM      5  O   UNL     1       8.704  -0.501  25.626  0.00  0.00    -0.330 OA
ATOM      6  C   UNL     1       8.296  -1.815  25.205  0.00  0.00    +0.191 C 
ENDROOT
BRANCH   3   7
ATOM      7  O   UNL     1       9.862   0.927  22.389  0.00  0.00    -0.383 OA
ATOM      8  H   UNL     1      10.695   0.782  21.907  0.00  0.00    +0.210 HD
ENDBRANCH   3   7
BRANCH   2   9
ATOM      9  O   UNL     1      10.802  -1.897  22.345  0.00  0.00    -0.385 OA
ATOM     10  H   UNL     1      10.668  -1.870  21.382  0.00  0.00    +0.210 HD
ENDBRANCH   2   9
BRANCH   4  11
ATOM     11  O   UNL     1       8.996   1.835  24.956  0.00  0.00    -0.453 OA
BRANCH  11  12
ATOM     12  C   UNL     1       8.195   2.870  24.510  0.00  0.00    +0.214 A 
ATOM     13  C   UNL     1       6.712   2.760  24.680  0.00  0.00    +0.238 A 
ATOM     14  O   UNL     1       6.189   2.064  25.542  0.00  0.00    -0.283 OA
ATOM     15  C   UNL     1       5.859   3.635  23.892  0.00  0.00    +0.109 A 
ATOM     16  C   UNL     1       6.440   4.783  23.377  0.00  0.00    +0.147 A 
ATOM     17  C   UNL     1       5.615   5.763  22.812  0.00  0.00    +0.092 A 
ATOM     18  C   UNL     1       4.232   5.555  22.772  0.00  0.00    +0.124 A 
ATOM     19  C   UNL     1       3.657   4.385  23.241  0.00  0.00    +0.091 A 
ATOM     20  O   UNL     1       7.793   5.015  23.436  0.00  0.00    -0.451 OA
ATOM     21  C   UNL     1       4.475   3.413  23.795  0.00  0.00    +0.135 A 
ATOM     22  C   UNL     1       8.664   4.012  23.913  0.00  0.00    +0.181 A 
BRANCH  22  23
ATOM     23  C   UNL     1      10.128   4.415  23.710  0.00  0.00    +0.025 A 
ATOM     24  C   UNL     1      11.039   3.624  22.983  0.00  0.00    +0.015 A 
ATOM     25  C   UNL     1      12.389   3.984  22.808  0.00  0.00    +0.050 A 
ATOM     26  C   UNL     1      12.876   5.135  23.387  0.00  0.00    +0.158 A 
ATOM     27  C   UNL     1      12.029   5.948  24.136  0.00  0.00    +0.159 A 
ATOM     28  C   UNL     1      10.672   5.602  24.289  0.00  0.00    +0.060 A 
BRANCH  27  29
ATOM     29  O   UNL     1      12.591   7.062  24.699  0.00  0.00    -0.503 OA
ATOM     30  H   UNL     1      11.918   7.760  24.763  0.00  0.00    +0.292 HD
ENDBRANCH  27  29
BRANCH  26  31
ATOM     31  O   UNL     1      14.197   5.452  23.236  0.00  0.00    -0.503 OA
ATOM     32  H   UNL     1      14.680   4.833  23.816  0.00  0.00    +0.292 HD
ENDBRANCH  26  31
ENDBRANCH  22  23
BRANCH  21  33
ATOM     33  O   UNL     1       3.931   2.232  24.194  0.00  0.00    -0.506 OA
ATOM     34  H   UNL     1       3.805   1.640  23.438  0.00  0.00    +0.292 HD
ENDBRANCH  21  33
BRANCH  18  35
ATOM     35  O   UNL     1       3.372   6.491  22.282  0.00  0.00    -0.507 OA
ATOM     36  H   UNL     1       3.666   6.758  21.396  0.00  0.00    +0.292 HD
ENDBRANCH  18  35
ENDBRANCH  11  12
ENDBRANCH   4  11
BRANCH   1  37
ATOM     37  O   UNL     1       8.531  -3.596  23.397  0.00  0.00    -0.453 OA
BRANCH  37  38
ATOM     38  C   UNL     1       7.262  -3.456  22.940  0.00  0.00    +0.332 C 
ATOM     39  O   UNL     1       6.933  -2.750  21.992  0.00  0.00    -0.246 OA
BRANCH  38  41
ATOM     40  C   UNL     1       6.377  -5.240  24.540  0.00  0.00    +0.015 C 
ATOM     41  C   UNL     1       6.234  -4.269  23.625  0.00  0.00    +0.092 C 
BRANCH  40  43
ATOM     42  C   UNL     1       4.353  -6.668  24.142  0.00  0.00    +0.011 A 
ATOM     43  C   UNL     1       5.221  -6.027  25.039  0.00  0.00    -0.025 A 
ATOM     44  C   UNL     1       4.915  -6.092  26.410  0.00  0.00    +0.011 A 
ATOM     45  C   UNL     1       3.791  -6.790  26.869  0.00  0.00    +0.046 A 
ATOM     46  C   UNL     1       2.951  -7.417  25.962  0.00  0.00    +0.117 A 
ATOM     47  C   UNL     1       3.221  -7.366  24.600  0.00  0.00    +0.046 A 
BRANCH  46  48
ATOM     48  O   UNL     1       1.858  -8.065  26.458  0.00  0.00    -0.507 OA
ATOM     49  H   UNL     1       1.995  -9.023  26.380  0.00  0.00    +0.292 HD
ENDBRANCH  46  48
ENDBRANCH  40  43
ENDBRANCH  38  41
ENDBRANCH  37  38
ENDBRANCH   1  37
BRANCH   6  50
ATOM     50  C   UNL     1       8.339  -2.769  26.423  0.00  0.00    +0.191 C 
BRANCH  50  51
ATOM     51  O   UNL     1       9.108  -3.941  26.156  0.00  0.00    -0.392 OA
ATOM     52  H   UNL     1       8.960  -4.560  26.892  0.00  0.00    +0.210 HD
ENDBRANCH  50  51
ENDBRANCH   6  50
TORSDOF 16
ENDMDL
MODEL 9
REMARK VINA RESULT:      -7.0      2.792      9.113
REMARK  Name = 
REMARK  16 active torsions:
REMARK  status: ('A' for Active; 'I' for Inactive)
REMARK    1  A    between atoms: C_3  and  O_49
REMARK    2  A    between atoms: C_6  and  C_7
REMARK    3  A    between atoms: C_8  and  C_9
REMARK    4  A    between atoms: C_9  and  O_11
REMARK    5  A    between atoms: O_11  and  C_12
REMARK    6  A    between atoms: C_14  and  C_47
REMARK    7  A    between atoms: C_17  and  O_25
REMARK    8  A    between atoms: C_19  and  O_24
REMARK    9  A    between atoms: C_21  and  O_23
REMARK   10  A    between atoms: O_25  and  C_26
REMARK   11  A    between atoms: C_27  and  C_39
REMARK   12  A    between atoms: C_31  and  O_38
REMARK   13  A    between atoms: C_33  and  O_37
REMARK   14  A    between atoms: C_41  and  O_46
REMARK   15  A    between atoms: C_42  and  O_45
REMARK   16  A    between atoms: C_47  and  O_48
REMARK                            x       y       z     vdW  Elec       q    Type
REMARK                         _______ _______ _______ _____ _____    ______ ____
ROOT
ATOM      1  C   UNL     1       9.477   0.116  24.845  0.00  0.00    +0.239 C 
ATOM      2  C   UNL     1      10.317   0.709  23.696  0.00  0.00    +0.192 C 
ATOM      3  C   UNL     1       9.812   2.051  23.154  0.00  0.00    +0.215 C 
ATOM      4  C   UNL     1       8.273   2.072  23.043  0.00  0.00    +0.340 C 
ATOM      5  O   UNL     1       7.626   1.731  24.279  0.00  0.00    -0.330 OA
ATOM      6  C   UNL     1       7.952   0.415  24.759  0.00  0.00    +0.191 C 
ENDROOT
BRANCH   3   7
ATOM      7  O   UNL     1      10.397   2.284  21.855  0.00  0.00    -0.383 OA
ATOM      8  H   UNL     1      10.003   1.625  21.257  0.00  0.00    +0.210 HD
ENDBRANCH   3   7
BRANCH   2   9
ATOM      9  O   UNL     1      11.677   0.900  24.160  0.00  0.00    -0.385 OA
ATOM     10  H   UNL     1      11.860   1.855  24.169  0.00  0.00    +0.210 HD
ENDBRANCH   2   9
BRANCH   4  11
ATOM     11  O   UNL     1       7.780   3.292  22.400  0.00  0.00    -0.453 OA
BRANCH  11  12
ATOM     12  C   UNL     1       6.750   4.065  22.904  0.00  0.00    +0.214 A 
ATOM     13  C   UNL     1       5.338   3.683  22.586  0.00  0.00    +0.238 A 
ATOM     14  O   UNL     1       5.005   2.540  22.297  0.00  0.00    -0.283 OA
ATOM     15  C   UNL     1       4.293   4.676  22.780  0.00  0.00    +0.109 A 
ATOM     16  C   UNL     1       4.578   5.730  23.634  0.00  0.00    +0.147 A 
ATOM     17  C   UNL     1       3.537   6.579  24.030  0.00  0.00    +0.092 A 
ATOM     18  C   UNL     1       2.243   6.348  23.548  0.00  0.00    +0.124 A 
ATOM     19  C   UNL     1       1.970   5.325  22.656  0.00  0.00    +0.091 A 
ATOM     20  O   UNL     1       5.836   5.951  24.138  0.00  0.00    -0.451 OA
ATOM     21  C   UNL     1       3.002   4.489  22.260  0.00  0.00    +0.135 A 
ATOM     22  C   UNL     1       6.927   5.175  23.690  0.00  0.00    +0.181 A 
BRANCH  22  23
ATOM     23  C   UNL     1       8.250   5.719  24.238  0.00  0.00    +0.025 A 
ATOM     24  C   UNL     1       9.404   5.851  23.442  0.00  0.00    +0.015 A 
ATOM     25  C   UNL     1      10.626   6.336  23.946  0.00  0.00    +0.050 A 
ATOM     26  C   UNL     1      10.736   6.672  25.277  0.00  0.00    +0.158 A 
ATOM     27  C   UNL     1       9.636   6.543  26.120  0.00  0.00    +0.159 A 
ATOM     28  C   UNL     1       8.406   6.083  25.610  0.00  0.00    +0.060 A 
BRANCH  27  29
ATOM     29  O   UNL     1       9.829   6.874  27.435  0.00  0.00    -0.503 OA
ATOM     30  H   UNL     1       9.995   7.829  27.502  0.00  0.00    +0.292 HD
ENDBRANCH  27  29
BRANCH  26  31
ATOM     31  O   UNL     1      11.939   7.108  25.759  0.00  0.00    -0.503 OA
ATOM     32  H   UNL     1      12.006   6.740  26.661  0.00  0.00    +0.292 HD
ENDBRANCH  26  31
ENDBRANCH  22  23
BRANCH  21  33
ATOM     33  O   UNL     1       2.760   3.525  21.331  0.00  0.00    -0.506 OA
ATOM     34  H   UNL     1       1.951   3.037  21.545  0.00  0.00    +0.292 HD
ENDBRANCH  21  33
BRANCH  18  35
ATOM     35  O   UNL     1       1.181   7.107  23.935  0.00  0.00    -0.507 OA
ATOM     36  H   UNL     1       0.621   7.285  23.163  0.00  0.00    +0.292 HD
ENDBRANCH  18  35
ENDBRANCH  11  12
ENDBRANCH   4  11
BRANCH   1  37
ATOM     37  O   UNL     1       9.803  -1.320  25.003  0.00  0.00    -0.453 OA
BRANCH  37  38
ATOM     38  C   UNL     1       9.760  -2.093  23.889  0.00  0.00    +0.332 C 
ATOM     39  O   UNL     1      10.563  -2.032  22.964  0.00  0.00    -0.246 OA
BRANCH  38  41
ATOM     40  C   UNL     1       7.772  -3.430  24.775  0.00  0.00    +0.015 C 
ATOM     41  C   UNL     1       8.684  -3.106  23.845  0.00  0.00    +0.092 C 
BRANCH  40  43
ATOM     42  C   UNL     1       6.427  -4.955  23.305  0.00  0.00    +0.011 A 
ATOM     43  C   UNL     1       6.830  -4.562  24.591  0.00  0.00    -0.025 A 
ATOM     44  C   UNL     1       6.253  -5.223  25.690  0.00  0.00    +0.011 A 
ATOM     45  C   UNL     1       5.322  -6.253  25.510  0.00  0.00    +0.046 A 
ATOM     46  C   UNL     1       4.943  -6.624  24.229  0.00  0.00    +0.117 A 
ATOM     47  C   UNL     1       5.488  -5.986  23.122  0.00  0.00    +0.046 A 
BRANCH  46  48
ATOM     48  O   UNL     1       4.016  -7.617  24.107  0.00  0.00    -0.507 OA
ATOM     49  H   UNL     1       4.424  -8.378  23.662  0.00  0.00    +0.292 HD
ENDBRANCH  46  48
ENDBRANCH  40  43
ENDBRANCH  38  41
ENDBRANCH  37  38
ENDBRANCH   1  37
BRANCH   6  50
ATOM     50  C   UNL     1       7.318   0.217  26.157  0.00  0.00    +0.191 C 
BRANCH  50  51
ATOM     51  O   UNL     1       8.303  -0.012  27.163  0.00  0.00    -0.392 OA
ATOM     52  H   UNL     1       9.025   0.623  27.013  0.00  0.00    +0.210 HD
ENDBRANCH  50  51
ENDBRANCH   6  50
TORSDOF 16
ENDMDL
