MODEL 1
REMARK VINA RESULT:      -6.9      0.000      0.000
REMARK  Name = 
REMARK  17 active torsions:
REMARK  status: ('A' for Active; 'I' for Inactive)
REMARK    1  A    between atoms: C_1  and  C_2
REMARK    2  A    between atoms: C_4  and  O_52
REMARK    3  A    between atoms: C_6  and  O_51
REMARK    4  A    between atoms: C_8  and  O_50
REMARK    5  A    between atoms: C_10  and  O_13
REMARK    6  A    between atoms: O_13  and  C_14
REMARK    7  A    between atoms: C_15  and  C_42
REMARK    8  A    between atoms: C_19  and  O_26
REMARK    9  A    between atoms: C_21  and  O_25
REMARK   10  A    between atoms: O_26  and  C_27
REMARK   11  A    between atoms: C_28  and  O_41
REMARK   12  A    between atoms: C_30  and  O_40
REMARK   13  A    between atoms: C_32  and  O_39
REMARK   14  A    between atoms: C_34  and  C_37
REMARK   15  A    between atoms: C_37  and  O_38
REMARK   16  A    between atoms: C_44  and  O_49
REMARK   17  A    between atoms: C_45  and  O_48
REMARK                            x       y       z     vdW  Elec       q    Type
REMARK                         _______ _______ _______ _____ _____    ______ ____
ROOT
ATOM      1  C   UNL     1       6.235  -2.201  26.156  0.00  0.00    +0.214 A 
ATOM      2  C   UNL     1       6.310  -1.063  27.149  0.00  0.00    +0.238 A 
ATOM      3  O   UNL     1       5.931  -1.242  28.306  0.00  0.00    -0.283 OA
ATOM      4  C   UNL     1       6.798   0.247  26.680  0.00  0.00    +0.109 A 
ATOM      5  C   UNL     1       7.347   0.290  25.411  0.00  0.00    +0.147 A 
ATOM      6  C   UNL     1       7.770   1.514  24.865  0.00  0.00    +0.093 A 
ATOM      7  C   UNL     1       7.666   2.701  25.601  0.00  0.00    +0.131 A 
ATOM      8  C   UNL     1       7.167   2.656  26.901  0.00  0.00    +0.092 A 
ATOM      9  O   UNL     1       7.543  -0.829  24.641  0.00  0.00    -0.451 OA
ATOM     10  C   UNL     1       6.723   1.435  27.435  0.00  0.00    +0.135 A 
ATOM     11  C   UNL     1       6.936  -2.047  24.989  0.00  0.00    +0.181 A 
ENDROOT
BRANCH  11  12
ATOM     12  C   UNL     1       7.111  -3.022  23.836  0.00  0.00    +0.025 A 
ATOM     13  C   UNL     1       7.982  -4.128  23.887  0.00  0.00    +0.015 A 
ATOM     14  C   UNL     1       7.839  -5.221  23.017  0.00  0.00    +0.050 A 
ATOM     15  C   UNL     1       7.003  -5.107  21.923  0.00  0.00    +0.158 A 
ATOM     16  C   UNL     1       6.351  -3.904  21.689  0.00  0.00    +0.159 A 
ATOM     17  C   UNL     1       6.360  -2.882  22.649  0.00  0.00    +0.060 A 
BRANCH  16  18
ATOM     18  O   UNL     1       5.693  -3.767  20.495  0.00  0.00    -0.503 OA
ATOM     19  H   UNL     1       6.216  -4.242  19.827  0.00  0.00    +0.292 HD
ENDBRANCH  16  18
BRANCH  15  20
ATOM     20  O   UNL     1       6.857  -6.160  21.073  0.00  0.00    -0.503 OA
ATOM     21  H   UNL     1       7.283  -6.916  21.526  0.00  0.00    +0.292 HD
ENDBRANCH  15  20
ENDBRANCH  11  12
BRANCH  10  22
ATOM     22  O   UNL     1       6.202   1.436  28.700  0.00  0.00    -0.506 OA
ATOM     23  H   UNL     1       6.259   2.322  29.098  0.00  0.00    +0.292 HD
ENDBRANCH  10  22
BRANCH   7  24
ATOM     24  O   UNL     1       8.077   3.936  25.143  0.00  0.00    -0.461 OA
BRANCH  24  25
ATOM     25  C   UNL     1       8.058   4.058  23.711  0.00  0.00    +0.339 C 
ATOM     26  O   UNL     1       9.080   4.927  23.212  0.00  0.00    -0.331 OA
ATOM     27  C   UNL     1       8.838   6.343  23.247  0.00  0.00    +0.179 C 
ATOM     28  C   UNL     1       7.483   6.698  22.600  0.00  0.00    +0.177 C 
ATOM     29  C   UNL     1       6.340   5.921  23.251  0.00  0.00    +0.180 C 
ATOM     30  C   UNL     1       6.632   4.414  23.216  0.00  0.00    +0.214 C 
BRANCH  29  31
ATOM     31  O   UNL     1       6.065   6.422  24.557  0.00  0.00    -0.386 OA
ATOM     32  H   UNL     1       5.388   5.867  24.987  0.00  0.00    +0.210 HD
ENDBRANCH  29  31
BRANCH  30  33
ATOM     33  O   UNL     1       6.468   3.951  21.860  0.00  0.00    -0.383 OA
ATOM     34  H   UNL     1       6.180   4.728  21.334  0.00  0.00    +0.210 HD
ENDBRANCH  30  33
BRANCH  28  35
ATOM     35  O   UNL     1       7.568   6.349  21.204  0.00  0.00    -0.386 OA
ATOM     36  H   UNL     1       7.308   5.414  21.122  0.00  0.00    +0.210 HD
ENDBRANCH  28  35
BRANCH  27  37
ATOM     37  C   UNL     1       9.041   6.984  24.639  0.00  0.00    +0.190 C 
BRANCH  37  38
ATOM     38  O   UNL     1      10.060   6.325  25.387  0.00  0.00    -0.392 OA
ATOM     39  H   UNL     1      10.651   7.000  25.757  0.00  0.00    +0.210 HD
ENDBRANCH  37  38
ENDBRANCH  27  37
ENDBRANCH  24  25
ENDBRANCH   7  24
BRANCH   1  40
ATOM     40  O   UNL     1       5.423  -3.215  26.651  0.00  0.00    -0.453 OA
BRANCH  40  44
ATOM     41  C   UNL     1       4.193  -4.143  29.552  0.00  0.00    +0.041 C 
ATOM     42  C   UNL     1       5.092  -5.259  29.033  0.00  0.00    +0.150 C 
ATOM     43  O   UNL     1       6.162  -4.824  28.185  0.00  0.00    -0.334 OA
ATOM     44  C   UNL     1       5.865  -4.547  26.811  0.00  0.00    +0.339 C 
ATOM     45  C   UNL     1       4.998  -5.602  26.107  0.00  0.00    +0.214 C 
ATOM     46  C   UNL     1       3.844  -6.084  26.974  0.00  0.00    +0.180 C 
ATOM     47  C   UNL     1       4.368  -6.437  28.373  0.00  0.00    +0.174 C 
BRANCH  47  48
ATOM     48  O   UNL     1       5.318  -7.517  28.259  0.00  0.00    -0.387 OA
ATOM     49  H   UNL     1       5.528  -7.646  27.306  0.00  0.00    +0.210 HD
ENDBRANCH  47  48
BRANCH  46  50
ATOM     50  O   UNL     1       2.773  -5.141  27.016  0.00  0.00    -0.386 OA
ATOM     51  H   UNL     1       2.592  -4.885  27.938  0.00  0.00    +0.210 HD
ENDBRANCH  46  50
BRANCH  45  52
ATOM     52  O   UNL     1       4.588  -5.177  24.805  0.00  0.00    -0.383 OA
ATOM     53  H   UNL     1       3.624  -5.294  24.747  0.00  0.00    +0.210 HD
ENDBRANCH  45  52
ENDBRANCH  40  44
ENDBRANCH   1  40
TORSDOF 16
ENDMDL
MODEL 2
REMARK VINA RESULT:      -6.8      1.199      1.970
REMARK  Name = 
REMARK  17 active torsions:
REMARK  status: ('A' for Active; 'I' for Inactive)
REMARK    1  A    between atoms: C_1  and  C_2
REMARK    2  A    between atoms: C_4  and  O_52
REMARK    3  A    between atoms: C_6  and  O_51
REMARK    4  A    between atoms: C_8  and  O_50
REMARK    5  A    between atoms: C_10  and  O_13
REMARK    6  A    between atoms: O_13  and  C_14
REMARK    7  A    between atoms: C_15  and  C_42
REMARK    8  A    between atoms: C_19  and  O_26
REMARK    9  A    between atoms: C_21  and  O_25
REMARK   10  A    between atoms: O_26  and  C_27
REMARK   11  A    between atoms: C_28  and  O_41
REMARK   12  A    between atoms: C_30  and  O_40
REMARK   13  A    between atoms: C_32  and  O_39
REMARK   14  A    between atoms: C_34  and  C_37
REMARK   15  A    between atoms: C_37  and  O_38
REMARK   16  A    between atoms: C_44  and  O_49
REMARK   17  A    between atoms: C_45  and  O_48
REMARK                            x       y       z     vdW  Elec       q    Type
REMARK                         _______ _______ _______ _____ _____    ______ ____
ROOT
ATOM      1  C   UNL     1       6.717  -1.945  25.795  0.00  0.00    +0.214 A 
ATOM      2  C   UNL     1       7.009  -0.661  26.537  0.00  0.00    +0.238 A 
ATOM      3  O   UNL     1       6.903  -0.633  27.763  0.00  0.00    -0.283 OA
ATOM      4  C   UNL     1       7.369   0.536  25.756  0.00  0.00    +0.109 A 
ATOM      5  C   UNL     1       7.616   0.349  24.408  0.00  0.00    +0.147 A 
ATOM      6  C   UNL     1       7.896   1.451  23.582  0.00  0.00    +0.093 A 
ATOM      7  C   UNL     1       7.955   2.747  24.110  0.00  0.00    +0.131 A 
ATOM      8  C   UNL     1       7.764   2.934  25.477  0.00  0.00    +0.092 A 
ATOM      9  O   UNL     1       7.639  -0.888  23.815  0.00  0.00    -0.451 OA
ATOM     10  C   UNL     1       7.460   1.835  26.296  0.00  0.00    +0.135 A 
ATOM     11  C   UNL     1       7.134  -2.011  24.491  0.00  0.00    +0.181 A 
ENDROOT
BRANCH  11  12
ATOM     12  C   UNL     1       7.049  -3.170  23.511  0.00  0.00    +0.025 A 
ATOM     13  C   UNL     1       7.501  -4.469  23.813  0.00  0.00    +0.015 A 
ATOM     14  C   UNL     1       7.059  -5.590  23.090  0.00  0.00    +0.050 A 
ATOM     15  C   UNL     1       6.379  -5.402  21.902  0.00  0.00    +0.158 A 
ATOM     16  C   UNL     1       6.178  -4.111  21.431  0.00  0.00    +0.159 A 
ATOM     17  C   UNL     1       6.465  -3.000  22.237  0.00  0.00    +0.060 A 
BRANCH  16  18
ATOM     18  O   UNL     1       5.680  -3.974  20.163  0.00  0.00    -0.503 OA
ATOM     19  H   UNL     1       6.294  -4.435  19.566  0.00  0.00    +0.292 HD
ENDBRANCH  16  18
BRANCH  15  20
ATOM     20  O   UNL     1       5.948  -6.481  21.194  0.00  0.00    -0.503 OA
ATOM     21  H   UNL     1       5.447  -7.025  21.836  0.00  0.00    +0.292 HD
ENDBRANCH  15  20
ENDBRANCH  11  12
BRANCH  10  22
ATOM     22  O   UNL     1       7.240   2.063  27.627  0.00  0.00    -0.506 OA
ATOM     23  H   UNL     1       7.758   1.448  28.175  0.00  0.00    +0.292 HD
ENDBRANCH  10  22
BRANCH   7  24
ATOM     24  O   UNL     1       8.244   3.874  23.369  0.00  0.00    -0.461 OA
BRANCH  24  25
ATOM     25  C   UNL     1       7.236   4.202  22.398  0.00  0.00    +0.339 C 
ATOM     26  O   UNL     1       7.556   5.372  21.637  0.00  0.00    -0.331 OA
ATOM     27  C   UNL     1       7.282   6.655  22.223  0.00  0.00    +0.179 C 
ATOM     28  C   UNL     1       5.830   6.741  22.734  0.00  0.00    +0.177 C 
ATOM     29  C   UNL     1       5.519   5.606  23.709  0.00  0.00    +0.180 C 
ATOM     30  C   UNL     1       5.836   4.249  23.064  0.00  0.00    +0.214 C 
BRANCH  29  31
ATOM     31  O   UNL     1       6.174   5.816  24.957  0.00  0.00    -0.386 OA
ATOM     32  H   UNL     1       7.102   6.074  24.803  0.00  0.00    +0.210 HD
ENDBRANCH  29  31
BRANCH  30  33
ATOM     33  O   UNL     1       4.826   3.971  22.073  0.00  0.00    -0.383 OA
ATOM     34  H   UNL     1       4.788   4.758  21.486  0.00  0.00    +0.210 HD
ENDBRANCH  30  33
BRANCH  28  35
ATOM     35  O   UNL     1       4.963   6.642  21.588  0.00  0.00    -0.386 OA
ATOM     36  H   UNL     1       4.059   6.493  21.920  0.00  0.00    +0.210 HD
ENDBRANCH  28  35
BRANCH  27  37
ATOM     37  C   UNL     1       8.330   7.108  23.266  0.00  0.00    +0.190 C 
BRANCH  37  38
ATOM     38  O   UNL     1       9.581   6.448  23.087  0.00  0.00    -0.392 OA
ATOM     39  H   UNL     1       9.479   5.785  22.386  0.00  0.00    +0.210 HD
ENDBRANCH  37  38
ENDBRANCH  27  37
ENDBRANCH  24  25
ENDBRANCH   7  24
BRANCH   1  40
ATOM     40  O   UNL     1       6.045  -2.837  26.624  0.00  0.00    -0.453 OA
BRANCH  40  44
ATOM     41  C   UNL     1       5.732  -6.106  26.606  0.00  0.00    +0.041 C 
ATOM     42  C   UNL     1       4.353  -5.490  26.396  0.00  0.00    +0.150 C 
ATOM     43  O   UNL     1       4.359  -4.209  25.754  0.00  0.00    -0.334 OA
ATOM     44  C   UNL     1       4.652  -3.055  26.552  0.00  0.00    +0.339 C 
ATOM     45  C   UNL     1       3.919  -2.994  27.901  0.00  0.00    +0.214 C 
ATOM     46  C   UNL     1       3.899  -4.336  28.618  0.00  0.00    +0.180 C 
ATOM     47  C   UNL     1       3.458  -5.432  27.638  0.00  0.00    +0.174 C 
BRANCH  47  48
ATOM     48  O   UNL     1       2.117  -5.149  27.190  0.00  0.00    -0.387 OA
ATOM     49  H   UNL     1       2.139  -4.329  26.645  0.00  0.00    +0.210 HD
ENDBRANCH  47  48
BRANCH  46  50
ATOM     50  O   UNL     1       5.150  -4.632  29.239  0.00  0.00    -0.386 OA
ATOM     51  H   UNL     1       5.343  -5.584  29.162  0.00  0.00    +0.210 HD
ENDBRANCH  46  50
BRANCH  45  52
ATOM     52  O   UNL     1       4.394  -1.922  28.720  0.00  0.00    -0.383 OA
ATOM     53  H   UNL     1       4.347  -1.106  28.194  0.00  0.00    +0.210 HD
ENDBRANCH  45  52
ENDBRANCH  40  44
ENDBRANCH   1  40
TORSDOF 16
ENDMDL
MODEL 3
REMARK VINA RESULT:      -6.7      2.231      2.967
REMARK  Name = 
REMARK  17 active torsions:
REMARK  status: ('A' for Active; 'I' for Inactive)
REMARK    1  A    between atoms: C_1  and  C_2
REMARK    2  A    between atoms: C_4  and  O_52
REMARK    3  A    between atoms: C_6  and  O_51
REMARK    4  A    between atoms: C_8  and  O_50
REMARK    5  A    between atoms: C_10  and  O_13
REMARK    6  A    between atoms: O_13  and  C_14
REMARK    7  A    between atoms: C_15  and  C_42
REMARK    8  A    between atoms: C_19  and  O_26
REMARK    9  A    between atoms: C_21  and  O_25
REMARK   10  A    between atoms: O_26  and  C_27
REMARK   11  A    between atoms: C_28  and  O_41
REMARK   12  A    between atoms: C_30  and  O_40
REMARK   13  A    between atoms: C_32  and  O_39
REMARK   14  A    between atoms: C_34  and  C_37
REMARK   15  A    between atoms: C_37  and  O_38
REMARK   16  A    between atoms: C_44  and  O_49
REMARK   17  A    between atoms: C_45  and  O_48
REMARK                            x       y       z     vdW  Elec       q    Type
REMARK                         _______ _______ _______ _____ _____    ______ ____
ROOT
ATOM      1  C   UNL     1       4.904  -2.077  26.301  0.00  0.00    +0.214 A 
ATOM      2  C   UNL     1       4.039  -0.854  26.505  0.00  0.00    +0.238 A 
ATOM      3  O   UNL     1       2.852  -0.995  26.802  0.00  0.00    -0.283 OA
ATOM      4  C   UNL     1       4.641   0.475  26.296  0.00  0.00    +0.109 A 
ATOM      5  C   UNL     1       6.012   0.518  26.126  0.00  0.00    +0.147 A 
ATOM      6  C   UNL     1       6.652   1.739  25.851  0.00  0.00    +0.093 A 
ATOM      7  C   UNL     1       5.920   2.930  25.770  0.00  0.00    +0.131 A 
ATOM      8  C   UNL     1       4.546   2.901  25.997  0.00  0.00    +0.092 A 
ATOM      9  O   UNL     1       6.817  -0.587  26.247  0.00  0.00    -0.451 OA
ATOM     10  C   UNL     1       3.905   1.676  26.248  0.00  0.00    +0.135 A 
ATOM     11  C   UNL     1       6.259  -1.875  26.272  0.00  0.00    +0.181 A 
ENDROOT
BRANCH  11  12
ATOM     12  C   UNL     1       7.381  -2.893  26.149  0.00  0.00    +0.025 A 
ATOM     13  C   UNL     1       7.448  -4.065  26.928  0.00  0.00    +0.015 A 
ATOM     14  C   UNL     1       8.228  -5.166  26.539  0.00  0.00    +0.050 A 
ATOM     15  C   UNL     1       9.149  -5.014  25.520  0.00  0.00    +0.158 A 
ATOM     16  C   UNL     1       9.308  -3.768  24.928  0.00  0.00    +0.159 A 
ATOM     17  C   UNL     1       8.411  -2.725  25.199  0.00  0.00    +0.060 A 
BRANCH  16  18
ATOM     18  O   UNL     1      10.361  -3.610  24.067  0.00  0.00    -0.503 OA
ATOM     19  H   UNL     1      10.163  -2.835  23.516  0.00  0.00    +0.292 HD
ENDBRANCH  16  18
BRANCH  15  20
ATOM     20  O   UNL     1       9.911  -6.075  25.136  0.00  0.00    -0.503 OA
ATOM     21  H   UNL     1      10.837  -5.783  25.261  0.00  0.00    +0.292 HD
ENDBRANCH  15  20
ENDBRANCH  11  12
BRANCH  10  22
ATOM     22  O   UNL     1       2.549   1.683  26.426  0.00  0.00    -0.506 OA
ATOM     23  H   UNL     1       2.318   1.438  27.339  0.00  0.00    +0.292 HD
ENDBRANCH  10  22
BRANCH   7  24
ATOM     24  O   UNL     1       6.477   4.168  25.525  0.00  0.00    -0.461 OA
BRANCH  24  25
ATOM     25  C   UNL     1       7.557   4.139  24.577  0.00  0.00    +0.339 C 
ATOM     26  O   UNL     1       8.803   4.564  25.139  0.00  0.00    -0.331 OA
ATOM     27  C   UNL     1       9.051   5.975  25.243  0.00  0.00    +0.179 C 
ATOM     28  C   UNL     1       8.810   6.689  23.897  0.00  0.00    +0.177 C 
ATOM     29  C   UNL     1       7.405   6.407  23.366  0.00  0.00    +0.180 C 
ATOM     30  C   UNL     1       7.162   4.894  23.281  0.00  0.00    +0.214 C 
BRANCH  29  31
ATOM     31  O   UNL     1       6.425   7.105  24.130  0.00  0.00    -0.386 OA
ATOM     32  H   UNL     1       6.678   7.101  25.073  0.00  0.00    +0.210 HD
ENDBRANCH  29  31
BRANCH  30  33
ATOM     33  O   UNL     1       7.924   4.373  22.174  0.00  0.00    -0.383 OA
ATOM     34  H   UNL     1       8.869   4.547  22.380  0.00  0.00    +0.210 HD
ENDBRANCH  30  33
BRANCH  28  35
ATOM     35  O   UNL     1       9.787   6.189  22.963  0.00  0.00    -0.386 OA
ATOM     36  H   UNL     1       9.441   6.351  22.068  0.00  0.00    +0.210 HD
ENDBRANCH  28  35
BRANCH  27  37
ATOM     37  C   UNL     1       8.338   6.654  26.436  0.00  0.00    +0.190 C 
BRANCH  37  38
ATOM     38  O   UNL     1       8.170   5.763  27.535  0.00  0.00    -0.392 OA
ATOM     39  H   UNL     1       8.824   5.991  28.215  0.00  0.00    +0.210 HD
ENDBRANCH  37  38
ENDBRANCH  27  37
ENDBRANCH  24  25
ENDBRANCH   7  24
BRANCH   1  40
ATOM     40  O   UNL     1       4.108  -3.210  26.168  0.00  0.00    -0.453 OA
BRANCH  40  44
ATOM     41  C   UNL     1       4.728  -6.383  26.746  0.00  0.00    +0.041 C 
ATOM     42  C   UNL     1       4.453  -6.211  25.256  0.00  0.00    +0.150 C 
ATOM     43  O   UNL     1       4.794  -4.924  24.727  0.00  0.00    -0.334 OA
ATOM     44  C   UNL     1       3.872  -3.845  24.929  0.00  0.00    +0.339 C 
ATOM     45  C   UNL     1       2.401  -4.185  24.648  0.00  0.00    +0.214 C 
ATOM     46  C   UNL     1       1.997  -5.543  25.204  0.00  0.00    +0.180 C 
ATOM     47  C   UNL     1       3.042  -6.592  24.796  0.00  0.00    +0.174 C 
BRANCH  47  48
ATOM     48  O   UNL     1       3.070  -6.692  23.358  0.00  0.00    -0.387 OA
ATOM     49  H   UNL     1       2.252  -7.155  23.063  0.00  0.00    +0.210 HD
ENDBRANCH  47  48
BRANCH  46  50
ATOM     50  O   UNL     1       1.786  -5.506  26.615  0.00  0.00    -0.386 OA
ATOM     51  H   UNL     1       2.149  -6.310  27.027  0.00  0.00    +0.210 HD
ENDBRANCH  46  50
BRANCH  45  52
ATOM     52  O   UNL     1       1.522  -3.129  25.045  0.00  0.00    -0.383 OA
ATOM     53  H   UNL     1       1.278  -2.632  24.245  0.00  0.00    +0.210 HD
ENDBRANCH  45  52
ENDBRANCH  40  44
ENDBRANCH   1  40
TORSDOF 16
ENDMDL
MODEL 4
REMARK VINA RESULT:      -6.7      2.101      9.992
REMARK  Name = 
REMARK  17 active torsions:
REMARK  status: ('A' for Active; 'I' for Inactive)
REMARK    1  A    between atoms: C_1  and  C_2
REMARK    2  A    between atoms: C_4  and  O_52
REMARK    3  A    between atoms: C_6  and  O_51
REMARK    4  A    between atoms: C_8  and  O_50
REMARK    5  A    between atoms: C_10  and  O_13
REMARK    6  A    between atoms: O_13  and  C_14
REMARK    7  A    between atoms: C_15  and  C_42
REMARK    8  A    between atoms: C_19  and  O_26
REMARK    9  A    between atoms: C_21  and  O_25
REMARK   10  A    between atoms: O_26  and  C_27
REMARK   11  A    between atoms: C_28  and  O_41
REMARK   12  A    between atoms: C_30  and  O_40
REMARK   13  A    between atoms: C_32  and  O_39
REMARK   14  A    between atoms: C_34  and  C_37
REMARK   15  A    between atoms: C_37  and  O_38
REMARK   16  A    between atoms: C_44  and  O_49
REMARK   17  A    between atoms: C_45  and  O_48
REMARK                            x       y       z     vdW  Elec       q    Type
REMARK                         _______ _______ _______ _____ _____    ______ ____
ROOT
ATOM      1  C   UNL     1       8.560   1.741  25.215  0.00  0.00    +0.214 A 
ATOM      2  C   UNL     1       9.366   0.623  24.593  0.00  0.00    +0.238 A 
ATOM      3  O   UNL     1      10.462   0.874  24.091  0.00  0.00    -0.283 OA
ATOM      4  C   UNL     1       8.786  -0.732  24.569  0.00  0.00    +0.109 A 
ATOM      5  C   UNL     1       7.630  -0.928  25.302  0.00  0.00    +0.147 A 
ATOM      6  C   UNL     1       6.979  -2.173  25.274  0.00  0.00    +0.093 A 
ATOM      7  C   UNL     1       7.499  -3.238  24.528  0.00  0.00    +0.131 A 
ATOM      8  C   UNL     1       8.694  -3.063  23.834  0.00  0.00    +0.092 A 
ATOM      9  O   UNL     1       7.082   0.037  26.109  0.00  0.00    -0.451 OA
ATOM     10  C   UNL     1       9.330  -1.811  23.844  0.00  0.00    +0.135 A 
ATOM     11  C   UNL     1       7.509   1.371  26.014  0.00  0.00    +0.181 A 
ENDROOT
BRANCH  11  12
ATOM     12  C   UNL     1       6.562   2.243  26.821  0.00  0.00    +0.025 A 
ATOM     13  C   UNL     1       6.851   2.694  28.125  0.00  0.00    +0.015 A 
ATOM     14  C   UNL     1       6.188   3.798  28.687  0.00  0.00    +0.050 A 
ATOM     15  C   UNL     1       5.057   4.293  28.068  0.00  0.00    +0.158 A 
ATOM     16  C   UNL     1       4.579   3.667  26.924  0.00  0.00    +0.159 A 
ATOM     17  C   UNL     1       5.338   2.683  26.274  0.00  0.00    +0.060 A 
BRANCH  16  18
ATOM     18  O   UNL     1       3.353   4.060  26.456  0.00  0.00    -0.503 OA
ATOM     19  H   UNL     1       3.390   4.010  25.487  0.00  0.00    +0.292 HD
ENDBRANCH  16  18
BRANCH  15  20
ATOM     20  O   UNL     1       4.406   5.361  28.605  0.00  0.00    -0.503 OA
ATOM     21  H   UNL     1       4.199   5.098  29.525  0.00  0.00    +0.292 HD
ENDBRANCH  15  20
ENDBRANCH  11  12
BRANCH  10  22
ATOM     22  O   UNL     1      10.481  -1.667  23.118  0.00  0.00    -0.506 OA
ATOM     23  H   UNL     1      11.061  -2.440  23.230  0.00  0.00    +0.292 HD
ENDBRANCH  10  22
BRANCH   7  24
ATOM     24  O   UNL     1       6.929  -4.493  24.466  0.00  0.00    -0.461 OA
BRANCH  24  25
ATOM     25  C   UNL     1       6.028  -4.666  23.361  0.00  0.00    +0.339 C 
ATOM     26  O   UNL     1       4.866  -3.835  23.454  0.00  0.00    -0.331 OA
ATOM     27  C   UNL     1       3.784  -4.278  24.290  0.00  0.00    +0.179 C 
ATOM     28  C   UNL     1       3.370  -5.725  23.954  0.00  0.00    +0.177 C 
ATOM     29  C   UNL     1       4.565  -6.675  24.038  0.00  0.00    +0.180 C 
ATOM     30  C   UNL     1       5.710  -6.170  23.149  0.00  0.00    +0.214 C 
BRANCH  29  31
ATOM     31  O   UNL     1       4.943  -6.895  25.394  0.00  0.00    -0.386 OA
ATOM     32  H   UNL     1       5.415  -7.745  25.471  0.00  0.00    +0.210 HD
ENDBRANCH  29  31
BRANCH  30  33
ATOM     33  O   UNL     1       5.348  -6.392  21.772  0.00  0.00    -0.383 OA
ATOM     34  H   UNL     1       4.738  -7.161  21.765  0.00  0.00    +0.210 HD
ENDBRANCH  30  33
BRANCH  28  35
ATOM     35  O   UNL     1       2.850  -5.724  22.610  0.00  0.00    -0.386 OA
ATOM     36  H   UNL     1       1.958  -6.111  22.644  0.00  0.00    +0.210 HD
ENDBRANCH  28  35
BRANCH  27  37
ATOM     37  C   UNL     1       4.015  -4.039  25.800  0.00  0.00    +0.190 C 
BRANCH  37  38
ATOM     38  O   UNL     1       3.132  -4.816  26.605  0.00  0.00    -0.392 OA
ATOM     39  H   UNL     1       2.629  -5.407  26.023  0.00  0.00    +0.210 HD
ENDBRANCH  37  38
ENDBRANCH  27  37
ENDBRANCH  24  25
ENDBRANCH   7  24
BRANCH   1  40
ATOM     40  O   UNL     1       9.068   2.974  24.822  0.00  0.00    -0.453 OA
BRANCH  40  44
ATOM     41  C   UNL     1       7.396   5.715  25.516  0.00  0.00    +0.041 C 
ATOM     42  C   UNL     1       7.428   5.542  24.002  0.00  0.00    +0.150 C 
ATOM     43  O   UNL     1       7.516   4.184  23.553  0.00  0.00    -0.334 OA
ATOM     44  C   UNL     1       8.802   3.552  23.562  0.00  0.00    +0.339 C 
ATOM     45  C   UNL     1       9.947   4.398  22.985  0.00  0.00    +0.214 C 
ATOM     46  C   UNL     1       9.893   5.847  23.446  0.00  0.00    +0.180 C 
ATOM     47  C   UNL     1       8.469   6.390  23.262  0.00  0.00    +0.174 C 
BRANCH  47  48
ATOM     48  O   UNL     1       8.132   6.358  21.860  0.00  0.00    -0.387 OA
ATOM     49  H   UNL     1       8.116   5.418  21.566  0.00  0.00    +0.210 HD
ENDBRANCH  47  48
BRANCH  46  50
ATOM     50  O   UNL     1      10.367   6.004  24.784  0.00  0.00    -0.386 OA
ATOM     51  H   UNL     1       9.628   6.245  25.372  0.00  0.00    +0.210 HD
ENDBRANCH  46  50
BRANCH  45  52
ATOM     52  O   UNL     1      11.222   3.786  23.192  0.00  0.00    -0.383 OA
ATOM     53  H   UNL     1      11.245   2.966  22.669  0.00  0.00    +0.210 HD
ENDBRANCH  45  52
ENDBRANCH  40  44
ENDBRANCH   1  40
TORSDOF 16
ENDMDL
MODEL 5
REMARK VINA RESULT:      -6.6      1.253      1.961
REMARK  Name = 
REMARK  17 active torsions:
REMARK  status: ('A' for Active; 'I' for Inactive)
REMARK    1  A    between atoms: C_1  and  C_2
REMARK    2  A    between atoms: C_4  and  O_52
REMARK    3  A    between atoms: C_6  and  O_51
REMARK    4  A    between atoms: C_8  and  O_50
REMARK    5  A    between atoms: C_10  and  O_13
REMARK    6  A    between atoms: O_13  and  C_14
REMARK    7  A    between atoms: C_15  and  C_42
REMARK    8  A    between atoms: C_19  and  O_26
REMARK    9  A    between atoms: C_21  and  O_25
REMARK   10  A    between atoms: O_26  and  C_27
REMARK   11  A    between atoms: C_28  and  O_41
REMARK   12  A    between atoms: C_30  and  O_40
REMARK   13  A    between atoms: C_32  and  O_39
REMARK   14  A    between atoms: C_34  and  C_37
REMARK   15  A    between atoms: C_37  and  O_38
REMARK   16  A    between atoms: C_44  and  O_49
REMARK   17  A    between atoms: C_45  and  O_48
REMARK                            x       y       z     vdW  Elec       q    Type
REMARK                         _______ _______ _______ _____ _____    ______ ____
ROOT
ATOM      1  C   UNL     1       5.870  -1.986  26.109  0.00  0.00    +0.214 A 
ATOM      2  C   UNL     1       5.918  -0.800  27.046  0.00  0.00    +0.238 A 
ATOM      3  O   UNL     1       5.354  -0.868  28.138  0.00  0.00    -0.283 OA
ATOM      4  C   UNL     1       6.606   0.424  26.596  0.00  0.00    +0.109 A 
ATOM      5  C   UNL     1       7.339   0.332  25.427  0.00  0.00    +0.147 A 
ATOM      6  C   UNL     1       7.966   1.472  24.895  0.00  0.00    +0.093 A 
ATOM      7  C   UNL     1       7.881   2.708  25.549  0.00  0.00    +0.131 A 
ATOM      8  C   UNL     1       7.193   2.793  26.756  0.00  0.00    +0.092 A 
ATOM      9  O   UNL     1       7.527  -0.848  24.751  0.00  0.00    -0.451 OA
ATOM     10  C   UNL     1       6.547   1.658  27.273  0.00  0.00    +0.135 A 
ATOM     11  C   UNL     1       6.749  -1.975  25.058  0.00  0.00    +0.181 A 
ENDROOT
BRANCH  11  12
ATOM     12  C   UNL     1       6.988  -3.034  23.994  0.00  0.00    +0.025 A 
ATOM     13  C   UNL     1       7.892  -4.102  24.158  0.00  0.00    +0.015 A 
ATOM     14  C   UNL     1       7.809  -5.266  23.376  0.00  0.00    +0.050 A 
ATOM     15  C   UNL     1       7.002  -5.269  22.255  0.00  0.00    +0.158 A 
ATOM     16  C   UNL     1       6.319  -4.111  21.906  0.00  0.00    +0.159 A 
ATOM     17  C   UNL     1       6.269  -3.016  22.779  0.00  0.00    +0.060 A 
BRANCH  16  18
ATOM     18  O   UNL     1       5.693  -4.094  20.687  0.00  0.00    -0.503 OA
ATOM     19  H   UNL     1       5.997  -4.878  20.201  0.00  0.00    +0.292 HD
ENDBRANCH  16  18
BRANCH  15  20
ATOM     20  O   UNL     1       6.915  -6.392  21.490  0.00  0.00    -0.503 OA
ATOM     21  H   UNL     1       7.779  -6.459  21.035  0.00  0.00    +0.292 HD
ENDBRANCH  15  20
ENDBRANCH  11  12
BRANCH  10  22
ATOM     22  O   UNL     1       5.847   1.790  28.441  0.00  0.00    -0.506 OA
ATOM     23  H   UNL     1       6.433   2.067  29.167  0.00  0.00    +0.292 HD
ENDBRANCH  10  22
BRANCH   7  24
ATOM     24  O   UNL     1       8.485   3.864  25.101  0.00  0.00    -0.461 OA
BRANCH  24  25
ATOM     25  C   UNL     1       8.410   4.043  23.677  0.00  0.00    +0.339 C 
ATOM     26  O   UNL     1       9.301   5.053  23.194  0.00  0.00    -0.331 OA
ATOM     27  C   UNL     1       8.886   6.425  23.298  0.00  0.00    +0.179 C 
ATOM     28  C   UNL     1       7.481   6.634  22.699  0.00  0.00    +0.177 C 
ATOM     29  C   UNL     1       6.461   5.694  23.341  0.00  0.00    +0.180 C 
ATOM     30  C   UNL     1       6.937   4.238  23.231  0.00  0.00    +0.214 C 
BRANCH  29  31
ATOM     31  O   UNL     1       6.164   6.102  24.674  0.00  0.00    -0.386 OA
ATOM     32  H   UNL     1       6.950   5.981  25.238  0.00  0.00    +0.210 HD
ENDBRANCH  29  31
BRANCH  30  33
ATOM     33  O   UNL     1       6.793   3.816  21.860  0.00  0.00    -0.383 OA
ATOM     34  H   UNL     1       7.668   3.465  21.584  0.00  0.00    +0.210 HD
ENDBRANCH  30  33
BRANCH  28  35
ATOM     35  O   UNL     1       7.568   6.358  21.288  0.00  0.00    -0.386 OA
ATOM     36  H   UNL     1       7.941   7.149  20.860  0.00  0.00    +0.210 HD
ENDBRANCH  28  35
BRANCH  27  37
ATOM     37  C   UNL     1       9.048   7.028  24.713  0.00  0.00    +0.190 C 
BRANCH  37  38
ATOM     38  O   UNL     1      10.138   6.442  25.421  0.00  0.00    -0.392 OA
ATOM     39  H   UNL     1      10.529   7.120  25.994  0.00  0.00    +0.210 HD
ENDBRANCH  37  38
ENDBRANCH  27  37
ENDBRANCH  24  25
ENDBRANCH   7  24
BRANCH   1  40
ATOM     40  O   UNL     1       4.890  -2.883  26.521  0.00  0.00    -0.453 OA
BRANCH  40  44
ATOM     41  C   UNL     1       4.611  -5.869  25.184  0.00  0.00    +0.041 C 
ATOM     42  C   UNL     1       3.361  -5.069  24.837  0.00  0.00    +0.150 C 
ATOM     43  O   UNL     1       3.557  -3.652  24.756  0.00  0.00    -0.334 OA
ATOM     44  C   UNL     1       3.587  -2.904  25.978  0.00  0.00    +0.339 C 
ATOM     45  C   UNL     1       2.476  -3.250  26.980  0.00  0.00    +0.214 C 
ATOM     46  C   UNL     1       2.242  -4.749  27.101  0.00  0.00    +0.180 C 
ATOM     47  C   UNL     1       2.128  -5.362  25.699  0.00  0.00    +0.174 C 
BRANCH  47  48
ATOM     48  O   UNL     1       0.987  -4.789  25.027  0.00  0.00    -0.387 OA
ATOM     49  H   UNL     1       1.230  -3.886  24.720  0.00  0.00    +0.210 HD
ENDBRANCH  47  48
BRANCH  46  50
ATOM     50  O   UNL     1       3.244  -5.386  27.894  0.00  0.00    -0.386 OA
ATOM     51  H   UNL     1       3.456  -4.835  28.669  0.00  0.00    +0.210 HD
ENDBRANCH  46  50
BRANCH  45  52
ATOM     52  O   UNL     1       2.672  -2.605  28.242  0.00  0.00    -0.383 OA
ATOM     53  H   UNL     1       3.606  -2.341  28.296  0.00  0.00    +0.210 HD
ENDBRANCH  45  52
ENDBRANCH  40  44
ENDBRANCH   1  40
TORSDOF 16
ENDMDL
MODEL 6
REMARK VINA RESULT:      -6.5      1.122      2.003
REMARK  Name = 
REMARK  17 active torsions:
REMARK  status: ('A' for Active; 'I' for Inactive)
REMARK    1  A    between atoms: C_1  and  C_2
REMARK    2  A    between atoms: C_4  and  O_52
REMARK    3  A    between atoms: C_6  and  O_51
REMARK    4  A    between atoms: C_8  and  O_50
REMARK    5  A    between atoms: C_10  and  O_13
REMARK    6  A    between atoms: O_13  and  C_14
REMARK    7  A    between atoms: C_15  and  C_42
REMARK    8  A    between atoms: C_19  and  O_26
REMARK    9  A    between atoms: C_21  and  O_25
REMARK   10  A    between atoms: O_26  and  C_27
REMARK   11  A    between atoms: C_28  and  O_41
REMARK   12  A    between atoms: C_30  and  O_40
REMARK   13  A    between atoms: C_32  and  O_39
REMARK   14  A    between atoms: C_34  and  C_37
REMARK   15  A    between atoms: C_37  and  O_38
REMARK   16  A    between atoms: C_44  and  O_49
REMARK   17  A    between atoms: C_45  and  O_48
REMARK                            x       y       z     vdW  Elec       q    Type
REMARK                         _______ _______ _______ _____ _____    ______ ____
ROOT
ATOM      1  C   UNL     1       5.547  -2.102  26.070  0.00  0.00    +0.214 A 
ATOM      2  C   UNL     1       5.323  -0.850  26.887  0.00  0.00    +0.238 A 
ATOM      3  O   UNL     1       4.962  -0.949  28.060  0.00  0.00    -0.283 OA
ATOM      4  C   UNL     1       5.501   0.458  26.231  0.00  0.00    +0.109 A 
ATOM      5  C   UNL     1       6.062   0.451  24.968  0.00  0.00    +0.147 A 
ATOM      6  C   UNL     1       6.201   1.650  24.249  0.00  0.00    +0.093 A 
ATOM      7  C   UNL     1       5.798   2.871  24.806  0.00  0.00    +0.131 A 
ATOM      8  C   UNL     1       5.285   2.892  26.101  0.00  0.00    +0.092 A 
ATOM      9  O   UNL     1       6.540  -0.687  24.367  0.00  0.00    -0.451 OA
ATOM     10  C   UNL     1       5.126   1.689  26.808  0.00  0.00    +0.135 A 
ATOM     11  C   UNL     1       6.227  -1.953  24.889  0.00  0.00    +0.181 A 
ENDROOT
BRANCH  11  12
ATOM     12  C   UNL     1       6.662  -3.012  23.889  0.00  0.00    +0.025 A 
ATOM     13  C   UNL     1       7.669  -3.959  24.158  0.00  0.00    +0.015 A 
ATOM     14  C   UNL     1       7.776  -5.151  23.422  0.00  0.00    +0.050 A 
ATOM     15  C   UNL     1       7.056  -5.287  22.250  0.00  0.00    +0.158 A 
ATOM     16  C   UNL     1       6.272  -4.230  21.808  0.00  0.00    +0.159 A 
ATOM     17  C   UNL     1       6.034  -3.119  22.630  0.00  0.00    +0.060 A 
BRANCH  16  18
ATOM     18  O   UNL     1       5.736  -4.327  20.551  0.00  0.00    -0.503 OA
ATOM     19  H   UNL     1       5.771  -5.266  20.300  0.00  0.00    +0.292 HD
ENDBRANCH  16  18
BRANCH  15  20
ATOM     20  O   UNL     1       7.154  -6.437  21.529  0.00  0.00    -0.503 OA
ATOM     21  H   UNL     1       6.466  -6.364  20.836  0.00  0.00    +0.292 HD
ENDBRANCH  15  20
ENDBRANCH  11  12
BRANCH  10  22
ATOM     22  O   UNL     1       4.582   1.745  28.062  0.00  0.00    -0.506 OA
ATOM     23  H   UNL     1       5.254   1.559  28.740  0.00  0.00    +0.292 HD
ENDBRANCH  10  22
BRANCH   7  24
ATOM     24  O   UNL     1       5.920   4.090  24.172  0.00  0.00    -0.461 OA
BRANCH  24  25
ATOM     25  C   UNL     1       6.703   5.047  24.903  0.00  0.00    +0.339 C 
ATOM     26  O   UNL     1       6.651   6.360  24.335  0.00  0.00    -0.331 OA
ATOM     27  C   UNL     1       7.507   6.647  23.218  0.00  0.00    +0.179 C 
ATOM     28  C   UNL     1       8.970   6.261  23.517  0.00  0.00    +0.177 C 
ATOM     29  C   UNL     1       9.079   4.797  23.942  0.00  0.00    +0.180 C 
ATOM     30  C   UNL     1       8.143   4.515  25.125  0.00  0.00    +0.214 C 
BRANCH  29  31
ATOM     31  O   UNL     1       8.877   3.930  22.829  0.00  0.00    -0.386 OA
ATOM     32  H   UNL     1       7.925   3.742  22.727  0.00  0.00    +0.210 HD
ENDBRANCH  29  31
BRANCH  30  33
ATOM     33  O   UNL     1       8.703   5.128  26.304  0.00  0.00    -0.383 OA
ATOM     34  H   UNL     1       9.118   5.968  26.010  0.00  0.00    +0.210 HD
ENDBRANCH  30  33
BRANCH  28  35
ATOM     35  O   UNL     1       9.429   7.108  24.588  0.00  0.00    -0.386 OA
ATOM     36  H   UNL     1       9.014   6.788  25.409  0.00  0.00    +0.210 HD
ENDBRANCH  28  35
BRANCH  27  37
ATOM     37  C   UNL     1       6.990   6.096  21.869  0.00  0.00    +0.190 C 
BRANCH  37  38
ATOM     38  O   UNL     1       5.567   6.000  21.842  0.00  0.00    -0.392 OA
ATOM     39  H   UNL     1       5.249   6.427  21.030  0.00  0.00    +0.210 HD
ENDBRANCH  37  38
ENDBRANCH  27  37
ENDBRANCH  24  25
ENDBRANCH   7  24
BRANCH   1  40
ATOM     40  O   UNL     1       4.984  -3.200  26.710  0.00  0.00    -0.453 OA
BRANCH  40  44
ATOM     41  C   UNL     1       4.023  -4.138  29.708  0.00  0.00    +0.041 C 
ATOM     42  C   UNL     1       5.119  -5.087  29.236  0.00  0.00    +0.150 C 
ATOM     43  O   UNL     1       6.062  -4.510  28.324  0.00  0.00    -0.334 OA
ATOM     44  C   UNL     1       5.688  -4.401  26.945  0.00  0.00    +0.339 C 
ATOM     45  C   UNL     1       5.039  -5.657  26.345  0.00  0.00    +0.214 C 
ATOM     46  C   UNL     1       4.023  -6.295  27.281  0.00  0.00    +0.180 C 
ATOM     47  C   UNL     1       4.636  -6.432  28.683  0.00  0.00    +0.174 C 
BRANCH  47  48
ATOM     48  O   UNL     1       5.782  -7.305  28.611  0.00  0.00    -0.387 OA
ATOM     49  H   UNL     1       6.498  -6.923  29.168  0.00  0.00    +0.210 HD
ENDBRANCH  47  48
BRANCH  46  50
ATOM     50  O   UNL     1       2.785  -5.585  27.296  0.00  0.00    -0.386 OA
ATOM     51  H   UNL     1       2.128  -6.073  27.824  0.00  0.00    +0.210 HD
ENDBRANCH  46  50
BRANCH  45  52
ATOM     52  O   UNL     1       4.526  -5.420  25.031  0.00  0.00    -0.383 OA
ATOM     53  H   UNL     1       3.556  -5.461  25.082  0.00  0.00    +0.210 HD
ENDBRANCH  45  52
ENDBRANCH  40  44
ENDBRANCH   1  40
TORSDOF 16
ENDMDL
MODEL 7
REMARK VINA RESULT:      -6.4      1.896     10.316
REMARK  Name = 
REMARK  17 active torsions:
REMARK  status: ('A' for Active; 'I' for Inactive)
REMARK    1  A    between atoms: C_1  and  C_2
REMARK    2  A    between atoms: C_4  and  O_52
REMARK    3  A    between atoms: C_6  and  O_51
REMARK    4  A    between atoms: C_8  and  O_50
REMARK    5  A    between atoms: C_10  and  O_13
REMARK    6  A    between atoms: O_13  and  C_14
REMARK    7  A    between atoms: C_15  and  C_42
REMARK    8  A    between atoms: C_19  and  O_26
REMARK    9  A    between atoms: C_21  and  O_25
REMARK   10  A    between atoms: O_26  and  C_27
REMARK   11  A    between atoms: C_28  and  O_41
REMARK   12  A    between atoms: C_30  and  O_40
REMARK   13  A    between atoms: C_32  and  O_39
REMARK   14  A    between atoms: C_34  and  C_37
REMARK   15  A    between atoms: C_37  and  O_38
REMARK   16  A    between atoms: C_44  and  O_49
REMARK   17  A    between atoms: C_45  and  O_48
REMARK                            x       y       z     vdW  Elec       q    Type
REMARK                         _______ _______ _______ _____ _____    ______ ____
ROOT
ATOM      1  C   UNL     1       8.085   1.616  25.448  0.00  0.00    +0.214 A 
ATOM      2  C   UNL     1       8.672   0.372  24.821  0.00  0.00    +0.238 A 
ATOM      3  O   UNL     1       9.741   0.445  24.215  0.00  0.00    -0.283 OA
ATOM      4  C   UNL     1       7.913  -0.889  24.918  0.00  0.00    +0.109 A 
ATOM      5  C   UNL     1       6.812  -0.890  25.755  0.00  0.00    +0.147 A 
ATOM      6  C   UNL     1       5.997  -2.031  25.848  0.00  0.00    +0.093 A 
ATOM      7  C   UNL     1       6.297  -3.188  25.118  0.00  0.00    +0.131 A 
ATOM      8  C   UNL     1       7.436  -3.212  24.317  0.00  0.00    +0.092 A 
ATOM      9  O   UNL     1       6.476   0.175  26.553  0.00  0.00    -0.451 OA
ATOM     10  C   UNL     1       8.236  -2.062  24.207  0.00  0.00    +0.135 A 
ATOM     11  C   UNL     1       7.071   1.430  26.352  0.00  0.00    +0.181 A 
ENDROOT
BRANCH  11  12
ATOM     12  C   UNL     1       6.330   2.459  27.189  0.00  0.00    +0.025 A 
ATOM     13  C   UNL     1       6.847   3.001  28.382  0.00  0.00    +0.015 A 
ATOM     14  C   UNL     1       6.367   4.210  28.913  0.00  0.00    +0.050 A 
ATOM     15  C   UNL     1       5.197   4.748  28.413  0.00  0.00    +0.158 A 
ATOM     16  C   UNL     1       4.504   4.066  27.422  0.00  0.00    +0.159 A 
ATOM     17  C   UNL     1       5.075   2.959  26.778  0.00  0.00    +0.060 A 
BRANCH  16  18
ATOM     18  O   UNL     1       3.256   4.527  27.096  0.00  0.00    -0.503 OA
ATOM     19  H   UNL     1       3.269   4.732  26.146  0.00  0.00    +0.292 HD
ENDBRANCH  16  18
BRANCH  15  20
ATOM     20  O   UNL     1       4.722   5.918  28.921  0.00  0.00    -0.503 OA
ATOM     21  H   UNL     1       3.756   5.786  29.010  0.00  0.00    +0.292 HD
ENDBRANCH  15  20
ENDBRANCH  11  12
BRANCH  10  22
ATOM     22  O   UNL     1       9.324  -2.111  23.380  0.00  0.00    -0.506 OA
ATOM     23  H   UNL     1       9.091  -1.818  22.482  0.00  0.00    +0.292 HD
ENDBRANCH  10  22
BRANCH   7  24
ATOM     24  O   UNL     1       5.558  -4.352  25.172  0.00  0.00    -0.461 OA
BRANCH  24  25
ATOM     25  C   UNL     1       6.223  -5.430  25.850  0.00  0.00    +0.339 C 
ATOM     26  O   UNL     1       5.503  -6.665  25.774  0.00  0.00    -0.331 OA
ATOM     27  C   UNL     1       4.420  -6.873  26.694  0.00  0.00    +0.179 C 
ATOM     28  C   UNL     1       4.859  -6.609  28.149  0.00  0.00    +0.177 C 
ATOM     29  C   UNL     1       5.458  -5.211  28.300  0.00  0.00    +0.180 C 
ATOM     30  C   UNL     1       6.601  -5.010  27.295  0.00  0.00    +0.214 C 
BRANCH  29  31
ATOM     31  O   UNL     1       4.443  -4.214  28.223  0.00  0.00    -0.386 OA
ATOM     32  H   UNL     1       4.664  -3.472  28.817  0.00  0.00    +0.210 HD
ENDBRANCH  29  31
BRANCH  30  33
ATOM     33  O   UNL     1       7.734  -5.784  27.736  0.00  0.00    -0.383 OA
ATOM     34  H   UNL     1       7.437  -6.720  27.768  0.00  0.00    +0.210 HD
ENDBRANCH  30  33
BRANCH  28  35
ATOM     35  O   UNL     1       5.852  -7.597  28.485  0.00  0.00    -0.386 OA
ATOM     36  H   UNL     1       5.399  -8.312  28.967  0.00  0.00    +0.210 HD
ENDBRANCH  28  35
BRANCH  27  37
ATOM     37  C   UNL     1       3.113  -6.144  26.304  0.00  0.00    +0.190 C 
BRANCH  37  38
ATOM     38  O   UNL     1       2.997  -5.974  24.894  0.00  0.00    -0.392 OA
ATOM     39  H   UNL     1       3.812  -5.560  24.568  0.00  0.00    +0.210 HD
ENDBRANCH  37  38
ENDBRANCH  27  37
ENDBRANCH  24  25
ENDBRANCH   7  24
BRANCH   1  40
ATOM     40  O   UNL     1       8.719   2.749  24.949  0.00  0.00    -0.453 OA
BRANCH  40  44
ATOM     41  C   UNL     1       7.394   5.689  25.572  0.00  0.00    +0.041 C 
ATOM     42  C   UNL     1       7.320   5.437  24.070  0.00  0.00    +0.150 C 
ATOM     43  O   UNL     1       7.235   4.056  23.696  0.00  0.00    -0.334 OA
ATOM     44  C   UNL     1       8.444   3.287  23.673  0.00  0.00    +0.339 C 
ATOM     45  C   UNL     1       9.638   3.971  22.990  0.00  0.00    +0.214 C 
ATOM     46  C   UNL     1       9.767   5.439  23.370  0.00  0.00    +0.180 C 
ATOM     47  C   UNL     1       8.401   6.125  23.230  0.00  0.00    +0.174 C 
BRANCH  47  48
ATOM     48  O   UNL     1       7.982   6.059  21.851  0.00  0.00    -0.387 OA
ATOM     49  H   UNL     1       6.998   6.072  21.826  0.00  0.00    +0.210 HD
ENDBRANCH  47  48
BRANCH  46  50
ATOM     50  O   UNL     1      10.331   5.610  24.670  0.00  0.00    -0.386 OA
ATOM     51  H   UNL     1      10.101   4.851  25.235  0.00  0.00    +0.210 HD
ENDBRANCH  46  50
BRANCH  45  52
ATOM     52  O   UNL     1      10.850   3.233  23.166  0.00  0.00    -0.383 OA
ATOM     53  H   UNL     1      11.205   3.453  24.044  0.00  0.00    +0.210 HD
ENDBRANCH  45  52
ENDBRANCH  40  44
ENDBRANCH   1  40
TORSDOF 16
ENDMDL
MODEL 8
REMARK VINA RESULT:      -6.4      2.977     10.144
REMARK  Name = 
REMARK  17 active torsions:
REMARK  status: ('A' for Active; 'I' for Inactive)
REMARK    1  A    between atoms: C_1  and  C_2
REMARK    2  A    between atoms: C_4  and  O_52
REMARK    3  A    between atoms: C_6  and  O_51
REMARK    4  A    between atoms: C_8  and  O_50
REMARK    5  A    between atoms: C_10  and  O_13
REMARK    6  A    between atoms: O_13  and  C_14
REMARK    7  A    between atoms: C_15  and  C_42
REMARK    8  A    between atoms: C_19  and  O_26
REMARK    9  A    between atoms: C_21  and  O_25
REMARK   10  A    between atoms: O_26  and  C_27
REMARK   11  A    between atoms: C_28  and  O_41
REMARK   12  A    between atoms: C_30  and  O_40
REMARK   13  A    between atoms: C_32  and  O_39
REMARK   14  A    between atoms: C_34  and  C_37
REMARK   15  A    between atoms: C_37  and  O_38
REMARK   16  A    between atoms: C_44  and  O_49
REMARK   17  A    between atoms: C_45  and  O_48
REMARK                            x       y       z     vdW  Elec       q    Type
REMARK                         _______ _______ _______ _____ _____    ______ ____
ROOT
ATOM      1  C   UNL     1       6.857  -0.746  25.587  0.00  0.00    +0.214 A 
ATOM      2  C   UNL     1       7.059  -2.222  25.847  0.00  0.00    +0.238 A 
ATOM      3  O   UNL     1       8.201  -2.679  25.886  0.00  0.00    -0.283 OA
ATOM      4  C   UNL     1       5.868  -3.078  26.000  0.00  0.00    +0.109 A 
ATOM      5  C   UNL     1       4.647  -2.435  26.100  0.00  0.00    +0.147 A 
ATOM      6  C   UNL     1       3.460  -3.183  26.178  0.00  0.00    +0.093 A 
ATOM      7  C   UNL     1       3.493  -4.583  26.180  0.00  0.00    +0.131 A 
ATOM      8  C   UNL     1       4.723  -5.235  26.137  0.00  0.00    +0.092 A 
ATOM      9  O   UNL     1       4.523  -1.070  26.166  0.00  0.00    -0.451 OA
ATOM     10  C   UNL     1       5.907  -4.486  26.035  0.00  0.00    +0.135 A 
ATOM     11  C   UNL     1       5.610  -0.240  25.850  0.00  0.00    +0.181 A 
ENDROOT
BRANCH  11  12
ATOM     12  C   UNL     1       5.115   1.194  25.755  0.00  0.00    +0.025 A 
ATOM     13  C   UNL     1       4.837   1.990  26.884  0.00  0.00    +0.015 A 
ATOM     14  C   UNL     1       4.782   3.391  26.802  0.00  0.00    +0.050 A 
ATOM     15  C   UNL     1       4.738   3.994  25.560  0.00  0.00    +0.158 A 
ATOM     16  C   UNL     1       4.713   3.200  24.421  0.00  0.00    +0.159 A 
ATOM     17  C   UNL     1       4.943   1.819  24.502  0.00  0.00    +0.060 A 
BRANCH  16  18
ATOM     18  O   UNL     1       4.469   3.823  23.225  0.00  0.00    -0.503 OA
ATOM     19  H   UNL     1       3.820   3.278  22.749  0.00  0.00    +0.292 HD
ENDBRANCH  16  18
BRANCH  15  20
ATOM     20  O   UNL     1       4.683   5.351  25.470  0.00  0.00    -0.503 OA
ATOM     21  H   UNL     1       5.296   5.678  26.159  0.00  0.00    +0.292 HD
ENDBRANCH  15  20
ENDBRANCH  11  12
BRANCH  10  22
ATOM     22  O   UNL     1       7.093  -5.163  25.955  0.00  0.00    -0.506 OA
ATOM     23  H   UNL     1       7.040  -5.881  25.300  0.00  0.00    +0.292 HD
ENDBRANCH  10  22
BRANCH   7  24
ATOM     24  O   UNL     1       2.374  -5.385  26.273  0.00  0.00    -0.461 OA
BRANCH  24  25
ATOM     25  C   UNL     1       1.705  -5.593  25.019  0.00  0.00    +0.339 C 
ATOM     26  O   UNL     1       0.444  -6.255  25.164  0.00  0.00    -0.331 OA
ATOM     27  C   UNL     1       0.444  -7.685  25.299  0.00  0.00    +0.179 C 
ATOM     28  C   UNL     1       1.264  -8.357  24.180  0.00  0.00    +0.177 C 
ATOM     29  C   UNL     1       2.688  -7.802  24.130  0.00  0.00    +0.180 C 
ATOM     30  C   UNL     1       2.658  -6.272  24.001  0.00  0.00    +0.214 C 
BRANCH  29  31
ATOM     31  O   UNL     1       3.454  -8.272  25.235  0.00  0.00    -0.386 OA
ATOM     32  H   UNL     1       2.970  -8.104  26.066  0.00  0.00    +0.210 HD
ENDBRANCH  29  31
BRANCH  30  33
ATOM     33  O   UNL     1       2.244  -5.937  22.662  0.00  0.00    -0.383 OA
ATOM     34  H   UNL     1       1.662  -5.149  22.739  0.00  0.00    +0.210 HD
ENDBRANCH  30  33
BRANCH  28  35
ATOM     35  O   UNL     1       0.597  -8.082  22.932  0.00  0.00    -0.386 OA
ATOM     36  H   UNL     1       1.248  -7.664  22.341  0.00  0.00    +0.210 HD
ENDBRANCH  28  35
BRANCH  27  37
ATOM     37  C   UNL     1       0.812  -8.185  26.716  0.00  0.00    +0.190 C 
BRANCH  37  38
ATOM     38  O   UNL     1       1.225  -9.549  26.711  0.00  0.00    -0.392 OA
ATOM     39  H   UNL     1       1.214  -9.867  25.794  0.00  0.00    +0.210 HD
ENDBRANCH  37  38
ENDBRANCH  27  37
ENDBRANCH  24  25
ENDBRANCH   7  24
BRANCH   1  40
ATOM     40  O   UNL     1       8.031  -0.179  25.104  0.00  0.00    -0.453 OA
BRANCH  40  44
ATOM     41  C   UNL     1       8.670   3.033  24.856  0.00  0.00    +0.041 C 
ATOM     42  C   UNL     1       8.630   2.441  23.452  0.00  0.00    +0.150 C 
ATOM     43  O   UNL     1       7.778   1.299  23.305  0.00  0.00    -0.334 OA
ATOM     44  C   UNL     1       8.279   0.025  23.729  0.00  0.00    +0.339 C 
ATOM     45  C   UNL     1       9.712  -0.294  23.278  0.00  0.00    +0.214 C 
ATOM     46  C   UNL     1      10.651   0.894  23.427  0.00  0.00    +0.180 C 
ATOM     47  C   UNL     1       9.994   2.143  22.821  0.00  0.00    +0.174 C 
BRANCH  47  48
ATOM     48  O   UNL     1       9.778   1.922  21.412  0.00  0.00    -0.387 OA
ATOM     49  H   UNL     1      10.655   1.827  20.975  0.00  0.00    +0.210 HD
ENDBRANCH  47  48
BRANCH  46  50
ATOM     50  O   UNL     1      11.054   1.094  24.782  0.00  0.00    -0.386 OA
ATOM     51  H   UNL     1      10.967   0.263  25.281  0.00  0.00    +0.210 HD
ENDBRANCH  46  50
BRANCH  45  52
ATOM     52  O   UNL     1      10.212  -1.489  23.885  0.00  0.00    -0.383 OA
ATOM     53  H   UNL     1       9.902  -1.502  24.807  0.00  0.00    +0.210 HD
ENDBRANCH  45  52
ENDBRANCH  40  44
ENDBRANCH   1  40
TORSDOF 16
ENDMDL
MODEL 9
REMARK VINA RESULT:      -6.3      2.254      9.922
REMARK  Name = 
REMARK  17 active torsions:
REMARK  status: ('A' for Active; 'I' for Inactive)
REMARK    1  A    between atoms: C_1  and  C_2
REMARK    2  A    between atoms: C_4  and  O_52
REMARK    3  A    between atoms: C_6  and  O_51
REMARK    4  A    between atoms: C_8  and  O_50
REMARK    5  A    between atoms: C_10  and  O_13
REMARK    6  A    between atoms: O_13  and  C_14
REMARK    7  A    between atoms: C_15  and  C_42
REMARK    8  A    between atoms: C_19  and  O_26
REMARK    9  A    between atoms: C_21  and  O_25
REMARK   10  A    between atoms: O_26  and  C_27
REMARK   11  A    between atoms: C_28  and  O_41
REMARK   12  A    between atoms: C_30  and  O_40
REMARK   13  A    between atoms: C_32  and  O_39
REMARK   14  A    between atoms: C_34  and  C_37
REMARK   15  A    between atoms: C_37  and  O_38
REMARK   16  A    between atoms: C_44  and  O_49
REMARK   17  A    between atoms: C_45  and  O_48
REMARK                            x       y       z     vdW  Elec       q    Type
REMARK                         _______ _______ _______ _____ _____    ______ ____
ROOT
ATOM      1  C   UNL     1       8.020   2.254  24.853  0.00  0.00    +0.214 A 
ATOM      2  C   UNL     1       8.748   1.379  23.858  0.00  0.00    +0.238 A 
ATOM      3  O   UNL     1       9.467   1.900  23.004  0.00  0.00    -0.283 OA
ATOM      4  C   UNL     1       8.534  -0.078  23.915  0.00  0.00    +0.109 A 
ATOM      5  C   UNL     1       7.840  -0.563  25.009  0.00  0.00    +0.147 A 
ATOM      6  C   UNL     1       7.535  -1.932  25.102  0.00  0.00    +0.093 A 
ATOM      7  C   UNL     1       7.947  -2.827  24.107  0.00  0.00    +0.131 A 
ATOM      8  C   UNL     1       8.695  -2.354  23.032  0.00  0.00    +0.092 A 
ATOM      9  O   UNL     1       7.450   0.229  26.060  0.00  0.00    -0.451 OA
ATOM     10  C   UNL     1       8.978  -0.982  22.929  0.00  0.00    +0.135 A 
ATOM     11  C   UNL     1       7.486   1.628  25.949  0.00  0.00    +0.181 A 
ENDROOT
BRANCH  11  12
ATOM     12  C   UNL     1       6.763   2.229  27.143  0.00  0.00    +0.025 A 
ATOM     13  C   UNL     1       7.058   3.506  27.660  0.00  0.00    +0.015 A 
ATOM     14  C   UNL     1       6.144   4.203  28.468  0.00  0.00    +0.050 A 
ATOM     15  C   UNL     1       5.052   3.533  28.984  0.00  0.00    +0.158 A 
ATOM     16  C   UNL     1       4.901   2.178  28.722  0.00  0.00    +0.159 A 
ATOM     17  C   UNL     1       5.713   1.533  27.779  0.00  0.00    +0.060 A 
BRANCH  16  18
ATOM     18  O   UNL     1       3.922   1.510  29.410  0.00  0.00    -0.503 OA
ATOM     19  H   UNL     1       3.935   1.848  30.321  0.00  0.00    +0.292 HD
ENDBRANCH  16  18
BRANCH  15  20
ATOM     20  O   UNL     1       4.161   4.199  29.769  0.00  0.00    -0.503 OA
ATOM     21  H   UNL     1       4.184   3.736  30.631  0.00  0.00    +0.292 HD
ENDBRANCH  15  20
ENDBRANCH  11  12
BRANCH  10  22
ATOM     22  O   UNL     1       9.681  -0.548  21.839  0.00  0.00    -0.506 OA
ATOM     23  H   UNL     1      10.399   0.052  22.105  0.00  0.00    +0.292 HD
ENDBRANCH  10  22
BRANCH   7  24
ATOM     24  O   UNL     1       7.703  -4.185  24.137  0.00  0.00    -0.461 OA
BRANCH  24  25
ATOM     25  C   UNL     1       6.457  -4.536  24.761  0.00  0.00    +0.339 C 
ATOM     26  O   UNL     1       6.109  -5.912  24.574  0.00  0.00    -0.331 OA
ATOM     27  C   UNL     1       5.490  -6.289  23.334  0.00  0.00    +0.179 C 
ATOM     28  C   UNL     1       4.278  -5.391  23.014  0.00  0.00    +0.177 C 
ATOM     29  C   UNL     1       4.669  -3.914  23.015  0.00  0.00    +0.180 C 
ATOM     30  C   UNL     1       5.342  -3.542  24.344  0.00  0.00    +0.214 C 
BRANCH  29  31
ATOM     31  O   UNL     1       5.450  -3.596  21.866  0.00  0.00    -0.386 OA
ATOM     32  H   UNL     1       4.992  -3.902  21.061  0.00  0.00    +0.210 HD
ENDBRANCH  29  31
BRANCH  30  33
ATOM     33  O   UNL     1       4.330  -3.503  25.370  0.00  0.00    -0.383 OA
ATOM     34  H   UNL     1       3.854  -4.361  25.325  0.00  0.00    +0.210 HD
ENDBRANCH  30  33
BRANCH  28  35
ATOM     35  O   UNL     1       3.286  -5.627  24.032  0.00  0.00    -0.386 OA
ATOM     36  H   UNL     1       2.416  -5.628  23.595  0.00  0.00    +0.210 HD
ENDBRANCH  28  35
BRANCH  27  37
ATOM     37  C   UNL     1       6.479  -6.431  22.153  0.00  0.00    +0.190 C 
BRANCH  37  38
ATOM     38  O   UNL     1       5.822  -6.339  20.892  0.00  0.00    -0.392 OA
ATOM     39  H   UNL     1       5.710  -7.236  20.540  0.00  0.00    +0.210 HD
ENDBRANCH  37  38
ENDBRANCH  27  37
ENDBRANCH  24  25
ENDBRANCH   7  24
BRANCH   1  40
ATOM     40  O   UNL     1       8.034   3.578  24.427  0.00  0.00    -0.453 OA
BRANCH  40  44
ATOM     41  C   UNL     1       8.202   6.673  25.515  0.00  0.00    +0.041 C 
ATOM     42  C   UNL     1       6.901   6.507  24.737  0.00  0.00    +0.150 C 
ATOM     43  O   UNL     1       6.358   5.181  24.751  0.00  0.00    -0.334 OA
ATOM     44  C   UNL     1       6.913   4.214  23.850  0.00  0.00    +0.339 C 
ATOM     45  C   UNL     1       7.123   4.710  22.412  0.00  0.00    +0.214 C 
ATOM     46  C   UNL     1       7.708   6.114  22.355  0.00  0.00    +0.180 C 
ATOM     47  C   UNL     1       6.919   7.034  23.298  0.00  0.00    +0.174 C 
BRANCH  47  48
ATOM     48  O   UNL     1       5.551   7.105  22.849  0.00  0.00    -0.387 OA
ATOM     49  H   UNL     1       5.525   7.630  22.016  0.00  0.00    +0.210 HD
ENDBRANCH  47  48
BRANCH  46  50
ATOM     50  O   UNL     1       9.108   6.124  22.630  0.00  0.00    -0.386 OA
ATOM     51  H   UNL     1       9.291   5.624  23.446  0.00  0.00    +0.210 HD
ENDBRANCH  46  50
BRANCH  45  52
ATOM     52  O   UNL     1       7.846   3.764  21.619  0.00  0.00    -0.383 OA
ATOM     53  H   UNL     1       8.730   4.134  21.452  0.00  0.00    +0.210 HD
ENDBRANCH  45  52
ENDBRANCH  40  44
ENDBRANCH   1  40
TORSDOF 16
ENDMDL
