MODEL 1
REMARK VINA RESULT:      -7.3      0.000      0.000
REMARK  Name = 
REMARK  17 active torsions:
REMARK  status: ('A' for Active; 'I' for Inactive)
REMARK    1  A    between atoms: C_3  and  O_47
REMARK    2  A    between atoms: C_4  and  O_46
REMARK    3  A    between atoms: C_6  and  C_7
REMARK    4  A    between atoms: C_8  and  O_20
REMARK    5  A    between atoms: C_12  and  O_19
REMARK    6  A    between atoms: C_14  and  O_18
REMARK    7  A    between atoms: O_20  and  C_21
REMARK    8  A    between atoms: C_23  and  O_34
REMARK    9  A    between atoms: C_25  and  O_33
REMARK   10  A    between atoms: C_26  and  O_32
REMARK   11  A    between atoms: C_28  and  C_30
REMARK   12  A    between atoms: C_30  and  O_31
REMARK   13  A    between atoms: O_34  and  C_35
REMARK   14  A    between atoms: C_35  and  C_37
REMARK   15  A    between atoms: C_39  and  O_45
REMARK   16  A    between atoms: C_40  and  O_44
REMARK   17  A    between atoms: C_41  and  O_43
REMARK                            x       y       z     vdW  Elec       q    Type
REMARK                         _______ _______ _______ _____ _____    ______ ____
ROOT
ATOM      1  C   UNL     1       8.102  -1.280  24.456  0.00  0.00    +0.352 C 
ATOM      2  O   UNL     1       8.891  -0.110  24.796  0.00  0.00    -0.330 OA
ATOM      3  C   UNL     1       9.353   0.790  23.789  0.00  0.00    +0.179 C 
ATOM      4  C   UNL     1       9.777   0.103  22.484  0.00  0.00    +0.178 C 
ATOM      5  C   UNL     1       8.975  -1.168  22.188  0.00  0.00    +0.192 C 
ATOM      6  C   UNL     1       8.758  -2.176  23.364  0.00  0.00    +0.276 C 
ENDROOT
BRANCH   5   7
ATOM      7  O   UNL     1       9.385  -1.779  20.971  0.00  0.00    -0.385 OA
ATOM      8  H   UNL     1      10.327  -1.590  20.847  0.00  0.00    +0.210 HD
ENDBRANCH   5   7
BRANCH   4   9
ATOM      9  O   UNL     1       9.630   1.069  21.417  0.00  0.00    -0.386 OA
ATOM     10  H   UNL     1       8.937   1.712  21.664  0.00  0.00    +0.210 HD
ENDBRANCH   4   9
BRANCH   6  11
ATOM     11  O   UNL     1       9.822  -3.139  23.853  0.00  0.00    -0.449 OA
BRANCH  11  12
ATOM     12  C   UNL     1       9.363  -4.241  24.613  0.00  0.00    +0.340 C 
ATOM     13  O   UNL     1      10.020  -4.668  25.563  0.00  0.00    -0.245 OA
BRANCH  12  14
ATOM     14  C   UNL     1       8.030  -4.999  24.330  0.00  0.00    +0.066 A 
ATOM     15  C   UNL     1       7.620  -5.454  23.067  0.00  0.00    +0.064 A 
ATOM     16  C   UNL     1       6.421  -6.197  22.931  0.00  0.00    +0.163 A 
ATOM     17  C   UNL     1       5.612  -6.510  24.014  0.00  0.00    +0.201 A 
ATOM     18  C   UNL     1       5.969  -6.075  25.272  0.00  0.00    +0.163 A 
ATOM     19  C   UNL     1       7.157  -5.319  25.435  0.00  0.00    +0.064 A 
BRANCH  18  20
ATOM     20  O   UNL     1       5.130  -6.432  26.295  0.00  0.00    -0.503 OA
ATOM     21  H   UNL     1       5.391  -5.982  27.115  0.00  0.00    +0.292 HD
ENDBRANCH  18  20
BRANCH  17  22
ATOM     22  O   UNL     1       4.478  -7.265  23.811  0.00  0.00    -0.501 OA
ATOM     23  H   UNL     1       4.784  -8.104  23.409  0.00  0.00    +0.292 HD
ENDBRANCH  17  22
BRANCH  16  24
ATOM     24  O   UNL     1       6.037  -6.652  21.697  0.00  0.00    -0.503 OA
ATOM     25  H   UNL     1       5.523  -7.473  21.880  0.00  0.00    +0.292 HD
ENDBRANCH  16  24
ENDBRANCH  12  14
ENDBRANCH  11  12
ENDBRANCH   6  11
BRANCH   3  26
ATOM     26  C   UNL     1      10.608   1.559  24.317  0.00  0.00    +0.190 C 
BRANCH  26  27
ATOM     27  O   UNL     1      10.962   2.705  23.547  0.00  0.00    -0.392 OA
ATOM     28  H   UNL     1      10.274   2.850  22.878  0.00  0.00    +0.210 HD
ENDBRANCH  26  27
ENDBRANCH   3  26
BRANCH   1  29
ATOM     29  O   UNL     1       6.735  -0.960  24.013  0.00  0.00    -0.452 OA
BRANCH  29  40
ATOM     30  C   UNL     1       5.305  -1.130  26.011  0.00  0.00    +0.181 A 
ATOM     31  O   UNL     1       4.274  -1.730  26.749  0.00  0.00    -0.451 OA
ATOM     32  C   UNL     1       3.555  -2.765  26.207  0.00  0.00    +0.147 A 
ATOM     33  C   UNL     1       3.787  -3.233  24.925  0.00  0.00    +0.109 A 
ATOM     34  C   UNL     1       2.978  -4.240  24.377  0.00  0.00    +0.135 A 
ATOM     35  C   UNL     1       1.966  -4.804  25.127  0.00  0.00    +0.091 A 
ATOM     36  C   UNL     1       1.756  -4.383  26.432  0.00  0.00    +0.124 A 
ATOM     37  C   UNL     1       4.901  -2.670  24.174  0.00  0.00    +0.238 A 
ATOM     38  O   UNL     1       5.108  -3.118  23.050  0.00  0.00    -0.283 OA
ATOM     39  C   UNL     1       2.536  -3.346  26.982  0.00  0.00    +0.092 A 
ATOM     40  C   UNL     1       5.706  -1.557  24.781  0.00  0.00    +0.214 A 
BRANCH  30  42
ATOM     41  C   UNL     1       5.406   1.385  26.277  0.00  0.00    +0.015 A 
ATOM     42  C   UNL     1       5.816   0.097  26.710  0.00  0.00    +0.025 A 
ATOM     43  C   UNL     1       6.693   0.033  27.799  0.00  0.00    +0.060 A 
ATOM     44  C   UNL     1       7.195   1.207  28.369  0.00  0.00    +0.159 A 
ATOM     45  C   UNL     1       6.835   2.462  27.889  0.00  0.00    +0.158 A 
ATOM     46  C   UNL     1       5.920   2.560  26.853  0.00  0.00    +0.050 A 
BRANCH  45  47
ATOM     47  O   UNL     1       7.416   3.557  28.467  0.00  0.00    -0.503 OA
ATOM     48  H   UNL     1       6.720   4.090  28.891  0.00  0.00    +0.292 HD
ENDBRANCH  45  47
BRANCH  44  49
ATOM     49  O   UNL     1       8.078   1.118  29.409  0.00  0.00    -0.503 OA
ATOM     50  H   UNL     1       7.834   0.290  29.871  0.00  0.00    +0.292 HD
ENDBRANCH  44  49
ENDBRANCH  30  42
BRANCH  36  51
ATOM     51  O   UNL     1       0.793  -4.958  27.210  0.00  0.00    -0.507 OA
ATOM     52  H   UNL     1       0.185  -4.266  27.532  0.00  0.00    +0.292 HD
ENDBRANCH  36  51
BRANCH  34  53
ATOM     53  O   UNL     1       3.115  -4.697  23.092  0.00  0.00    -0.506 OA
ATOM     54  H   UNL     1       3.959  -5.201  23.039  0.00  0.00    +0.292 HD
ENDBRANCH  34  53
ENDBRANCH  29  40
ENDBRANCH   1  29
TORSDOF 17
ENDMDL
MODEL 2
REMARK VINA RESULT:      -7.2      2.271      6.942
REMARK  Name = 
REMARK  17 active torsions:
REMARK  status: ('A' for Active; 'I' for Inactive)
REMARK    1  A    between atoms: C_3  and  O_47
REMARK    2  A    between atoms: C_4  and  O_46
REMARK    3  A    between atoms: C_6  and  C_7
REMARK    4  A    between atoms: C_8  and  O_20
REMARK    5  A    between atoms: C_12  and  O_19
REMARK    6  A    between atoms: C_14  and  O_18
REMARK    7  A    between atoms: O_20  and  C_21
REMARK    8  A    between atoms: C_23  and  O_34
REMARK    9  A    between atoms: C_25  and  O_33
REMARK   10  A    between atoms: C_26  and  O_32
REMARK   11  A    between atoms: C_28  and  C_30
REMARK   12  A    between atoms: C_30  and  O_31
REMARK   13  A    between atoms: O_34  and  C_35
REMARK   14  A    between atoms: C_35  and  C_37
REMARK   15  A    between atoms: C_39  and  O_45
REMARK   16  A    between atoms: C_40  and  O_44
REMARK   17  A    between atoms: C_41  and  O_43
REMARK                            x       y       z     vdW  Elec       q    Type
REMARK                         _______ _______ _______ _____ _____    ______ ____
ROOT
ATOM      1  C   UNL     1       6.296  -2.675  26.168  0.00  0.00    +0.352 C 
ATOM      2  O   UNL     1       5.080  -3.035  26.874  0.00  0.00    -0.330 OA
ATOM      3  C   UNL     1       5.107  -3.929  27.988  0.00  0.00    +0.179 C 
ATOM      4  C   UNL     1       6.114  -5.077  27.842  0.00  0.00    +0.178 C 
ATOM      5  C   UNL     1       7.355  -4.688  27.032  0.00  0.00    +0.192 C 
ATOM      6  C   UNL     1       7.128  -3.904  25.697  0.00  0.00    +0.276 C 
ENDROOT
BRANCH   5   7
ATOM      7  O   UNL     1       8.272  -5.769  26.920  0.00  0.00    -0.385 OA
ATOM      8  H   UNL     1       8.505  -5.864  25.985  0.00  0.00    +0.210 HD
ENDBRANCH   5   7
BRANCH   4   9
ATOM      9  O   UNL     1       6.480  -5.506  29.175  0.00  0.00    -0.386 OA
ATOM     10  H   UNL     1       5.730  -5.337  29.779  0.00  0.00    +0.210 HD
ENDBRANCH   4   9
BRANCH   6  11
ATOM     11  O   UNL     1       6.672  -4.555  24.407  0.00  0.00    -0.449 OA
BRANCH  11  12
ATOM     12  C   UNL     1       6.253  -3.677  23.380  0.00  0.00    +0.340 C 
ATOM     13  O   UNL     1       5.174  -3.842  22.811  0.00  0.00    -0.245 OA
BRANCH  12  14
ATOM     14  C   UNL     1       7.090  -2.459  22.880  0.00  0.00    +0.066 A 
ATOM     15  C   UNL     1       8.411  -2.533  22.412  0.00  0.00    +0.064 A 
ATOM     16  C   UNL     1       9.057  -1.375  21.913  0.00  0.00    +0.163 A 
ATOM     17  C   UNL     1       8.431  -0.137  21.860  0.00  0.00    +0.201 A 
ATOM     18  C   UNL     1       7.138  -0.015  22.320  0.00  0.00    +0.163 A 
ATOM     19  C   UNL     1       6.471  -1.155  22.835  0.00  0.00    +0.064 A 
BRANCH  18  20
ATOM     20  O   UNL     1       6.580   1.233  22.225  0.00  0.00    -0.503 OA
ATOM     21  H   UNL     1       5.906   1.353  22.914  0.00  0.00    +0.292 HD
ENDBRANCH  18  20
BRANCH  17  22
ATOM     22  O   UNL     1       9.110   0.938  21.332  0.00  0.00    -0.501 OA
ATOM     23  H   UNL     1      10.004   0.606  21.109  0.00  0.00    +0.292 HD
ENDBRANCH  17  22
BRANCH  16  24
ATOM     24  O   UNL     1      10.341  -1.460  21.441  0.00  0.00    -0.503 OA
ATOM     25  H   UNL     1      10.881  -0.946  22.086  0.00  0.00    +0.292 HD
ENDBRANCH  16  24
ENDBRANCH  12  14
ENDBRANCH  11  12
ENDBRANCH   6  11
BRANCH   3  26
ATOM     26  C   UNL     1       3.699  -4.588  28.157  0.00  0.00    +0.190 C 
BRANCH  26  27
ATOM     27  O   UNL     1       3.720  -6.013  28.201  0.00  0.00    -0.392 OA
ATOM     28  H   UNL     1       2.935  -6.317  28.683  0.00  0.00    +0.210 HD
ENDBRANCH  26  27
ENDBRANCH   3  26
BRANCH   1  29
ATOM     29  O   UNL     1       7.188  -1.798  26.942  0.00  0.00    -0.452 OA
BRANCH  29  40
ATOM     30  C   UNL     1       6.620   0.547  26.447  0.00  0.00    +0.181 A 
ATOM     31  O   UNL     1       6.897   1.792  25.863  0.00  0.00    -0.451 OA
ATOM     32  C   UNL     1       8.086   1.993  25.209  0.00  0.00    +0.147 A 
ATOM     33  C   UNL     1       9.058   1.011  25.124  0.00  0.00    +0.109 A 
ATOM     34  C   UNL     1      10.293   1.281  24.516  0.00  0.00    +0.135 A 
ATOM     35  C   UNL     1      10.537   2.520  23.957  0.00  0.00    +0.091 A 
ATOM     36  C   UNL     1       9.553   3.497  23.987  0.00  0.00    +0.124 A 
ATOM     37  C   UNL     1       8.755  -0.308  25.662  0.00  0.00    +0.238 A 
ATOM     38  O   UNL     1       9.619  -1.175  25.552  0.00  0.00    -0.283 OA
ATOM     39  C   UNL     1       8.322   3.252  24.629  0.00  0.00    +0.092 A 
ATOM     40  C   UNL     1       7.442  -0.536  26.352  0.00  0.00    +0.214 A 
BRANCH  30  42
ATOM     41  C   UNL     1       5.448   0.830  28.673  0.00  0.00    +0.015 A 
ATOM     42  C   UNL     1       5.368   0.614  27.272  0.00  0.00    +0.025 A 
ATOM     43  C   UNL     1       4.090   0.474  26.716  0.00  0.00    +0.060 A 
ATOM     44  C   UNL     1       2.961   0.472  27.538  0.00  0.00    +0.159 A 
ATOM     45  C   UNL     1       3.062   0.619  28.918  0.00  0.00    +0.158 A 
ATOM     46  C   UNL     1       4.306   0.822  29.492  0.00  0.00    +0.050 A 
BRANCH  45  47
ATOM     47  O   UNL     1       1.912   0.549  29.654  0.00  0.00    -0.503 OA
ATOM     48  H   UNL     1       2.102   0.859  30.557  0.00  0.00    +0.292 HD
ENDBRANCH  45  47
BRANCH  44  49
ATOM     49  O   UNL     1       1.726   0.298  26.975  0.00  0.00    -0.503 OA
ATOM     50  H   UNL     1       1.102   0.347  27.728  0.00  0.00    +0.292 HD
ENDBRANCH  44  49
ENDBRANCH  30  42
BRANCH  36  51
ATOM     51  O   UNL     1       9.752   4.713  23.400  0.00  0.00    -0.507 OA
ATOM     52  H   UNL     1       9.824   5.396  24.094  0.00  0.00    +0.292 HD
ENDBRANCH  36  51
BRANCH  34  53
ATOM     53  O   UNL     1      11.318   0.373  24.460  0.00  0.00    -0.506 OA
ATOM     54  H   UNL     1      11.062  -0.406  25.006  0.00  0.00    +0.292 HD
ENDBRANCH  34  53
ENDBRANCH  29  40
ENDBRANCH   1  29
TORSDOF 17
ENDMDL
MODEL 3
REMARK VINA RESULT:      -7.1      2.400      7.355
REMARK  Name = 
REMARK  17 active torsions:
REMARK  status: ('A' for Active; 'I' for Inactive)
REMARK    1  A    between atoms: C_3  and  O_47
REMARK    2  A    between atoms: C_4  and  O_46
REMARK    3  A    between atoms: C_6  and  C_7
REMARK    4  A    between atoms: C_8  and  O_20
REMARK    5  A    between atoms: C_12  and  O_19
REMARK    6  A    between atoms: C_14  and  O_18
REMARK    7  A    between atoms: O_20  and  C_21
REMARK    8  A    between atoms: C_23  and  O_34
REMARK    9  A    between atoms: C_25  and  O_33
REMARK   10  A    between atoms: C_26  and  O_32
REMARK   11  A    between atoms: C_28  and  C_30
REMARK   12  A    between atoms: C_30  and  O_31
REMARK   13  A    between atoms: O_34  and  C_35
REMARK   14  A    between atoms: C_35  and  C_37
REMARK   15  A    between atoms: C_39  and  O_45
REMARK   16  A    between atoms: C_40  and  O_44
REMARK   17  A    between atoms: C_41  and  O_43
REMARK                            x       y       z     vdW  Elec       q    Type
REMARK                         _______ _______ _______ _____ _____    ______ ____
ROOT
ATOM      1  C   UNL     1       5.822   0.603  25.443  0.00  0.00    +0.352 C 
ATOM      2  O   UNL     1       5.060   1.612  24.731  0.00  0.00    -0.330 OA
ATOM      3  C   UNL     1       4.170   2.492  25.419  0.00  0.00    +0.179 C 
ATOM      4  C   UNL     1       3.411   1.831  26.577  0.00  0.00    +0.178 C 
ATOM      5  C   UNL     1       4.213   0.722  27.265  0.00  0.00    +0.192 C 
ATOM      6  C   UNL     1       4.946  -0.313  26.348  0.00  0.00    +0.276 C 
ENDROOT
BRANCH   5   7
ATOM      7  O   UNL     1       3.488   0.133  28.337  0.00  0.00    -0.385 OA
ATOM      8  H   UNL     1       2.755  -0.372  27.956  0.00  0.00    +0.210 HD
ENDBRANCH   5   7
BRANCH   4   9
ATOM      9  O   UNL     1       3.059   2.874  27.516  0.00  0.00    -0.386 OA
ATOM     10  H   UNL     1       3.877   3.232  27.915  0.00  0.00    +0.210 HD
ENDBRANCH   4   9
BRANCH   6  11
ATOM     11  O   UNL     1       4.246  -1.458  25.646  0.00  0.00    -0.449 OA
BRANCH  11  12
ATOM     12  C   UNL     1       4.830  -2.737  25.805  0.00  0.00    +0.340 C 
ATOM     13  O   UNL     1       5.222  -3.118  26.909  0.00  0.00    -0.245 OA
BRANCH  12  14
ATOM     14  C   UNL     1       5.034  -3.752  24.639  0.00  0.00    +0.066 A 
ATOM     15  C   UNL     1       4.888  -5.143  24.753  0.00  0.00    +0.064 A 
ATOM     16  C   UNL     1       5.026  -5.972  23.612  0.00  0.00    +0.163 A 
ATOM     17  C   UNL     1       5.305  -5.463  22.351  0.00  0.00    +0.201 A 
ATOM     18  C   UNL     1       5.467  -4.104  22.193  0.00  0.00    +0.163 A 
ATOM     19  C   UNL     1       5.346  -3.252  23.320  0.00  0.00    +0.064 A 
BRANCH  18  20
ATOM     20  O   UNL     1       5.727  -3.671  20.919  0.00  0.00    -0.503 OA
ATOM     21  H   UNL     1       5.070  -4.032  20.302  0.00  0.00    +0.292 HD
ENDBRANCH  18  20
BRANCH  17  22
ATOM     22  O   UNL     1       5.392  -6.325  21.282  0.00  0.00    -0.501 OA
ATOM     23  H   UNL     1       4.655  -6.086  20.684  0.00  0.00    +0.292 HD
ENDBRANCH  17  22
BRANCH  16  24
ATOM     24  O   UNL     1       4.864  -7.328  23.729  0.00  0.00    -0.503 OA
ATOM     25  H   UNL     1       4.813  -7.656  22.802  0.00  0.00    +0.292 HD
ENDBRANCH  16  24
ENDBRANCH  12  14
ENDBRANCH  11  12
ENDBRANCH   6  11
BRANCH   3  26
ATOM     26  C   UNL     1       3.089   3.020  24.421  0.00  0.00    +0.190 C 
BRANCH  26  27
ATOM     27  O   UNL     1       3.330   2.677  23.058  0.00  0.00    -0.392 OA
ATOM     28  H   UNL     1       2.537   2.894  22.542  0.00  0.00    +0.210 HD
ENDBRANCH  26  27
ENDBRANCH   3  26
BRANCH   1  29
ATOM     29  O   UNL     1       6.901   1.160  26.276  0.00  0.00    -0.452 OA
BRANCH  29  40
ATOM     30  C   UNL     1       8.915   1.012  24.867  0.00  0.00    +0.181 A 
ATOM     31  O   UNL     1       9.970   1.595  24.148  0.00  0.00    -0.451 OA
ATOM     32  C   UNL     1      10.059   2.960  24.047  0.00  0.00    +0.147 A 
ATOM     33  C   UNL     1       9.117   3.805  24.609  0.00  0.00    +0.109 A 
ATOM     34  C   UNL     1       9.199   5.192  24.416  0.00  0.00    +0.135 A 
ATOM     35  C   UNL     1      10.246   5.734  23.696  0.00  0.00    +0.091 A 
ATOM     36  C   UNL     1      11.226   4.904  23.172  0.00  0.00    +0.124 A 
ATOM     37  C   UNL     1       8.058   3.218  25.419  0.00  0.00    +0.238 A 
ATOM     38  O   UNL     1       7.249   3.987  25.933  0.00  0.00    -0.283 OA
ATOM     39  C   UNL     1      11.135   3.505  23.325  0.00  0.00    +0.092 A 
ATOM     40  C   UNL     1       7.979   1.725  25.553  0.00  0.00    +0.214 A 
BRANCH  30  42
ATOM     41  C   UNL     1       9.120  -1.034  23.391  0.00  0.00    +0.015 A 
ATOM     42  C   UNL     1       8.903  -0.477  24.679  0.00  0.00    +0.025 A 
ATOM     43  C   UNL     1       8.686  -1.369  25.737  0.00  0.00    +0.060 A 
ATOM     44  C   UNL     1       8.612  -2.743  25.495  0.00  0.00    +0.159 A 
ATOM     45  C   UNL     1       8.762  -3.268  24.216  0.00  0.00    +0.158 A 
ATOM     46  C   UNL     1       9.040  -2.418  23.158  0.00  0.00    +0.050 A 
BRANCH  45  47
ATOM     47  O   UNL     1       8.620  -4.619  24.059  0.00  0.00    -0.503 OA
ATOM     48  H   UNL     1       8.976  -4.870  23.189  0.00  0.00    +0.292 HD
ENDBRANCH  45  47
BRANCH  44  49
ATOM     49  O   UNL     1       8.365  -3.591  26.539  0.00  0.00    -0.503 OA
ATOM     50  H   UNL     1       8.559  -3.062  27.340  0.00  0.00    +0.292 HD
ENDBRANCH  44  49
ENDBRANCH  30  42
BRANCH  36  51
ATOM     51  O   UNL     1      12.295   5.418  22.498  0.00  0.00    -0.507 OA
ATOM     52  H   UNL     1      12.337   5.017  21.609  0.00  0.00    +0.292 HD
ENDBRANCH  36  51
BRANCH  34  53
ATOM     53  O   UNL     1       8.263   6.074  24.890  0.00  0.00    -0.506 OA
ATOM     54  H   UNL     1       7.423   5.578  25.027  0.00  0.00    +0.292 HD
ENDBRANCH  34  53
ENDBRANCH  29  40
ENDBRANCH   1  29
TORSDOF 17
ENDMDL
MODEL 4
REMARK VINA RESULT:      -7.0      2.209      7.353
REMARK  Name = 
REMARK  17 active torsions:
REMARK  status: ('A' for Active; 'I' for Inactive)
REMARK    1  A    between atoms: C_3  and  O_47
REMARK    2  A    between atoms: C_4  and  O_46
REMARK    3  A    between atoms: C_6  and  C_7
REMARK    4  A    between atoms: C_8  and  O_20
REMARK    5  A    between atoms: C_12  and  O_19
REMARK    6  A    between atoms: C_14  and  O_18
REMARK    7  A    between atoms: O_20  and  C_21
REMARK    8  A    between atoms: C_23  and  O_34
REMARK    9  A    between atoms: C_25  and  O_33
REMARK   10  A    between atoms: C_26  and  O_32
REMARK   11  A    between atoms: C_28  and  C_30
REMARK   12  A    between atoms: C_30  and  O_31
REMARK   13  A    between atoms: O_34  and  C_35
REMARK   14  A    between atoms: C_35  and  C_37
REMARK   15  A    between atoms: C_39  and  O_45
REMARK   16  A    between atoms: C_40  and  O_44
REMARK   17  A    between atoms: C_41  and  O_43
REMARK                            x       y       z     vdW  Elec       q    Type
REMARK                         _______ _______ _______ _____ _____    ______ ____
ROOT
ATOM      1  C   UNL     1       5.315  -0.411  25.612  0.00  0.00    +0.352 C 
ATOM      2  O   UNL     1       4.447   0.749  25.696  0.00  0.00    -0.330 OA
ATOM      3  C   UNL     1       3.814   1.113  26.923  0.00  0.00    +0.179 C 
ATOM      4  C   UNL     1       3.349  -0.084  27.765  0.00  0.00    +0.178 C 
ATOM      5  C   UNL     1       4.245  -1.316  27.600  0.00  0.00    +0.192 C 
ATOM      6  C   UNL     1       4.659  -1.719  26.146  0.00  0.00    +0.276 C 
ENDROOT
BRANCH   5   7
ATOM      7  O   UNL     1       3.794  -2.405  28.396  0.00  0.00    -0.385 OA
ATOM      8  H   UNL     1       2.965  -2.139  28.821  0.00  0.00    +0.210 HD
ENDBRANCH   5   7
BRANCH   4   9
ATOM      9  O   UNL     1       3.309   0.346  29.145  0.00  0.00    -0.386 OA
ATOM     10  H   UNL     1       2.390   0.586  29.376  0.00  0.00    +0.210 HD
ENDBRANCH   4   9
BRANCH   6  11
ATOM     11  O   UNL     1       3.741  -2.440  25.180  0.00  0.00    -0.449 OA
BRANCH  11  12
ATOM     12  C   UNL     1       4.091  -3.775  24.867  0.00  0.00    +0.340 C 
ATOM     13  O   UNL     1       3.926  -4.219  23.731  0.00  0.00    -0.245 OA
BRANCH  12  14
ATOM     14  C   UNL     1       4.695  -4.781  25.894  0.00  0.00    +0.066 A 
ATOM     15  C   UNL     1       6.059  -4.889  26.203  0.00  0.00    +0.064 A 
ATOM     16  C   UNL     1       6.495  -5.790  27.206  0.00  0.00    +0.163 A 
ATOM     17  C   UNL     1       5.616  -6.590  27.921  0.00  0.00    +0.201 A 
ATOM     18  C   UNL     1       4.267  -6.525  27.645  0.00  0.00    +0.163 A 
ATOM     19  C   UNL     1       3.805  -5.642  26.638  0.00  0.00    +0.064 A 
BRANCH  18  20
ATOM     20  O   UNL     1       3.458  -7.334  28.400  0.00  0.00    -0.503 OA
ATOM     21  H   UNL     1       3.483  -7.060  29.331  0.00  0.00    +0.292 HD
ENDBRANCH  18  20
BRANCH  17  22
ATOM     22  O   UNL     1       6.108  -7.417  28.906  0.00  0.00    -0.501 OA
ATOM     23  H   UNL     1       7.078  -7.443  28.774  0.00  0.00    +0.292 HD
ENDBRANCH  17  22
BRANCH  16  24
ATOM     24  O   UNL     1       7.828  -5.876  27.513  0.00  0.00    -0.503 OA
ATOM     25  H   UNL     1       8.113  -4.945  27.662  0.00  0.00    +0.292 HD
ENDBRANCH  16  24
ENDBRANCH  12  14
ENDBRANCH  11  12
ENDBRANCH   6  11
BRANCH   3  26
ATOM     26  C   UNL     1       2.539   1.964  26.616  0.00  0.00    +0.190 C 
BRANCH  26  27
ATOM     27  O   UNL     1       1.378   1.195  26.313  0.00  0.00    -0.392 OA
ATOM     28  H   UNL     1       0.688   1.411  26.960  0.00  0.00    +0.210 HD
ENDBRANCH  26  27
ENDBRANCH   3  26
BRANCH   1  29
ATOM     29  O   UNL     1       6.601  -0.236  26.306  0.00  0.00    -0.452 OA
BRANCH  29  40
ATOM     30  C   UNL     1       8.397  -0.152  24.624  0.00  0.00    +0.181 A 
ATOM     31  O   UNL     1       9.370   0.536  23.883  0.00  0.00    -0.451 OA
ATOM     32  C   UNL     1       9.508   1.893  24.027  0.00  0.00    +0.147 A 
ATOM     33  C   UNL     1       8.691   2.634  24.864  0.00  0.00    +0.109 A 
ATOM     34  C   UNL     1       8.811   4.031  24.923  0.00  0.00    +0.135 A 
ATOM     35  C   UNL     1       9.774   4.678  24.175  0.00  0.00    +0.091 A 
ATOM     36  C   UNL     1      10.635   3.945  23.373  0.00  0.00    +0.124 A 
ATOM     37  C   UNL     1       7.726   1.925  25.692  0.00  0.00    +0.238 A 
ATOM     38  O   UNL     1       7.030   2.597  26.450  0.00  0.00    -0.283 OA
ATOM     39  C   UNL     1      10.501   2.544  23.274  0.00  0.00    +0.092 A 
ATOM     40  C   UNL     1       7.596   0.436  25.556  0.00  0.00    +0.214 A 
BRANCH  30  42
ATOM     41  C   UNL     1       7.415  -1.920  23.101  0.00  0.00    +0.015 A 
ATOM     42  C   UNL     1       8.290  -1.578  24.166  0.00  0.00    +0.025 A 
ATOM     43  C   UNL     1       9.031  -2.614  24.746  0.00  0.00    +0.060 A 
ATOM     44  C   UNL     1       8.841  -3.934  24.331  0.00  0.00    +0.159 A 
ATOM     45  C   UNL     1       7.930  -4.260  23.331  0.00  0.00    +0.158 A 
ATOM     46  C   UNL     1       7.227  -3.252  22.693  0.00  0.00    +0.050 A 
BRANCH  45  47
ATOM     47  O   UNL     1       7.765  -5.583  23.024  0.00  0.00    -0.503 OA
ATOM     48  H   UNL     1       7.695  -6.087  23.854  0.00  0.00    +0.292 HD
ENDBRANCH  45  47
BRANCH  44  49
ATOM     49  O   UNL     1       9.552  -4.933  24.937  0.00  0.00    -0.503 OA
ATOM     50  H   UNL     1       9.698  -4.613  25.851  0.00  0.00    +0.292 HD
ENDBRANCH  44  49
ENDBRANCH  30  42
BRANCH  36  51
ATOM     51  O   UNL     1      11.625   4.556  22.661  0.00  0.00    -0.507 OA
ATOM     52  H   UNL     1      12.229   3.878  22.303  0.00  0.00    +0.292 HD
ENDBRANCH  36  51
BRANCH  34  53
ATOM     53  O   UNL     1       7.989   4.824  25.680  0.00  0.00    -0.506 OA
ATOM     54  H   UNL     1       7.310   5.212  25.083  0.00  0.00    +0.292 HD
ENDBRANCH  34  53
ENDBRANCH  29  40
ENDBRANCH   1  29
TORSDOF 17
ENDMDL
MODEL 5
REMARK VINA RESULT:      -6.9      2.070      6.340
REMARK  Name = 
REMARK  17 active torsions:
REMARK  status: ('A' for Active; 'I' for Inactive)
REMARK    1  A    between atoms: C_3  and  O_47
REMARK    2  A    between atoms: C_4  and  O_46
REMARK    3  A    between atoms: C_6  and  C_7
REMARK    4  A    between atoms: C_8  and  O_20
REMARK    5  A    between atoms: C_12  and  O_19
REMARK    6  A    between atoms: C_14  and  O_18
REMARK    7  A    between atoms: O_20  and  C_21
REMARK    8  A    between atoms: C_23  and  O_34
REMARK    9  A    between atoms: C_25  and  O_33
REMARK   10  A    between atoms: C_26  and  O_32
REMARK   11  A    between atoms: C_28  and  C_30
REMARK   12  A    between atoms: C_30  and  O_31
REMARK   13  A    between atoms: O_34  and  C_35
REMARK   14  A    between atoms: C_35  and  C_37
REMARK   15  A    between atoms: C_39  and  O_45
REMARK   16  A    between atoms: C_40  and  O_44
REMARK   17  A    between atoms: C_41  and  O_43
REMARK                            x       y       z     vdW  Elec       q    Type
REMARK                         _______ _______ _______ _____ _____    ______ ____
ROOT
ATOM      1  C   UNL     1       6.728  -2.500  25.507  0.00  0.00    +0.352 C 
ATOM      2  O   UNL     1       5.849  -3.266  26.371  0.00  0.00    -0.330 OA
ATOM      3  C   UNL     1       6.326  -4.402  27.092  0.00  0.00    +0.179 C 
ATOM      4  C   UNL     1       7.345  -5.250  26.319  0.00  0.00    +0.178 C 
ATOM      5  C   UNL     1       8.210  -4.423  25.363  0.00  0.00    +0.192 C 
ATOM      6  C   UNL     1       7.486  -3.370  24.462  0.00  0.00    +0.276 C 
ENDROOT
BRANCH   5   7
ATOM      7  O   UNL     1       9.148  -5.234  24.666  0.00  0.00    -0.385 OA
ATOM      8  H   UNL     1       9.913  -5.366  25.245  0.00  0.00    +0.210 HD
ENDBRANCH   5   7
BRANCH   4   9
ATOM      9  O   UNL     1       8.163  -5.941  27.292  0.00  0.00    -0.386 OA
ATOM     10  H   UNL     1       7.657  -6.694  27.655  0.00  0.00    +0.210 HD
ENDBRANCH   4   9
BRANCH   6  11
ATOM     11  O   UNL     1       6.707  -3.727  23.212  0.00  0.00    -0.449 OA
BRANCH  11  12
ATOM     12  C   UNL     1       6.180  -5.039  23.159  0.00  0.00    +0.340 C 
ATOM     13  O   UNL     1       6.806  -5.948  22.614  0.00  0.00    -0.245 OA
BRANCH  12  14
ATOM     14  C   UNL     1       4.800  -5.447  23.760  0.00  0.00    +0.066 A 
ATOM     15  C   UNL     1       3.698  -4.589  23.891  0.00  0.00    +0.064 A 
ATOM     16  C   UNL     1       2.465  -5.081  24.386  0.00  0.00    +0.163 A 
ATOM     17  C   UNL     1       2.286  -6.407  24.755  0.00  0.00    +0.201 A 
ATOM     18  C   UNL     1       3.344  -7.284  24.654  0.00  0.00    +0.163 A 
ATOM     19  C   UNL     1       4.593  -6.816  24.173  0.00  0.00    +0.064 A 
BRANCH  18  20
ATOM     20  O   UNL     1       3.091  -8.579  25.024  0.00  0.00    -0.503 OA
ATOM     21  H   UNL     1       3.212  -9.174  24.266  0.00  0.00    +0.292 HD
ENDBRANCH  18  20
BRANCH  17  22
ATOM     22  O   UNL     1       1.049  -6.822  25.196  0.00  0.00    -0.501 OA
ATOM     23  H   UNL     1       0.950  -7.745  24.885  0.00  0.00    +0.292 HD
ENDBRANCH  17  22
BRANCH  16  24
ATOM     24  O   UNL     1       1.388  -4.240  24.494  0.00  0.00    -0.503 OA
ATOM     25  H   UNL     1       1.259  -3.879  23.586  0.00  0.00    +0.292 HD
ENDBRANCH  16  24
ENDBRANCH  12  14
ENDBRANCH  11  12
ENDBRANCH   6  11
BRANCH   3  26
ATOM     26  C   UNL     1       5.124  -5.345  27.428  0.00  0.00    +0.190 C 
BRANCH  26  27
ATOM     27  O   UNL     1       5.457  -6.730  27.464  0.00  0.00    -0.392 OA
ATOM     28  H   UNL     1       4.914  -7.194  26.807  0.00  0.00    +0.210 HD
ENDBRANCH  26  27
ENDBRANCH   3  26
BRANCH   1  29
ATOM     29  O   UNL     1       7.727  -1.705  26.240  0.00  0.00    -0.452 OA
BRANCH  29  40
ATOM     30  C   UNL     1       6.999   0.641  26.068  0.00  0.00    +0.181 A 
ATOM     31  O   UNL     1       7.168   1.961  25.623  0.00  0.00    -0.451 OA
ATOM     32  C   UNL     1       8.297   2.312  24.928  0.00  0.00    +0.147 A 
ATOM     33  C   UNL     1       9.313   1.410  24.667  0.00  0.00    +0.109 A 
ATOM     34  C   UNL     1      10.488   1.825  24.022  0.00  0.00    +0.135 A 
ATOM     35  C   UNL     1      10.626   3.134  23.605  0.00  0.00    +0.091 A 
ATOM     36  C   UNL     1       9.594   4.038  23.811  0.00  0.00    +0.124 A 
ATOM     37  C   UNL     1       9.121   0.019  25.058  0.00  0.00    +0.238 A 
ATOM     38  O   UNL     1      10.022  -0.772  24.792  0.00  0.00    -0.283 OA
ATOM     39  C   UNL     1       8.424   3.642  24.491  0.00  0.00    +0.092 A 
ATOM     40  C   UNL     1       7.871  -0.369  25.793  0.00  0.00    +0.214 A 
BRANCH  30  42
ATOM     41  C   UNL     1       5.956   0.660  28.373  0.00  0.00    +0.015 A 
ATOM     42  C   UNL     1       5.803   0.532  26.968  0.00  0.00    +0.025 A 
ATOM     43  C   UNL     1       4.510   0.308  26.480  0.00  0.00    +0.060 A 
ATOM     44  C   UNL     1       3.442   0.142  27.365  0.00  0.00    +0.159 A 
ATOM     45  C   UNL     1       3.620   0.206  28.743  0.00  0.00    +0.158 A 
ATOM     46  C   UNL     1       4.876   0.487  29.256  0.00  0.00    +0.050 A 
BRANCH  45  47
ATOM     47  O   UNL     1       2.532  -0.024  29.539  0.00  0.00    -0.503 OA
ATOM     48  H   UNL     1       2.172   0.833  29.827  0.00  0.00    +0.292 HD
ENDBRANCH  45  47
BRANCH  44  49
ATOM     49  O   UNL     1       2.194  -0.110  26.865  0.00  0.00    -0.503 OA
ATOM     50  H   UNL     1       2.352  -0.409  25.946  0.00  0.00    +0.292 HD
ENDBRANCH  44  49
ENDBRANCH  30  42
BRANCH  36  51
ATOM     51  O   UNL     1       9.686   5.324  23.366  0.00  0.00    -0.507 OA
ATOM     52  H   UNL     1       9.891   5.911  24.118  0.00  0.00    +0.292 HD
ENDBRANCH  36  51
BRANCH  34  53
ATOM     53  O   UNL     1      11.556   0.996  23.796  0.00  0.00    -0.506 OA
ATOM     54  H   UNL     1      11.394   0.519  22.951  0.00  0.00    +0.292 HD
ENDBRANCH  34  53
ENDBRANCH  29  40
ENDBRANCH   1  29
TORSDOF 17
ENDMDL
MODEL 6
REMARK VINA RESULT:      -6.8      1.789      3.120
REMARK  Name = 
REMARK  17 active torsions:
REMARK  status: ('A' for Active; 'I' for Inactive)
REMARK    1  A    between atoms: C_3  and  O_47
REMARK    2  A    between atoms: C_4  and  O_46
REMARK    3  A    between atoms: C_6  and  C_7
REMARK    4  A    between atoms: C_8  and  O_20
REMARK    5  A    between atoms: C_12  and  O_19
REMARK    6  A    between atoms: C_14  and  O_18
REMARK    7  A    between atoms: O_20  and  C_21
REMARK    8  A    between atoms: C_23  and  O_34
REMARK    9  A    between atoms: C_25  and  O_33
REMARK   10  A    between atoms: C_26  and  O_32
REMARK   11  A    between atoms: C_28  and  C_30
REMARK   12  A    between atoms: C_30  and  O_31
REMARK   13  A    between atoms: O_34  and  C_35
REMARK   14  A    between atoms: C_35  and  C_37
REMARK   15  A    between atoms: C_39  and  O_45
REMARK   16  A    between atoms: C_40  and  O_44
REMARK   17  A    between atoms: C_41  and  O_43
REMARK                            x       y       z     vdW  Elec       q    Type
REMARK                         _______ _______ _______ _____ _____    ______ ____
ROOT
ATOM      1  C   UNL     1       8.952  -0.298  24.586  0.00  0.00    +0.352 C 
ATOM      2  O   UNL     1       9.997   0.625  24.185  0.00  0.00    -0.330 OA
ATOM      3  C   UNL     1       9.792   2.038  24.221  0.00  0.00    +0.179 C 
ATOM      4  C   UNL     1       8.377   2.473  23.816  0.00  0.00    +0.178 C 
ATOM      5  C   UNL     1       7.303   1.446  24.189  0.00  0.00    +0.192 C 
ATOM      6  C   UNL     1       7.596  -0.055  23.861  0.00  0.00    +0.276 C 
ENDROOT
BRANCH   5   7
ATOM      7  O   UNL     1       6.004   1.880  23.808  0.00  0.00    -0.385 OA
ATOM      8  H   UNL     1       6.089   2.386  22.987  0.00  0.00    +0.210 HD
ENDBRANCH   5   7
BRANCH   4   9
ATOM      9  O   UNL     1       8.117   3.748  24.450  0.00  0.00    -0.386 OA
ATOM     10  H   UNL     1       7.694   4.345  23.802  0.00  0.00    +0.210 HD
ENDBRANCH   4   9
BRANCH   6  11
ATOM     11  O   UNL     1       7.473  -0.651  22.473  0.00  0.00    -0.449 OA
BRANCH  11  12
ATOM     12  C   UNL     1       7.797  -2.024  22.354  0.00  0.00    +0.340 C 
ATOM     13  O   UNL     1       8.923  -2.376  22.001  0.00  0.00    -0.245 OA
BRANCH  12  14
ATOM     14  C   UNL     1       6.795  -3.184  22.641  0.00  0.00    +0.066 A 
ATOM     15  C   UNL     1       5.556  -3.031  23.282  0.00  0.00    +0.064 A 
ATOM     16  C   UNL     1       4.688  -4.141  23.430  0.00  0.00    +0.163 A 
ATOM     17  C   UNL     1       5.009  -5.406  22.957  0.00  0.00    +0.201 A 
ATOM     18  C   UNL     1       6.220  -5.605  22.330  0.00  0.00    +0.163 A 
ATOM     19  C   UNL     1       7.113  -4.515  22.179  0.00  0.00    +0.064 A 
BRANCH  18  20
ATOM     20  O   UNL     1       6.463  -6.876  21.878  0.00  0.00    -0.503 OA
ATOM     21  H   UNL     1       5.671  -7.428  21.986  0.00  0.00    +0.292 HD
ENDBRANCH  18  20
BRANCH  17  22
ATOM     22  O   UNL     1       4.101  -6.430  23.107  0.00  0.00    -0.501 OA
ATOM     23  H   UNL     1       3.457  -6.122  23.776  0.00  0.00    +0.292 HD
ENDBRANCH  17  22
BRANCH  16  24
ATOM     24  O   UNL     1       3.472  -3.980  24.042  0.00  0.00    -0.503 OA
ATOM     25  H   UNL     1       3.525  -4.531  24.857  0.00  0.00    +0.292 HD
ENDBRANCH  16  24
ENDBRANCH  12  14
ENDBRANCH  11  12
ENDBRANCH   6  11
BRANCH   3  26
ATOM     26  C   UNL     1      10.775   2.731  23.222  0.00  0.00    +0.190 C 
BRANCH  26  27
ATOM     27  O   UNL     1      10.440   2.551  21.849  0.00  0.00    -0.392 OA
ATOM     28  H   UNL     1       9.487   2.380  21.785  0.00  0.00    +0.210 HD
ENDBRANCH  26  27
ENDBRANCH   3  26
BRANCH   1  29
ATOM     29  O   UNL     1       8.693  -0.301  26.035  0.00  0.00    -0.452 OA
BRANCH  29  40
ATOM     30  C   UNL     1       6.525  -0.873  27.053  0.00  0.00    +0.181 A 
ATOM     31  O   UNL     1       5.553  -1.800  27.458  0.00  0.00    -0.451 OA
ATOM     32  C   UNL     1       5.728  -3.136  27.199  0.00  0.00    +0.147 A 
ATOM     33  C   UNL     1       6.830  -3.616  26.513  0.00  0.00    +0.109 A 
ATOM     34  C   UNL     1       6.935  -4.979  26.197  0.00  0.00    +0.135 A 
ATOM     35  C   UNL     1       5.956  -5.864  26.604  0.00  0.00    +0.091 A 
ATOM     36  C   UNL     1       4.872  -5.406  27.338  0.00  0.00    +0.124 A 
ATOM     37  C   UNL     1       7.883  -2.676  26.151  0.00  0.00    +0.238 A 
ATOM     38  O   UNL     1       8.866  -3.127  25.569  0.00  0.00    -0.283 OA
ATOM     39  C   UNL     1       4.735  -4.033  27.629  0.00  0.00    +0.092 A 
ATOM     40  C   UNL     1       7.703  -1.219  26.462  0.00  0.00    +0.214 A 
BRANCH  30  42
ATOM     41  C   UNL     1       4.725   0.895  26.863  0.00  0.00    +0.015 A 
ATOM     42  C   UNL     1       6.039   0.532  27.258  0.00  0.00    +0.025 A 
ATOM     43  C   UNL     1       6.833   1.528  27.839  0.00  0.00    +0.060 A 
ATOM     44  C   UNL     1       6.358   2.838  27.941  0.00  0.00    +0.159 A 
ATOM     45  C   UNL     1       5.091   3.191  27.487  0.00  0.00    +0.158 A 
ATOM     46  C   UNL     1       4.257   2.216  26.965  0.00  0.00    +0.050 A 
BRANCH  45  47
ATOM     47  O   UNL     1       4.727   4.506  27.574  0.00  0.00    -0.503 OA
ATOM     48  H   UNL     1       5.495   5.057  27.341  0.00  0.00    +0.292 HD
ENDBRANCH  45  47
BRANCH  44  49
ATOM     49  O   UNL     1       7.166   3.800  28.480  0.00  0.00    -0.503 OA
ATOM     50  H   UNL     1       7.306   3.516  29.406  0.00  0.00    +0.292 HD
ENDBRANCH  44  49
ENDBRANCH  30  42
BRANCH  36  51
ATOM     51  O   UNL     1       3.916  -6.267  27.792  0.00  0.00    -0.507 OA
ATOM     52  H   UNL     1       3.117  -5.762  28.032  0.00  0.00    +0.292 HD
ENDBRANCH  36  51
BRANCH  34  53
ATOM     53  O   UNL     1       7.967  -5.504  25.464  0.00  0.00    -0.506 OA
ATOM     54  H   UNL     1       8.784  -5.450  26.011  0.00  0.00    +0.292 HD
ENDBRANCH  34  53
ENDBRANCH  29  40
ENDBRANCH   1  29
TORSDOF 17
ENDMDL
MODEL 7
REMARK VINA RESULT:      -6.7      2.217      3.303
REMARK  Name = 
REMARK  17 active torsions:
REMARK  status: ('A' for Active; 'I' for Inactive)
REMARK    1  A    between atoms: C_3  and  O_47
REMARK    2  A    between atoms: C_4  and  O_46
REMARK    3  A    between atoms: C_6  and  C_7
REMARK    4  A    between atoms: C_8  and  O_20
REMARK    5  A    between atoms: C_12  and  O_19
REMARK    6  A    between atoms: C_14  and  O_18
REMARK    7  A    between atoms: O_20  and  C_21
REMARK    8  A    between atoms: C_23  and  O_34
REMARK    9  A    between atoms: C_25  and  O_33
REMARK   10  A    between atoms: C_26  and  O_32
REMARK   11  A    between atoms: C_28  and  C_30
REMARK   12  A    between atoms: C_30  and  O_31
REMARK   13  A    between atoms: O_34  and  C_35
REMARK   14  A    between atoms: C_35  and  C_37
REMARK   15  A    between atoms: C_39  and  O_45
REMARK   16  A    between atoms: C_40  and  O_44
REMARK   17  A    between atoms: C_41  and  O_43
REMARK                            x       y       z     vdW  Elec       q    Type
REMARK                         _______ _______ _______ _____ _____    ______ ____
ROOT
ATOM      1  C   UNL     1       8.012  -0.760  24.622  0.00  0.00    +0.352 C 
ATOM      2  O   UNL     1       8.822   0.441  24.709  0.00  0.00    -0.330 OA
ATOM      3  C   UNL     1       9.258   1.127  23.534  0.00  0.00    +0.179 C 
ATOM      4  C   UNL     1       9.630   0.197  22.370  0.00  0.00    +0.178 C 
ATOM      5  C   UNL     1       8.806  -1.094  22.347  0.00  0.00    +0.192 C 
ATOM      6  C   UNL     1       8.621  -1.857  23.701  0.00  0.00    +0.276 C 
ENDROOT
BRANCH   5   7
ATOM      7  O   UNL     1       9.168  -1.931  21.256  0.00  0.00    -0.385 OA
ATOM      8  H   UNL     1       8.915  -1.478  20.439  0.00  0.00    +0.210 HD
ENDBRANCH   5   7
BRANCH   4   9
ATOM      9  O   UNL     1       9.455   0.945  21.145  0.00  0.00    -0.386 OA
ATOM     10  H   UNL     1      10.326   1.276  20.847  0.00  0.00    +0.210 HD
ENDBRANCH   4   9
BRANCH   6  11
ATOM     11  O   UNL     1       9.692  -2.726  24.329  0.00  0.00    -0.449 OA
BRANCH  11  12
ATOM     12  C   UNL     1       9.357  -4.088  24.518  0.00  0.00    +0.340 C 
ATOM     13  O   UNL     1      10.171  -4.875  25.001  0.00  0.00    -0.245 OA
BRANCH  12  14
ATOM     14  C   UNL     1       7.975  -4.705  24.142  0.00  0.00    +0.066 A 
ATOM     15  C   UNL     1       7.633  -5.189  22.870  0.00  0.00    +0.064 A 
ATOM     16  C   UNL     1       6.372  -5.797  22.653  0.00  0.00    +0.163 A 
ATOM     17  C   UNL     1       5.432  -5.945  23.664  0.00  0.00    +0.201 A 
ATOM     18  C   UNL     1       5.721  -5.475  24.927  0.00  0.00    +0.163 A 
ATOM     19  C   UNL     1       6.970  -4.852  25.170  0.00  0.00    +0.064 A 
BRANCH  18  20
ATOM     20  O   UNL     1       4.752  -5.667  25.878  0.00  0.00    -0.503 OA
ATOM     21  H   UNL     1       4.745  -6.595  26.167  0.00  0.00    +0.292 HD
ENDBRANCH  18  20
BRANCH  17  22
ATOM     22  O   UNL     1       4.240  -6.577  23.388  0.00  0.00    -0.501 OA
ATOM     23  H   UNL     1       3.538  -5.929  23.601  0.00  0.00    +0.292 HD
ENDBRANCH  17  22
BRANCH  16  24
ATOM     24  O   UNL     1       6.053  -6.283  21.412  0.00  0.00    -0.503 OA
ATOM     25  H   UNL     1       5.069  -6.250  21.374  0.00  0.00    +0.292 HD
ENDBRANCH  16  24
ENDBRANCH  12  14
ENDBRANCH  11  12
ENDBRANCH   6  11
BRANCH   3  26
ATOM     26  C   UNL     1      10.538   1.961  23.865  0.00  0.00    +0.190 C 
BRANCH  26  27
ATOM     27  O   UNL     1      10.684   3.146  23.087  0.00  0.00    -0.392 OA
ATOM     28  H   UNL     1      10.863   3.888  23.686  0.00  0.00    +0.210 HD
ENDBRANCH  26  27
ENDBRANCH   3  26
BRANCH   1  29
ATOM     29  O   UNL     1       6.633  -0.508  24.171  0.00  0.00    -0.452 OA
BRANCH  29  40
ATOM     30  C   UNL     1       5.502   1.367  25.299  0.00  0.00    +0.181 A 
ATOM     31  O   UNL     1       4.638   1.886  26.275  0.00  0.00    -0.451 OA
ATOM     32  C   UNL     1       3.956   1.037  27.109  0.00  0.00    +0.147 A 
ATOM     33  C   UNL     1       4.060  -0.340  27.007  0.00  0.00    +0.109 A 
ATOM     34  C   UNL     1       3.285  -1.176  27.825  0.00  0.00    +0.135 A 
ATOM     35  C   UNL     1       2.439  -0.633  28.771  0.00  0.00    +0.091 A 
ATOM     36  C   UNL     1       2.364   0.744  28.921  0.00  0.00    +0.124 A 
ATOM     37  C   UNL     1       5.007  -0.892  26.048  0.00  0.00    +0.238 A 
ATOM     38  O   UNL     1       5.106  -2.115  25.992  0.00  0.00    -0.283 OA
ATOM     39  C   UNL     1       3.108   1.597  28.080  0.00  0.00    +0.092 A 
ATOM     40  C   UNL     1       5.775   0.039  25.156  0.00  0.00    +0.214 A 
BRANCH  30  42
ATOM     41  C   UNL     1       5.414   2.593  23.086  0.00  0.00    +0.015 A 
ATOM     42  C   UNL     1       5.981   2.453  24.380  0.00  0.00    +0.025 A 
ATOM     43  C   UNL     1       6.981   3.362  24.746  0.00  0.00    +0.060 A 
ATOM     44  C   UNL     1       7.441   4.309  23.827  0.00  0.00    +0.159 A 
ATOM     45  C   UNL     1       6.920   4.390  22.540  0.00  0.00    +0.158 A 
ATOM     46  C   UNL     1       5.887   3.546  22.168  0.00  0.00    +0.050 A 
BRANCH  45  47
ATOM     47  O   UNL     1       7.467   5.308  21.686  0.00  0.00    -0.503 OA
ATOM     48  H   UNL     1       8.154   4.869  21.156  0.00  0.00    +0.292 HD
ENDBRANCH  45  47
BRANCH  44  49
ATOM     49  O   UNL     1       8.444   5.164  24.196  0.00  0.00    -0.503 OA
ATOM     50  H   UNL     1       8.004   5.831  24.761  0.00  0.00    +0.292 HD
ENDBRANCH  44  49
ENDBRANCH  30  42
BRANCH  36  51
ATOM     51  O   UNL     1       1.571   1.305  29.881  0.00  0.00    -0.507 OA
ATOM     52  H   UNL     1       0.946   1.924  29.459  0.00  0.00    +0.292 HD
ENDBRANCH  36  51
BRANCH  34  53
ATOM     53  O   UNL     1       3.295  -2.543  27.726  0.00  0.00    -0.506 OA
ATOM     54  H   UNL     1       4.077  -2.877  28.222  0.00  0.00    +0.292 HD
ENDBRANCH  34  53
ENDBRANCH  29  40
ENDBRANCH   1  29
TORSDOF 17
ENDMDL
MODEL 8
REMARK VINA RESULT:      -6.7      2.131      6.902
REMARK  Name = 
REMARK  17 active torsions:
REMARK  status: ('A' for Active; 'I' for Inactive)
REMARK    1  A    between atoms: C_3  and  O_47
REMARK    2  A    between atoms: C_4  and  O_46
REMARK    3  A    between atoms: C_6  and  C_7
REMARK    4  A    between atoms: C_8  and  O_20
REMARK    5  A    between atoms: C_12  and  O_19
REMARK    6  A    between atoms: C_14  and  O_18
REMARK    7  A    between atoms: O_20  and  C_21
REMARK    8  A    between atoms: C_23  and  O_34
REMARK    9  A    between atoms: C_25  and  O_33
REMARK   10  A    between atoms: C_26  and  O_32
REMARK   11  A    between atoms: C_28  and  C_30
REMARK   12  A    between atoms: C_30  and  O_31
REMARK   13  A    between atoms: O_34  and  C_35
REMARK   14  A    between atoms: C_35  and  C_37
REMARK   15  A    between atoms: C_39  and  O_45
REMARK   16  A    between atoms: C_40  and  O_44
REMARK   17  A    between atoms: C_41  and  O_43
REMARK                            x       y       z     vdW  Elec       q    Type
REMARK                         _______ _______ _______ _____ _____    ______ ____
ROOT
ATOM      1  C   UNL     1       7.634  -1.937  24.962  0.00  0.00    +0.352 C 
ATOM      2  O   UNL     1       6.830  -2.161  23.775  0.00  0.00    -0.330 OA
ATOM      3  C   UNL     1       6.634  -3.474  23.249  0.00  0.00    +0.179 C 
ATOM      4  C   UNL     1       7.870  -4.378  23.352  0.00  0.00    +0.178 C 
ATOM      5  C   UNL     1       8.738  -4.071  24.576  0.00  0.00    +0.192 C 
ATOM      6  C   UNL     1       9.055  -2.569  24.877  0.00  0.00    +0.276 C 
ENDROOT
BRANCH   5   7
ATOM      7  O   UNL     1       9.870  -4.928  24.647  0.00  0.00    -0.385 OA
ATOM      8  H   UNL     1       9.623  -5.703  25.172  0.00  0.00    +0.210 HD
ENDBRANCH   5   7
BRANCH   4   9
ATOM      9  O   UNL     1       7.404  -5.748  23.377  0.00  0.00    -0.386 OA
ATOM     10  H   UNL     1       8.143  -6.329  23.645  0.00  0.00    +0.210 HD
ENDBRANCH   4   9
BRANCH   6  11
ATOM     11  O   UNL     1      10.093  -1.762  24.124  0.00  0.00    -0.449 OA
BRANCH  11  12
ATOM     12  C   UNL     1       9.670  -1.191  22.900  0.00  0.00    +0.340 C 
ATOM     13  O   UNL     1       9.612  -1.870  21.875  0.00  0.00    -0.245 OA
BRANCH  12  14
ATOM     14  C   UNL     1       9.256   0.304  22.734  0.00  0.00    +0.066 A 
ATOM     15  C   UNL     1       7.963   0.746  22.417  0.00  0.00    +0.064 A 
ATOM     16  C   UNL     1       7.676   2.132  22.359  0.00  0.00    +0.163 A 
ATOM     17  C   UNL     1       8.636   3.102  22.611  0.00  0.00    +0.201 A 
ATOM     18  C   UNL     1       9.923   2.715  22.916  0.00  0.00    +0.163 A 
ATOM     19  C   UNL     1      10.241   1.334  22.969  0.00  0.00    +0.064 A 
BRANCH  18  20
ATOM     20  O   UNL     1      10.814   3.726  23.165  0.00  0.00    -0.503 OA
ATOM     21  H   UNL     1      11.573   3.388  23.668  0.00  0.00    +0.292 HD
ENDBRANCH  18  20
BRANCH  17  22
ATOM     22  O   UNL     1       8.277   4.431  22.569  0.00  0.00    -0.501 OA
ATOM     23  H   UNL     1       8.097   4.688  23.496  0.00  0.00    +0.292 HD
ENDBRANCH  17  22
BRANCH  16  24
ATOM     24  O   UNL     1       6.406   2.555  22.066  0.00  0.00    -0.503 OA
ATOM     25  H   UNL     1       6.426   3.530  22.208  0.00  0.00    +0.292 HD
ENDBRANCH  16  24
ENDBRANCH  12  14
ENDBRANCH  11  12
ENDBRANCH   6  11
BRANCH   3  26
ATOM     26  C   UNL     1       6.277  -3.376  21.730  0.00  0.00    +0.190 C 
BRANCH  26  27
ATOM     27  O   UNL     1       5.562  -4.500  21.222  0.00  0.00    -0.392 OA
ATOM     28  H   UNL     1       6.204  -5.167  20.933  0.00  0.00    +0.210 HD
ENDBRANCH  26  27
ENDBRANCH   3  26
BRANCH   1  29
ATOM     29  O   UNL     1       7.001  -2.417  26.201  0.00  0.00    -0.452 OA
BRANCH  29  40
ATOM     30  C   UNL     1       4.539  -2.417  26.220  0.00  0.00    +0.181 A 
ATOM     31  O   UNL     1       3.302  -1.828  26.525  0.00  0.00    -0.451 OA
ATOM     32  C   UNL     1       3.259  -0.633  27.197  0.00  0.00    +0.147 A 
ATOM     33  C   UNL     1       4.404   0.017  27.623  0.00  0.00    +0.109 A 
ATOM     34  C   UNL     1       4.316   1.197  28.377  0.00  0.00    +0.135 A 
ATOM     35  C   UNL     1       3.082   1.746  28.667  0.00  0.00    +0.091 A 
ATOM     36  C   UNL     1       1.927   1.135  28.201  0.00  0.00    +0.124 A 
ATOM     37  C   UNL     1       5.696  -0.544  27.251  0.00  0.00    +0.238 A 
ATOM     38  O   UNL     1       6.700   0.063  27.613  0.00  0.00    -0.283 OA
ATOM     39  C   UNL     1       2.000  -0.072  27.476  0.00  0.00    +0.092 A 
ATOM     40  C   UNL     1       5.742  -1.837  26.490  0.00  0.00    +0.214 A 
BRANCH  30  42
ATOM     41  C   UNL     1       4.872  -4.921  26.363  0.00  0.00    +0.015 A 
ATOM     42  C   UNL     1       4.348  -3.800  25.669  0.00  0.00    +0.025 A 
ATOM     43  C   UNL     1       3.658  -4.047  24.476  0.00  0.00    +0.060 A 
ATOM     44  C   UNL     1       3.571  -5.347  23.969  0.00  0.00    +0.159 A 
ATOM     45  C   UNL     1       4.147  -6.427  24.630  0.00  0.00    +0.158 A 
ATOM     46  C   UNL     1       4.784  -6.224  25.843  0.00  0.00    +0.050 A 
BRANCH  45  47
ATOM     47  O   UNL     1       4.064  -7.656  24.036  0.00  0.00    -0.503 OA
ATOM     48  H   UNL     1       4.894  -7.826  23.556  0.00  0.00    +0.292 HD
ENDBRANCH  45  47
BRANCH  44  49
ATOM     49  O   UNL     1       2.922  -5.558  22.784  0.00  0.00    -0.503 OA
ATOM     50  H   UNL     1       2.113  -5.010  22.844  0.00  0.00    +0.292 HD
ENDBRANCH  44  49
ENDBRANCH  30  42
BRANCH  36  51
ATOM     51  O   UNL     1       0.699   1.683  28.434  0.00  0.00    -0.507 OA
ATOM     52  H   UNL     1       0.782   2.655  28.464  0.00  0.00    +0.292 HD
ENDBRANCH  36  51
BRANCH  34  53
ATOM     53  O   UNL     1       5.410   1.849  28.883  0.00  0.00    -0.506 OA
ATOM     54  H   UNL     1       5.175   2.181  29.780  0.00  0.00    +0.292 HD
ENDBRANCH  34  53
ENDBRANCH  29  40
ENDBRANCH   1  29
TORSDOF 17
ENDMDL
MODEL 9
REMARK VINA RESULT:      -6.7      2.211      4.913
REMARK  Name = 
REMARK  17 active torsions:
REMARK  status: ('A' for Active; 'I' for Inactive)
REMARK    1  A    between atoms: C_3  and  O_47
REMARK    2  A    between atoms: C_4  and  O_46
REMARK    3  A    between atoms: C_6  and  C_7
REMARK    4  A    between atoms: C_8  and  O_20
REMARK    5  A    between atoms: C_12  and  O_19
REMARK    6  A    between atoms: C_14  and  O_18
REMARK    7  A    between atoms: O_20  and  C_21
REMARK    8  A    between atoms: C_23  and  O_34
REMARK    9  A    between atoms: C_25  and  O_33
REMARK   10  A    between atoms: C_26  and  O_32
REMARK   11  A    between atoms: C_28  and  C_30
REMARK   12  A    between atoms: C_30  and  O_31
REMARK   13  A    between atoms: O_34  and  C_35
REMARK   14  A    between atoms: C_35  and  C_37
REMARK   15  A    between atoms: C_39  and  O_45
REMARK   16  A    between atoms: C_40  and  O_44
REMARK   17  A    between atoms: C_41  and  O_43
REMARK                            x       y       z     vdW  Elec       q    Type
REMARK                         _______ _______ _______ _____ _____    ______ ____
ROOT
ATOM      1  C   UNL     1       6.601  -2.206  25.562  0.00  0.00    +0.352 C 
ATOM      2  O   UNL     1       7.328  -3.406  25.932  0.00  0.00    -0.330 OA
ATOM      3  C   UNL     1       8.644  -3.658  25.439  0.00  0.00    +0.179 C 
ATOM      4  C   UNL     1       8.861  -3.213  23.986  0.00  0.00    +0.178 C 
ATOM      5  C   UNL     1       8.027  -1.987  23.603  0.00  0.00    +0.192 C 
ATOM      6  C   UNL     1       6.520  -1.978  24.024  0.00  0.00    +0.276 C 
ENDROOT
BRANCH   5   7
ATOM      7  O   UNL     1       8.254  -1.595  22.255  0.00  0.00    -0.385 OA
ATOM      8  H   UNL     1       9.210  -1.596  22.103  0.00  0.00    +0.210 HD
ENDBRANCH   5   7
BRANCH   4   9
ATOM      9  O   UNL     1      10.274  -2.952  23.818  0.00  0.00    -0.386 OA
ATOM     10  H   UNL     1      10.406  -2.425  23.006  0.00  0.00    +0.210 HD
ENDBRANCH   4   9
BRANCH   6  11
ATOM     11  O   UNL     1       5.440  -2.755  23.297  0.00  0.00    -0.449 OA
BRANCH  11  12
ATOM     12  C   UNL     1       5.734  -4.108  23.007  0.00  0.00    +0.340 C 
ATOM     13  O   UNL     1       6.566  -4.401  22.147  0.00  0.00    -0.245 OA
BRANCH  12  14
ATOM     14  C   UNL     1       5.055  -5.319  23.716  0.00  0.00    +0.066 A 
ATOM     15  C   UNL     1       5.384  -5.783  24.999  0.00  0.00    +0.064 A 
ATOM     16  C   UNL     1       4.654  -6.849  25.581  0.00  0.00    +0.163 A 
ATOM     17  C   UNL     1       3.599  -7.473  24.930  0.00  0.00    +0.201 A 
ATOM     18  C   UNL     1       3.247  -7.057  23.664  0.00  0.00    +0.163 A 
ATOM     19  C   UNL     1       3.968  -6.001  23.053  0.00  0.00    +0.064 A 
BRANCH  18  20
ATOM     20  O   UNL     1       2.188  -7.709  23.088  0.00  0.00    -0.503 OA
ATOM     21  H   UNL     1       1.869  -7.214  22.316  0.00  0.00    +0.292 HD
ENDBRANCH  18  20
BRANCH  17  22
ATOM     22  O   UNL     1       2.914  -8.480  25.571  0.00  0.00    -0.501 OA
ATOM     23  H   UNL     1       2.498  -8.065  26.354  0.00  0.00    +0.292 HD
ENDBRANCH  17  22
BRANCH  16  24
ATOM     24  O   UNL     1       4.971  -7.285  26.841  0.00  0.00    -0.503 OA
ATOM     25  H   UNL     1       4.715  -6.542  27.436  0.00  0.00    +0.292 HD
ENDBRANCH  16  24
ENDBRANCH  12  14
ENDBRANCH  11  12
ENDBRANCH   6  11
BRANCH   3  26
ATOM     26  C   UNL     1       8.929  -5.194  25.483  0.00  0.00    +0.190 C 
BRANCH  26  27
ATOM     27  O   UNL     1      10.306  -5.540  25.354  0.00  0.00    -0.392 OA
ATOM     28  H   UNL     1      10.733  -4.888  24.775  0.00  0.00    +0.210 HD
ENDBRANCH  26  27
ENDBRANCH   3  26
BRANCH   1  29
ATOM     29  O   UNL     1       7.141  -0.979  26.170  0.00  0.00    -0.452 OA
BRANCH  29  40
ATOM     30  C   UNL     1       6.281   1.250  25.575  0.00  0.00    +0.181 A 
ATOM     31  O   UNL     1       5.346   2.290  25.693  0.00  0.00    -0.451 OA
ATOM     32  C   UNL     1       4.251   2.138  26.506  0.00  0.00    +0.147 A 
ATOM     33  C   UNL     1       4.006   0.969  27.204  0.00  0.00    +0.109 A 
ATOM     34  C   UNL     1       2.835   0.823  27.962  0.00  0.00    +0.135 A 
ATOM     35  C   UNL     1       1.931   1.863  28.052  0.00  0.00    +0.091 A 
ATOM     36  C   UNL     1       2.189   3.060  27.401  0.00  0.00    +0.124 A 
ATOM     37  C   UNL     1       5.004  -0.091  27.149  0.00  0.00    +0.238 A 
ATOM     38  O   UNL     1       4.782  -1.110  27.798  0.00  0.00    -0.283 OA
ATOM     39  C   UNL     1       3.343   3.207  26.605  0.00  0.00    +0.092 A 
ATOM     40  C   UNL     1       6.217   0.087  26.282  0.00  0.00    +0.214 A 
BRANCH  30  42
ATOM     41  C   UNL     1       6.845   1.701  23.149  0.00  0.00    +0.015 A 
ATOM     42  C   UNL     1       7.277   1.551  24.493  0.00  0.00    +0.025 A 
ATOM     43  C   UNL     1       8.645   1.701  24.749  0.00  0.00    +0.060 A 
ATOM     44  C   UNL     1       9.540   1.909  23.695  0.00  0.00    +0.159 A 
ATOM     45  C   UNL     1       9.107   1.987  22.375  0.00  0.00    +0.158 A 
ATOM     46  C   UNL     1       7.753   1.905  22.096  0.00  0.00    +0.050 A 
BRANCH  45  47
ATOM     47  O   UNL     1      10.055   2.136  21.401  0.00  0.00    -0.503 OA
ATOM     48  H   UNL     1      10.051   3.063  21.103  0.00  0.00    +0.292 HD
ENDBRANCH  45  47
BRANCH  44  49
ATOM     49  O   UNL     1      10.876   2.017  23.967  0.00  0.00    -0.503 OA
ATOM     50  H   UNL     1      10.935   1.962  24.943  0.00  0.00    +0.292 HD
ENDBRANCH  44  49
ENDBRANCH  30  42
BRANCH  36  51
ATOM     51  O   UNL     1       1.335   4.119  27.512  0.00  0.00    -0.507 OA
ATOM     52  H   UNL     1       0.434   3.832  27.272  0.00  0.00    +0.292 HD
ENDBRANCH  36  51
BRANCH  34  53
ATOM     53  O   UNL     1       2.504  -0.333  28.620  0.00  0.00    -0.506 OA
ATOM     54  H   UNL     1       3.327  -0.861  28.735  0.00  0.00    +0.292 HD
ENDBRANCH  34  53
ENDBRANCH  29  40
ENDBRANCH   1  29
TORSDOF 17
ENDMDL
