MODEL 1
REMARK VINA RESULT:      -7.7      0.000      0.000
REMARK  Name = 
REMARK  16 active torsions:
REMARK  status: ('A' for Active; 'I' for Inactive)
REMARK    1  A    between atoms: C_2  and  O_47
REMARK    2  A    between atoms: C_4  and  O_46
REMARK    3  A    between atoms: C_6  and  O_34
REMARK    4  A    between atoms: C_8  and  O_11
REMARK    5  A    between atoms: O_11  and  O_12
REMARK    6  A    between atoms: O_12  and  C_13
REMARK    7  A    between atoms: C_14  and  C_26
REMARK    8  A    between atoms: C_18  and  O_25
REMARK    9  A    between atoms: C_20  and  O_24
REMARK   10  A    between atoms: C_28  and  O_33
REMARK   11  A    between atoms: C_29  and  O_32
REMARK   12  A    between atoms: O_34  and  C_35
REMARK   13  A    between atoms: C_35  and  C_37
REMARK   14  A    between atoms: C_39  and  O_45
REMARK   15  A    between atoms: C_40  and  O_44
REMARK   16  A    between atoms: C_41  and  O_43
REMARK                            x       y       z     vdW  Elec       q    Type
REMARK                         _______ _______ _______ _____ _____    ______ ____
ROOT
ATOM      1  O   UNL     1       5.393  -2.303  26.838  0.00  0.00    -0.150 OA
ENDROOT
BRANCH   1   4
ATOM      2  C   UNL     1       4.019  -4.822  29.046  0.00  0.00    +0.197 C 
ATOM      3  O   UNL     1       4.395  -3.529  28.566  0.00  0.00    -0.342 OA
ATOM      4  C   UNL     1       5.083  -3.604  27.305  0.00  0.00    +0.343 C 
ATOM      5  C   UNL     1       6.419  -4.366  27.456  0.00  0.00    +0.267 C 
ATOM      6  C   UNL     1       6.123  -5.764  28.028  0.00  0.00    +0.191 C 
ATOM      7  C   UNL     1       5.270  -5.659  29.310  0.00  0.00    +0.172 C 
BRANCH   7   8
ATOM      8  O   UNL     1       6.023  -5.058  30.371  0.00  0.00    -0.387 OA
ATOM      9  H   UNL     1       6.293  -5.766  30.988  0.00  0.00    +0.210 HD
ENDBRANCH   7   8
BRANCH   6  10
ATOM     10  O   UNL     1       7.345  -6.470  28.270  0.00  0.00    -0.385 OA
ATOM     11  H   UNL     1       7.257  -7.361  27.892  0.00  0.00    +0.210 HD
ENDBRANCH   6  10
BRANCH   5  12
ATOM     12  O   UNL     1       7.236  -4.407  26.245  0.00  0.00    -0.450 OA
BRANCH  12  13
ATOM     13  C   UNL     1       8.560  -4.164  26.346  0.00  0.00    +0.340 C 
ATOM     14  O   UNL     1       9.357  -4.875  26.937  0.00  0.00    -0.245 OA
BRANCH  13  15
ATOM     15  C   UNL     1       8.970  -2.907  25.663  0.00  0.00    +0.066 A 
ATOM     16  C   UNL     1       8.742  -1.625  26.189  0.00  0.00    +0.064 A 
ATOM     17  C   UNL     1       9.224  -0.514  25.497  0.00  0.00    +0.163 A 
ATOM     18  C   UNL     1       9.897  -0.663  24.289  0.00  0.00    +0.201 A 
ATOM     19  C   UNL     1      10.096  -1.927  23.752  0.00  0.00    +0.163 A 
ATOM     20  C   UNL     1       9.641  -3.051  24.433  0.00  0.00    +0.064 A 
BRANCH  19  21
ATOM     21  O   UNL     1      10.747  -2.020  22.554  0.00  0.00    -0.503 OA
ATOM     22  H   UNL     1      11.233  -1.190  22.404  0.00  0.00    +0.292 HD
ENDBRANCH  19  21
BRANCH  18  23
ATOM     23  O   UNL     1      10.367   0.447  23.638  0.00  0.00    -0.501 OA
ATOM     24  H   UNL     1      10.965   0.874  24.284  0.00  0.00    +0.292 HD
ENDBRANCH  18  23
BRANCH  17  25
ATOM     25  O   UNL     1       9.041   0.737  26.014  0.00  0.00    -0.503 OA
ATOM     26  H   UNL     1       8.648   1.254  25.282  0.00  0.00    +0.292 HD
ENDBRANCH  17  25
ENDBRANCH  13  15
ENDBRANCH  12  13
ENDBRANCH   5  12
ENDBRANCH   1   4
BRANCH   1  27
ATOM     27  O   UNL     1       4.565  -2.069  25.669  0.00  0.00    -0.325 OA
BRANCH  27  28
ATOM     28  C   UNL     1       5.250  -1.163  24.868  0.00  0.00    +0.256 A 
ATOM     29  C   UNL     1       5.207   0.299  25.198  0.00  0.00    +0.242 A 
ATOM     30  O   UNL     1       4.459   0.751  26.057  0.00  0.00    -0.283 OA
ATOM     31  C   UNL     1       6.053   1.193  24.393  0.00  0.00    +0.109 A 
ATOM     32  C   UNL     1       6.728   0.643  23.306  0.00  0.00    +0.147 A 
ATOM     33  C   UNL     1       7.514   1.456  22.482  0.00  0.00    +0.092 A 
ATOM     34  C   UNL     1       7.601   2.820  22.749  0.00  0.00    +0.124 A 
ATOM     35  C   UNL     1       6.930   3.383  23.826  0.00  0.00    +0.091 A 
ATOM     36  O   UNL     1       6.646  -0.683  22.960  0.00  0.00    -0.451 OA
ATOM     37  C   UNL     1       6.162   2.568  24.654  0.00  0.00    +0.135 A 
ATOM     38  C   UNL     1       5.899  -1.553  23.751  0.00  0.00    +0.185 A 
BRANCH  38  39
ATOM     39  C   UNL     1       5.903  -2.957  23.224  0.00  0.00    +0.025 A 
ATOM     40  C   UNL     1       7.059  -3.466  22.593  0.00  0.00    +0.015 A 
ATOM     41  C   UNL     1       7.079  -4.742  22.012  0.00  0.00    +0.050 A 
ATOM     42  C   UNL     1       5.945  -5.531  22.074  0.00  0.00    +0.158 A 
ATOM     43  C   UNL     1       4.797  -5.067  22.705  0.00  0.00    +0.159 A 
ATOM     44  C   UNL     1       4.762  -3.787  23.256  0.00  0.00    +0.060 A 
BRANCH  43  45
ATOM     45  O   UNL     1       3.719  -5.910  22.751  0.00  0.00    -0.503 OA
ATOM     46  H   UNL     1       3.960  -6.675  23.301  0.00  0.00    +0.292 HD
ENDBRANCH  43  45
BRANCH  42  47
ATOM     47  O   UNL     1       5.960  -6.771  21.498  0.00  0.00    -0.503 OA
ATOM     48  H   UNL     1       5.219  -7.250  21.920  0.00  0.00    +0.292 HD
ENDBRANCH  42  47
ENDBRANCH  38  39
BRANCH  37  49
ATOM     49  O   UNL     1       5.522   3.139  25.716  0.00  0.00    -0.506 OA
ATOM     50  H   UNL     1       4.674   2.700  25.886  0.00  0.00    +0.292 HD
ENDBRANCH  37  49
BRANCH  34  51
ATOM     51  O   UNL     1       8.336   3.657  21.965  0.00  0.00    -0.507 OA
ATOM     52  H   UNL     1       7.910   4.526  21.929  0.00  0.00    +0.292 HD
ENDBRANCH  34  51
ENDBRANCH  27  28
ENDBRANCH   1  27
TORSDOF 16
ENDMDL
MODEL 2
REMARK VINA RESULT:      -7.6      2.043      4.396
REMARK  Name = 
REMARK  16 active torsions:
REMARK  status: ('A' for Active; 'I' for Inactive)
REMARK    1  A    between atoms: C_2  and  O_47
REMARK    2  A    between atoms: C_4  and  O_46
REMARK    3  A    between atoms: C_6  and  O_34
REMARK    4  A    between atoms: C_8  and  O_11
REMARK    5  A    between atoms: O_11  and  O_12
REMARK    6  A    between atoms: O_12  and  C_13
REMARK    7  A    between atoms: C_14  and  C_26
REMARK    8  A    between atoms: C_18  and  O_25
REMARK    9  A    between atoms: C_20  and  O_24
REMARK   10  A    between atoms: C_28  and  O_33
REMARK   11  A    between atoms: C_29  and  O_32
REMARK   12  A    between atoms: O_34  and  C_35
REMARK   13  A    between atoms: C_35  and  C_37
REMARK   14  A    between atoms: C_39  and  O_45
REMARK   15  A    between atoms: C_40  and  O_44
REMARK   16  A    between atoms: C_41  and  O_43
REMARK                            x       y       z     vdW  Elec       q    Type
REMARK                         _______ _______ _______ _____ _____    ______ ____
ROOT
ATOM      1  O   UNL     1       5.964  -1.634  23.732  0.00  0.00    -0.150 OA
ENDROOT
BRANCH   1   4
ATOM      2  C   UNL     1       4.104  -4.701  23.236  0.00  0.00    +0.197 C 
ATOM      3  O   UNL     1       4.542  -3.491  23.860  0.00  0.00    -0.342 OA
ATOM      4  C   UNL     1       5.594  -2.854  23.113  0.00  0.00    +0.343 C 
ATOM      5  C   UNL     1       6.854  -3.747  23.071  0.00  0.00    +0.267 C 
ATOM      6  C   UNL     1       6.469  -5.108  22.466  0.00  0.00    +0.191 C 
ATOM      7  C   UNL     1       5.252  -5.709  23.202  0.00  0.00    +0.172 C 
BRANCH   7   8
ATOM      8  O   UNL     1       5.602  -6.071  24.544  0.00  0.00    -0.387 OA
ATOM      9  H   UNL     1       6.296  -6.757  24.500  0.00  0.00    +0.210 HD
ENDBRANCH   7   8
BRANCH   6  10
ATOM     10  O   UNL     1       7.590  -5.999  22.495  0.00  0.00    -0.385 OA
ATOM     11  H   UNL     1       7.384  -6.759  21.924  0.00  0.00    +0.210 HD
ENDBRANCH   6  10
BRANCH   5  12
ATOM     12  O   UNL     1       8.010  -3.138  22.418  0.00  0.00    -0.450 OA
BRANCH  12  13
ATOM     13  C   UNL     1       9.072  -2.786  23.171  0.00  0.00    +0.340 C 
ATOM     14  O   UNL     1       9.693  -3.544  23.900  0.00  0.00    -0.245 OA
BRANCH  13  15
ATOM     15  C   UNL     1       9.421  -1.345  23.042  0.00  0.00    +0.066 A 
ATOM     16  C   UNL     1      10.282  -0.671  23.922  0.00  0.00    +0.064 A 
ATOM     17  C   UNL     1      10.593   0.666  23.673  0.00  0.00    +0.163 A 
ATOM     18  C   UNL     1      10.039   1.337  22.587  0.00  0.00    +0.201 A 
ATOM     19  C   UNL     1       9.164   0.681  21.735  0.00  0.00    +0.163 A 
ATOM     20  C   UNL     1       8.854  -0.657  21.951  0.00  0.00    +0.064 A 
BRANCH  19  21
ATOM     21  O   UNL     1       8.633   1.387  20.692  0.00  0.00    -0.503 OA
ATOM     22  H   UNL     1       9.350   1.599  20.069  0.00  0.00    +0.292 HD
ENDBRANCH  19  21
BRANCH  18  23
ATOM     23  O   UNL     1      10.371   2.647  22.364  0.00  0.00    -0.501 OA
ATOM     24  H   UNL     1      11.266   2.741  22.749  0.00  0.00    +0.292 HD
ENDBRANCH  18  23
BRANCH  17  25
ATOM     25  O   UNL     1      11.456   1.326  24.500  0.00  0.00    -0.503 OA
ATOM     26  H   UNL     1      11.967   1.915  23.909  0.00  0.00    +0.292 HD
ENDBRANCH  17  25
ENDBRANCH  13  15
ENDBRANCH  12  13
ENDBRANCH   5  12
ENDBRANCH   1   4
BRANCH   1  27
ATOM     27  O   UNL     1       4.913  -1.309  24.680  0.00  0.00    -0.325 OA
BRANCH  27  28
ATOM     28  C   UNL     1       5.471  -0.442  25.613  0.00  0.00    +0.256 A 
ATOM     29  C   UNL     1       5.340   1.039  25.419  0.00  0.00    +0.242 A 
ATOM     30  O   UNL     1       4.896   1.525  24.385  0.00  0.00    -0.283 OA
ATOM     31  C   UNL     1       5.836   1.903  26.502  0.00  0.00    +0.109 A 
ATOM     32  C   UNL     1       6.506   1.296  27.561  0.00  0.00    +0.147 A 
ATOM     33  C   UNL     1       7.034   2.073  28.597  0.00  0.00    +0.092 A 
ATOM     34  C   UNL     1       6.900   3.459  28.550  0.00  0.00    +0.124 A 
ATOM     35  C   UNL     1       6.238   4.078  27.498  0.00  0.00    +0.091 A 
ATOM     36  O   UNL     1       6.715  -0.059  27.644  0.00  0.00    -0.451 OA
ATOM     37  C   UNL     1       5.699   3.300  26.477  0.00  0.00    +0.135 A 
ATOM     38  C   UNL     1       6.195  -0.894  26.658  0.00  0.00    +0.185 A 
BRANCH  38  39
ATOM     39  C   UNL     1       6.527  -2.337  26.892  0.00  0.00    +0.025 A 
ATOM     40  C   UNL     1       5.581  -3.184  27.510  0.00  0.00    +0.015 A 
ATOM     41  C   UNL     1       5.880  -4.517  27.826  0.00  0.00    +0.050 A 
ATOM     42  C   UNL     1       7.127  -5.023  27.506  0.00  0.00    +0.158 A 
ATOM     43  C   UNL     1       8.074  -4.223  26.880  0.00  0.00    +0.159 A 
ATOM     44  C   UNL     1       7.793  -2.887  26.594  0.00  0.00    +0.060 A 
BRANCH  43  45
ATOM     45  O   UNL     1       9.278  -4.796  26.571  0.00  0.00    -0.503 OA
ATOM     46  H   UNL     1       9.522  -5.395  27.297  0.00  0.00    +0.292 HD
ENDBRANCH  43  45
BRANCH  42  47
ATOM     47  O   UNL     1       7.423  -6.321  27.823  0.00  0.00    -0.503 OA
ATOM     48  H   UNL     1       6.727  -6.587  28.457  0.00  0.00    +0.292 HD
ENDBRANCH  42  47
ENDBRANCH  38  39
BRANCH  37  49
ATOM     49  O   UNL     1       5.040   3.927  25.459  0.00  0.00    -0.506 OA
ATOM     50  H   UNL     1       5.462   3.739  24.606  0.00  0.00    +0.292 HD
ENDBRANCH  37  49
BRANCH  34  51
ATOM     51  O   UNL     1       7.414   4.261  29.523  0.00  0.00    -0.507 OA
ATOM     52  H   UNL     1       7.203   3.891  30.393  0.00  0.00    +0.292 HD
ENDBRANCH  34  51
ENDBRANCH  27  28
ENDBRANCH   1  27
TORSDOF 16
ENDMDL
MODEL 3
REMARK VINA RESULT:      -7.5      1.011      1.919
REMARK  Name = 
REMARK  16 active torsions:
REMARK  status: ('A' for Active; 'I' for Inactive)
REMARK    1  A    between atoms: C_2  and  O_47
REMARK    2  A    between atoms: C_4  and  O_46
REMARK    3  A    between atoms: C_6  and  O_34
REMARK    4  A    between atoms: C_8  and  O_11
REMARK    5  A    between atoms: O_11  and  O_12
REMARK    6  A    between atoms: O_12  and  C_13
REMARK    7  A    between atoms: C_14  and  C_26
REMARK    8  A    between atoms: C_18  and  O_25
REMARK    9  A    between atoms: C_20  and  O_24
REMARK   10  A    between atoms: C_28  and  O_33
REMARK   11  A    between atoms: C_29  and  O_32
REMARK   12  A    between atoms: O_34  and  C_35
REMARK   13  A    between atoms: C_35  and  C_37
REMARK   14  A    between atoms: C_39  and  O_45
REMARK   15  A    between atoms: C_40  and  O_44
REMARK   16  A    between atoms: C_41  and  O_43
REMARK                            x       y       z     vdW  Elec       q    Type
REMARK                         _______ _______ _______ _____ _____    ______ ____
ROOT
ATOM      1  O   UNL     1       5.319  -2.200  27.143  0.00  0.00    -0.150 OA
ENDROOT
BRANCH   1   4
ATOM      2  C   UNL     1       3.725  -4.388  29.548  0.00  0.00    +0.197 C 
ATOM      3  O   UNL     1       4.346  -3.214  29.016  0.00  0.00    -0.342 OA
ATOM      4  C   UNL     1       4.758  -3.398  27.651  0.00  0.00    +0.343 C 
ATOM      5  C   UNL     1       5.846  -4.492  27.550  0.00  0.00    +0.267 C 
ATOM      6  C   UNL     1       5.290  -5.792  28.158  0.00  0.00    +0.191 C 
ATOM      7  C   UNL     1       4.732  -5.537  29.574  0.00  0.00    +0.172 C 
BRANCH   7   8
ATOM      8  O   UNL     1       5.792  -5.215  30.484  0.00  0.00    -0.387 OA
ATOM      9  H   UNL     1       5.886  -4.243  30.506  0.00  0.00    +0.210 HD
ENDBRANCH   7   8
BRANCH   6  10
ATOM     10  O   UNL     1       6.301  -6.806  28.168  0.00  0.00    -0.385 OA
ATOM     11  H   UNL     1       6.608  -6.933  27.254  0.00  0.00    +0.210 HD
ENDBRANCH   6  10
BRANCH   5  12
ATOM     12  O   UNL     1       6.399  -4.679  26.211  0.00  0.00    -0.450 OA
BRANCH  12  13
ATOM     13  C   UNL     1       7.722  -4.908  26.080  0.00  0.00    +0.340 C 
ATOM     14  O   UNL     1       8.273  -5.971  26.318  0.00  0.00    -0.245 OA
BRANCH  13  15
ATOM     15  C   UNL     1       8.474  -3.709  25.620  0.00  0.00    +0.066 A 
ATOM     16  C   UNL     1       9.164  -3.644  24.400  0.00  0.00    +0.064 A 
ATOM     17  C   UNL     1       9.784  -2.449  24.035  0.00  0.00    +0.163 A 
ATOM     18  C   UNL     1       9.748  -1.341  24.875  0.00  0.00    +0.201 A 
ATOM     19  C   UNL     1       9.092  -1.413  26.096  0.00  0.00    +0.163 A 
ATOM     20  C   UNL     1       8.451  -2.587  26.473  0.00  0.00    +0.064 A 
BRANCH  19  21
ATOM     21  O   UNL     1       9.099  -0.303  26.894  0.00  0.00    -0.503 OA
ATOM     22  H   UNL     1       9.704   0.352  26.503  0.00  0.00    +0.292 HD
ENDBRANCH  19  21
BRANCH  18  23
ATOM     23  O   UNL     1      10.358  -0.179  24.485  0.00  0.00    -0.501 OA
ATOM     24  H   UNL     1      10.586  -0.326  23.545  0.00  0.00    +0.292 HD
ENDBRANCH  18  23
BRANCH  17  25
ATOM     25  O   UNL     1      10.430  -2.360  22.835  0.00  0.00    -0.503 OA
ATOM     26  H   UNL     1       9.896  -1.728  22.310  0.00  0.00    +0.292 HD
ENDBRANCH  17  25
ENDBRANCH  13  15
ENDBRANCH  12  13
ENDBRANCH   5  12
ENDBRANCH   1   4
BRANCH   1  27
ATOM     27  O   UNL     1       4.447  -1.748  26.075  0.00  0.00    -0.325 OA
BRANCH  27  28
ATOM     28  C   UNL     1       5.267  -1.217  25.086  0.00  0.00    +0.256 A 
ATOM     29  C   UNL     1       5.766   0.191  25.213  0.00  0.00    +0.242 A 
ATOM     30  O   UNL     1       5.351   0.953  26.078  0.00  0.00    -0.283 OA
ATOM     31  C   UNL     1       6.731   0.653  24.204  0.00  0.00    +0.109 A 
ATOM     32  C   UNL     1       7.012  -0.195  23.136  0.00  0.00    +0.147 A 
ATOM     33  C   UNL     1       7.891   0.211  22.128  0.00  0.00    +0.092 A 
ATOM     34  C   UNL     1       8.468   1.477  22.192  0.00  0.00    +0.124 A 
ATOM     35  C   UNL     1       8.195   2.335  23.248  0.00  0.00    +0.091 A 
ATOM     36  O   UNL     1       6.439  -1.435  22.989  0.00  0.00    -0.451 OA
ATOM     37  C   UNL     1       7.333   1.921  24.259  0.00  0.00    +0.135 A 
ATOM     38  C   UNL     1       5.572  -1.911  23.969  0.00  0.00    +0.185 A 
BRANCH  38  39
ATOM     39  C   UNL     1       5.027  -3.269  23.644  0.00  0.00    +0.025 A 
ATOM     40  C   UNL     1       3.796  -3.683  24.200  0.00  0.00    +0.015 A 
ATOM     41  C   UNL     1       3.291  -4.975  23.992  0.00  0.00    +0.050 A 
ATOM     42  C   UNL     1       4.005  -5.860  23.207  0.00  0.00    +0.158 A 
ATOM     43  C   UNL     1       5.210  -5.480  22.629  0.00  0.00    +0.159 A 
ATOM     44  C   UNL     1       5.732  -4.207  22.859  0.00  0.00    +0.060 A 
BRANCH  43  45
ATOM     45  O   UNL     1       5.851  -6.399  21.843  0.00  0.00    -0.503 OA
ATOM     46  H   UNL     1       5.179  -6.862  21.313  0.00  0.00    +0.292 HD
ENDBRANCH  43  45
BRANCH  42  47
ATOM     47  O   UNL     1       3.518  -7.124  23.012  0.00  0.00    -0.503 OA
ATOM     48  H   UNL     1       4.285  -7.639  22.690  0.00  0.00    +0.292 HD
ENDBRANCH  42  47
ENDBRANCH  38  39
BRANCH  37  49
ATOM     49  O   UNL     1       7.088   2.775  25.296  0.00  0.00    -0.506 OA
ATOM     50  H   UNL     1       7.116   3.698  24.999  0.00  0.00    +0.292 HD
ENDBRANCH  37  49
BRANCH  34  51
ATOM     51  O   UNL     1       9.314   1.927  21.224  0.00  0.00    -0.507 OA
ATOM     52  H   UNL     1      10.197   1.557  21.367  0.00  0.00    +0.292 HD
ENDBRANCH  34  51
ENDBRANCH  27  28
ENDBRANCH   1  27
TORSDOF 16
ENDMDL
MODEL 4
REMARK VINA RESULT:      -7.4      1.856      6.855
REMARK  Name = 
REMARK  16 active torsions:
REMARK  status: ('A' for Active; 'I' for Inactive)
REMARK    1  A    between atoms: C_2  and  O_47
REMARK    2  A    between atoms: C_4  and  O_46
REMARK    3  A    between atoms: C_6  and  O_34
REMARK    4  A    between atoms: C_8  and  O_11
REMARK    5  A    between atoms: O_11  and  O_12
REMARK    6  A    between atoms: O_12  and  C_13
REMARK    7  A    between atoms: C_14  and  C_26
REMARK    8  A    between atoms: C_18  and  O_25
REMARK    9  A    between atoms: C_20  and  O_24
REMARK   10  A    between atoms: C_28  and  O_33
REMARK   11  A    between atoms: C_29  and  O_32
REMARK   12  A    between atoms: O_34  and  C_35
REMARK   13  A    between atoms: C_35  and  C_37
REMARK   14  A    between atoms: C_39  and  O_45
REMARK   15  A    between atoms: C_40  and  O_44
REMARK   16  A    between atoms: C_41  and  O_43
REMARK                            x       y       z     vdW  Elec       q    Type
REMARK                         _______ _______ _______ _____ _____    ______ ____
ROOT
ATOM      1  O   UNL     1       9.286  -0.296  25.652  0.00  0.00    -0.150 OA
ENDROOT
BRANCH   1   4
ATOM      2  C   UNL     1       7.628   2.923  25.597  0.00  0.00    +0.197 C 
ATOM      3  O   UNL     1       8.693   1.970  25.644  0.00  0.00    -0.342 OA
ATOM      4  C   UNL     1       8.203   0.618  25.658  0.00  0.00    +0.343 C 
ATOM      5  C   UNL     1       7.382   0.346  26.939  0.00  0.00    +0.267 C 
ATOM      6  C   UNL     1       6.235   1.370  27.011  0.00  0.00    +0.191 C 
ATOM      7  C   UNL     1       6.776   2.808  26.860  0.00  0.00    +0.172 C 
BRANCH   7   8
ATOM      8  O   UNL     1       7.568   3.172  27.998  0.00  0.00    -0.387 OA
ATOM      9  H   UNL     1       8.279   2.509  28.096  0.00  0.00    +0.210 HD
ENDBRANCH   7   8
BRANCH   6  10
ATOM     10  O   UNL     1       5.505   1.211  28.233  0.00  0.00    -0.385 OA
ATOM     11  H   UNL     1       4.713   0.680  28.042  0.00  0.00    +0.210 HD
ENDBRANCH   6  10
BRANCH   5  12
ATOM     12  O   UNL     1       6.926  -1.033  27.089  0.00  0.00    -0.450 OA
BRANCH  12  13
ATOM     13  C   UNL     1       6.094  -1.547  26.159  0.00  0.00    +0.340 C 
ATOM     14  O   UNL     1       5.472  -0.890  25.340  0.00  0.00    -0.245 OA
BRANCH  13  15
ATOM     15  C   UNL     1       5.989  -3.030  26.234  0.00  0.00    +0.066 A 
ATOM     16  C   UNL     1       6.916  -3.843  26.906  0.00  0.00    +0.064 A 
ATOM     17  C   UNL     1       6.689  -5.218  26.970  0.00  0.00    +0.163 A 
ATOM     18  C   UNL     1       5.578  -5.787  26.355  0.00  0.00    +0.201 A 
ATOM     19  C   UNL     1       4.678  -4.989  25.665  0.00  0.00    +0.163 A 
ATOM     20  C   UNL     1       4.872  -3.613  25.603  0.00  0.00    +0.064 A 
BRANCH  19  21
ATOM     21  O   UNL     1       3.612  -5.597  25.063  0.00  0.00    -0.503 OA
ATOM     22  H   UNL     1       2.931  -5.760  25.739  0.00  0.00    +0.292 HD
ENDBRANCH  19  21
BRANCH  18  23
ATOM     23  O   UNL     1       5.378  -7.139  26.443  0.00  0.00    -0.501 OA
ATOM     24  H   UNL     1       5.108  -7.285  27.372  0.00  0.00    +0.292 HD
ENDBRANCH  18  23
BRANCH  17  25
ATOM     25  O   UNL     1       7.563  -6.017  27.650  0.00  0.00    -0.503 OA
ATOM     26  H   UNL     1       6.998  -6.672  28.108  0.00  0.00    +0.292 HD
ENDBRANCH  17  25
ENDBRANCH  13  15
ENDBRANCH  12  13
ENDBRANCH   5  12
ENDBRANCH   1   4
BRANCH   1  27
ATOM     27  O   UNL     1       9.707  -0.437  24.270  0.00  0.00    -0.325 OA
BRANCH  27  28
ATOM     28  C   UNL     1       8.808  -1.307  23.665  0.00  0.00    +0.256 A 
ATOM     29  C   UNL     1       8.986  -2.787  23.824  0.00  0.00    +0.242 A 
ATOM     30  O   UNL     1       9.988  -3.271  24.338  0.00  0.00    -0.283 OA
ATOM     31  C   UNL     1       7.933  -3.652  23.270  0.00  0.00    +0.109 A 
ATOM     32  C   UNL     1       6.921  -3.049  22.528  0.00  0.00    +0.147 A 
ATOM     33  C   UNL     1       5.917  -3.829  21.944  0.00  0.00    +0.092 A 
ATOM     34  C   UNL     1       5.950  -5.213  22.097  0.00  0.00    +0.124 A 
ATOM     35  C   UNL     1       6.955  -5.828  22.831  0.00  0.00    +0.091 A 
ATOM     36  O   UNL     1       6.858  -1.696  22.299  0.00  0.00    -0.451 OA
ATOM     37  C   UNL     1       7.943  -5.048  23.424  0.00  0.00    +0.135 A 
ATOM     38  C   UNL     1       7.812  -0.859  22.871  0.00  0.00    +0.185 A 
BRANCH  38  39
ATOM     39  C   UNL     1       7.605   0.581  22.509  0.00  0.00    +0.025 A 
ATOM     40  C   UNL     1       8.709   1.374  22.125  0.00  0.00    +0.015 A 
ATOM     41  C   UNL     1       8.575   2.745  21.860  0.00  0.00    +0.050 A 
ATOM     42  C   UNL     1       7.328   3.332  21.958  0.00  0.00    +0.158 A 
ATOM     43  C   UNL     1       6.217   2.577  22.314  0.00  0.00    +0.159 A 
ATOM     44  C   UNL     1       6.351   1.221  22.610  0.00  0.00    +0.060 A 
BRANCH  43  45
ATOM     45  O   UNL     1       5.009   3.219  22.368  0.00  0.00    -0.503 OA
ATOM     46  H   UNL     1       4.400   2.670  22.891  0.00  0.00    +0.292 HD
ENDBRANCH  43  45
BRANCH  42  47
ATOM     47  O   UNL     1       7.198   4.672  21.711  0.00  0.00    -0.503 OA
ATOM     48  H   UNL     1       8.064   4.941  21.343  0.00  0.00    +0.292 HD
ENDBRANCH  42  47
ENDBRANCH  38  39
BRANCH  37  49
ATOM     49  O   UNL     1       8.915  -5.671  24.153  0.00  0.00    -0.506 OA
ATOM     50  H   UNL     1       9.619  -6.006  23.576  0.00  0.00    +0.292 HD
ENDBRANCH  37  49
BRANCH  34  51
ATOM     51  O   UNL     1       5.008  -6.017  21.530  0.00  0.00    -0.507 OA
ATOM     52  H   UNL     1       5.119  -6.019  20.568  0.00  0.00    +0.292 HD
ENDBRANCH  34  51
ENDBRANCH  27  28
ENDBRANCH   1  27
TORSDOF 16
ENDMDL
MODEL 5
REMARK VINA RESULT:      -7.3      2.094      3.809
REMARK  Name = 
REMARK  16 active torsions:
REMARK  status: ('A' for Active; 'I' for Inactive)
REMARK    1  A    between atoms: C_2  and  O_47
REMARK    2  A    between atoms: C_4  and  O_46
REMARK    3  A    between atoms: C_6  and  O_34
REMARK    4  A    between atoms: C_8  and  O_11
REMARK    5  A    between atoms: O_11  and  O_12
REMARK    6  A    between atoms: O_12  and  C_13
REMARK    7  A    between atoms: C_14  and  C_26
REMARK    8  A    between atoms: C_18  and  O_25
REMARK    9  A    between atoms: C_20  and  O_24
REMARK   10  A    between atoms: C_28  and  O_33
REMARK   11  A    between atoms: C_29  and  O_32
REMARK   12  A    between atoms: O_34  and  C_35
REMARK   13  A    between atoms: C_35  and  C_37
REMARK   14  A    between atoms: C_39  and  O_45
REMARK   15  A    between atoms: C_40  and  O_44
REMARK   16  A    between atoms: C_41  and  O_43
REMARK                            x       y       z     vdW  Elec       q    Type
REMARK                         _______ _______ _______ _____ _____    ______ ____
ROOT
ATOM      1  O   UNL     1       4.013  -2.814  25.282  0.00  0.00    -0.150 OA
ENDROOT
BRANCH   1   4
ATOM      2  C   UNL     1       2.450  -5.917  26.300  0.00  0.00    +0.197 C 
ATOM      3  O   UNL     1       3.079  -4.639  26.416  0.00  0.00    -0.342 OA
ATOM      4  C   UNL     1       3.442  -4.102  25.131  0.00  0.00    +0.343 C 
ATOM      5  C   UNL     1       4.499  -4.995  24.444  0.00  0.00    +0.267 C 
ATOM      6  C   UNL     1       3.934  -6.421  24.327  0.00  0.00    +0.191 C 
ATOM      7  C   UNL     1       3.430  -6.922  25.698  0.00  0.00    +0.172 C 
BRANCH   7   8
ATOM      8  O   UNL     1       4.526  -7.112  26.601  0.00  0.00    -0.387 OA
ATOM      9  H   UNL     1       5.337  -6.787  26.164  0.00  0.00    +0.210 HD
ENDBRANCH   7   8
BRANCH   6  10
ATOM     10  O   UNL     1       4.921  -7.302  23.779  0.00  0.00    -0.385 OA
ATOM     11  H   UNL     1       5.548  -6.767  23.264  0.00  0.00    +0.210 HD
ENDBRANCH   6  10
BRANCH   5  12
ATOM     12  O   UNL     1       5.003  -4.475  23.175  0.00  0.00    -0.450 OA
BRANCH  12  13
ATOM     13  C   UNL     1       6.335  -4.457  22.963  0.00  0.00    +0.340 C 
ATOM     14  O   UNL     1       7.047  -5.448  22.913  0.00  0.00    -0.245 OA
BRANCH  13  15
ATOM     15  C   UNL     1       6.877  -3.080  22.803  0.00  0.00    +0.066 A 
ATOM     16  C   UNL     1       6.187  -1.922  23.195  0.00  0.00    +0.064 A 
ATOM     17  C   UNL     1       6.812  -0.683  23.060  0.00  0.00    +0.163 A 
ATOM     18  C   UNL     1       8.090  -0.584  22.518  0.00  0.00    +0.201 A 
ATOM     19  C   UNL     1       8.760  -1.725  22.101  0.00  0.00    +0.163 A 
ATOM     20  C   UNL     1       8.165  -2.973  22.244  0.00  0.00    +0.064 A 
BRANCH  19  21
ATOM     21  O   UNL     1      10.006  -1.574  21.558  0.00  0.00    -0.503 OA
ATOM     22  H   UNL     1      10.304  -0.662  21.723  0.00  0.00    +0.292 HD
ENDBRANCH  19  21
BRANCH  18  23
ATOM     23  O   UNL     1       8.681   0.646  22.405  0.00  0.00    -0.501 OA
ATOM     24  H   UNL     1       8.092   1.246  22.906  0.00  0.00    +0.292 HD
ENDBRANCH  18  23
BRANCH  17  25
ATOM     25  O   UNL     1       6.168   0.449  23.470  0.00  0.00    -0.503 OA
ATOM     26  H   UNL     1       6.066   0.987  22.658  0.00  0.00    +0.292 HD
ENDBRANCH  17  25
ENDBRANCH  13  15
ENDBRANCH  12  13
ENDBRANCH   5  12
ENDBRANCH   1   4
BRANCH   1  27
ATOM     27  O   UNL     1       4.348  -2.666  26.687  0.00  0.00    -0.325 OA
BRANCH  27  28
ATOM     28  C   UNL     1       5.038  -1.465  26.808  0.00  0.00    +0.256 A 
ATOM     29  C   UNL     1       4.276  -0.174  26.860  0.00  0.00    +0.242 A 
ATOM     30  O   UNL     1       3.072  -0.120  26.639  0.00  0.00    -0.283 OA
ATOM     31  C   UNL     1       5.049   1.050  27.118  0.00  0.00    +0.109 A 
ATOM     32  C   UNL     1       6.437   0.944  27.165  0.00  0.00    +0.147 A 
ATOM     33  C   UNL     1       7.222   2.084  27.367  0.00  0.00    +0.092 A 
ATOM     34  C   UNL     1       6.605   3.325  27.502  0.00  0.00    +0.124 A 
ATOM     35  C   UNL     1       5.223   3.447  27.454  0.00  0.00    +0.091 A 
ATOM     36  O   UNL     1       7.108  -0.241  26.990  0.00  0.00    -0.451 OA
ATOM     37  C   UNL     1       4.444   2.308  27.270  0.00  0.00    +0.135 A 
ATOM     38  C   UNL     1       6.387  -1.417  26.809  0.00  0.00    +0.185 A 
BRANCH  38  39
ATOM     39  C   UNL     1       7.272  -2.612  26.619  0.00  0.00    +0.025 A 
ATOM     40  C   UNL     1       8.487  -2.480  25.911  0.00  0.00    +0.015 A 
ATOM     41  C   UNL     1       9.304  -3.587  25.636  0.00  0.00    +0.050 A 
ATOM     42  C   UNL     1       8.922  -4.836  26.087  0.00  0.00    +0.158 A 
ATOM     43  C   UNL     1       7.742  -4.999  26.803  0.00  0.00    +0.159 A 
ATOM     44  C   UNL     1       6.911  -3.907  27.050  0.00  0.00    +0.060 A 
BRANCH  43  45
ATOM     45  O   UNL     1       7.438  -6.260  27.240  0.00  0.00    -0.503 OA
ATOM     46  H   UNL     1       6.644  -6.559  26.765  0.00  0.00    +0.292 HD
ENDBRANCH  43  45
BRANCH  42  47
ATOM     47  O   UNL     1       9.713  -5.918  25.810  0.00  0.00    -0.503 OA
ATOM     48  H   UNL     1       9.355  -6.637  26.370  0.00  0.00    +0.292 HD
ENDBRANCH  42  47
ENDBRANCH  38  39
BRANCH  37  49
ATOM     49  O   UNL     1       3.086   2.447  27.239  0.00  0.00    -0.506 OA
ATOM     50  H   UNL     1       2.817   3.070  26.546  0.00  0.00    +0.292 HD
ENDBRANCH  37  49
BRANCH  34  51
ATOM     51  O   UNL     1       7.327   4.467  27.680  0.00  0.00    -0.507 OA
ATOM     52  H   UNL     1       7.939   4.582  26.938  0.00  0.00    +0.292 HD
ENDBRANCH  34  51
ENDBRANCH  27  28
ENDBRANCH   1  27
TORSDOF 16
ENDMDL
MODEL 6
REMARK VINA RESULT:      -7.2      1.799      5.222
REMARK  Name = 
REMARK  16 active torsions:
REMARK  status: ('A' for Active; 'I' for Inactive)
REMARK    1  A    between atoms: C_2  and  O_47
REMARK    2  A    between atoms: C_4  and  O_46
REMARK    3  A    between atoms: C_6  and  O_34
REMARK    4  A    between atoms: C_8  and  O_11
REMARK    5  A    between atoms: O_11  and  O_12
REMARK    6  A    between atoms: O_12  and  C_13
REMARK    7  A    between atoms: C_14  and  C_26
REMARK    8  A    between atoms: C_18  and  O_25
REMARK    9  A    between atoms: C_20  and  O_24
REMARK   10  A    between atoms: C_28  and  O_33
REMARK   11  A    between atoms: C_29  and  O_32
REMARK   12  A    between atoms: O_34  and  C_35
REMARK   13  A    between atoms: C_35  and  C_37
REMARK   14  A    between atoms: C_39  and  O_45
REMARK   15  A    between atoms: C_40  and  O_44
REMARK   16  A    between atoms: C_41  and  O_43
REMARK                            x       y       z     vdW  Elec       q    Type
REMARK                         _______ _______ _______ _____ _____    ______ ____
ROOT
ATOM      1  O   UNL     1       8.128  -4.212  25.012  0.00  0.00    -0.150 OA
ENDROOT
BRANCH   1   4
ATOM      2  C   UNL     1       5.413  -6.239  23.735  0.00  0.00    +0.197 C 
ATOM      3  O   UNL     1       6.696  -5.913  24.274  0.00  0.00    -0.342 OA
ATOM      4  C   UNL     1       6.869  -4.493  24.427  0.00  0.00    +0.343 C 
ATOM      5  C   UNL     1       6.834  -3.787  23.052  0.00  0.00    +0.267 C 
ATOM      6  C   UNL     1       5.504  -4.129  22.360  0.00  0.00    +0.191 C 
ATOM      7  C   UNL     1       5.281  -5.656  22.328  0.00  0.00    +0.172 C 
BRANCH   7   8
ATOM      8  O   UNL     1       6.235  -6.288  21.465  0.00  0.00    -0.387 OA
ATOM      9  H   UNL     1       7.021  -5.712  21.410  0.00  0.00    +0.210 HD
ENDBRANCH   7   8
BRANCH   6  10
ATOM     10  O   UNL     1       5.472  -3.569  21.042  0.00  0.00    -0.385 OA
ATOM     11  H   UNL     1       4.560  -3.286  20.858  0.00  0.00    +0.210 HD
ENDBRANCH   6  10
BRANCH   5  12
ATOM     12  O   UNL     1       7.101  -2.351  23.099  0.00  0.00    -0.450 OA
BRANCH  12  13
ATOM     13  C   UNL     1       8.229  -1.881  22.527  0.00  0.00    +0.340 C 
ATOM     14  O   UNL     1       9.152  -2.574  22.131  0.00  0.00    -0.245 OA
BRANCH  13  15
ATOM     15  C   UNL     1       8.253  -0.396  22.433  0.00  0.00    +0.066 A 
ATOM     16  C   UNL     1       9.403   0.345  22.117  0.00  0.00    +0.064 A 
ATOM     17  C   UNL     1       9.302   1.731  21.992  0.00  0.00    +0.163 A 
ATOM     18  C   UNL     1       8.090   2.380  22.205  0.00  0.00    +0.201 A 
ATOM     19  C   UNL     1       6.960   1.652  22.548  0.00  0.00    +0.163 A 
ATOM     20  C   UNL     1       7.031   0.268  22.659  0.00  0.00    +0.064 A 
BRANCH  19  21
ATOM     21  O   UNL     1       5.797   2.337  22.764  0.00  0.00    -0.503 OA
ATOM     22  H   UNL     1       5.468   2.110  23.651  0.00  0.00    +0.292 HD
ENDBRANCH  19  21
BRANCH  18  23
ATOM     23  O   UNL     1       8.021   3.741  22.066  0.00  0.00    -0.501 OA
ATOM     24  H   UNL     1       7.775   3.878  21.128  0.00  0.00    +0.292 HD
ENDBRANCH  18  23
BRANCH  17  25
ATOM     25  O   UNL     1      10.404   2.462  21.650  0.00  0.00    -0.503 OA
ATOM     26  H   UNL     1      10.972   2.445  22.447  0.00  0.00    +0.292 HD
ENDBRANCH  17  25
ENDBRANCH  13  15
ENDBRANCH  12  13
ENDBRANCH   5  12
ENDBRANCH   1   4
BRANCH   1  27
ATOM     27  O   UNL     1       7.910  -4.095  26.442  0.00  0.00    -0.325 OA
BRANCH  27  28
ATOM     28  C   UNL     1       7.169  -2.935  26.639  0.00  0.00    +0.256 A 
ATOM     29  C   UNL     1       7.804  -1.599  26.398  0.00  0.00    +0.242 A 
ATOM     30  O   UNL     1       9.005  -1.478  26.184  0.00  0.00    -0.283 OA
ATOM     31  C   UNL     1       6.936  -0.416  26.499  0.00  0.00    +0.109 A 
ATOM     32  C   UNL     1       5.628  -0.606  26.937  0.00  0.00    +0.147 A 
ATOM     33  C   UNL     1       4.772   0.489  27.090  0.00  0.00    +0.092 A 
ATOM     34  C   UNL     1       5.245   1.771  26.818  0.00  0.00    +0.124 A 
ATOM     35  C   UNL     1       6.548   1.976  26.384  0.00  0.00    +0.091 A 
ATOM     36  O   UNL     1       5.115  -1.836  27.268  0.00  0.00    -0.451 OA
ATOM     37  C   UNL     1       7.392   0.882  26.217  0.00  0.00    +0.135 A 
ATOM     38  C   UNL     1       5.907  -2.972  27.116  0.00  0.00    +0.185 A 
BRANCH  38  39
ATOM     39  C   UNL     1       5.200  -4.226  27.536  0.00  0.00    +0.025 A 
ATOM     40  C   UNL     1       3.793  -4.233  27.654  0.00  0.00    +0.015 A 
ATOM     41  C   UNL     1       3.098  -5.357  28.124  0.00  0.00    +0.050 A 
ATOM     42  C   UNL     1       3.806  -6.495  28.464  0.00  0.00    +0.158 A 
ATOM     43  C   UNL     1       5.189  -6.528  28.342  0.00  0.00    +0.159 A 
ATOM     44  C   UNL     1       5.887  -5.402  27.905  0.00  0.00    +0.060 A 
BRANCH  43  45
ATOM     45  O   UNL     1       5.823  -7.696  28.672  0.00  0.00    -0.503 OA
ATOM     46  H   UNL     1       6.593  -7.795  28.086  0.00  0.00    +0.292 HD
ENDBRANCH  43  45
BRANCH  42  47
ATOM     47  O   UNL     1       3.130  -7.588  28.933  0.00  0.00    -0.503 OA
ATOM     48  H   UNL     1       2.186  -7.337  28.880  0.00  0.00    +0.292 HD
ENDBRANCH  42  47
ENDBRANCH  38  39
BRANCH  37  49
ATOM     49  O   UNL     1       8.665   1.104  25.777  0.00  0.00    -0.506 OA
ATOM     50  H   UNL     1       8.734   1.965  25.336  0.00  0.00    +0.292 HD
ENDBRANCH  37  49
BRANCH  34  51
ATOM     51  O   UNL     1       4.457   2.871  26.972  0.00  0.00    -0.507 OA
ATOM     52  H   UNL     1       3.717   2.661  27.560  0.00  0.00    +0.292 HD
ENDBRANCH  34  51
ENDBRANCH  27  28
ENDBRANCH   1  27
TORSDOF 16
ENDMDL
MODEL 7
REMARK VINA RESULT:      -7.2      2.000      6.830
REMARK  Name = 
REMARK  16 active torsions:
REMARK  status: ('A' for Active; 'I' for Inactive)
REMARK    1  A    between atoms: C_2  and  O_47
REMARK    2  A    between atoms: C_4  and  O_46
REMARK    3  A    between atoms: C_6  and  O_34
REMARK    4  A    between atoms: C_8  and  O_11
REMARK    5  A    between atoms: O_11  and  O_12
REMARK    6  A    between atoms: O_12  and  C_13
REMARK    7  A    between atoms: C_14  and  C_26
REMARK    8  A    between atoms: C_18  and  O_25
REMARK    9  A    between atoms: C_20  and  O_24
REMARK   10  A    between atoms: C_28  and  O_33
REMARK   11  A    between atoms: C_29  and  O_32
REMARK   12  A    between atoms: O_34  and  C_35
REMARK   13  A    between atoms: C_35  and  C_37
REMARK   14  A    between atoms: C_39  and  O_45
REMARK   15  A    between atoms: C_40  and  O_44
REMARK   16  A    between atoms: C_41  and  O_43
REMARK                            x       y       z     vdW  Elec       q    Type
REMARK                         _______ _______ _______ _____ _____    ______ ____
ROOT
ATOM      1  O   UNL     1       8.492  -1.080  26.705  0.00  0.00    -0.150 OA
ENDROOT
BRANCH   1   4
ATOM      2  C   UNL     1       6.372   1.740  27.519  0.00  0.00    +0.197 C 
ATOM      3  O   UNL     1       7.526   0.896  27.510  0.00  0.00    -0.342 OA
ATOM      4  C   UNL     1       7.312  -0.296  26.734  0.00  0.00    +0.343 C 
ATOM      5  C   UNL     1       6.201  -1.166  27.363  0.00  0.00    +0.267 C 
ATOM      6  C   UNL     1       4.920  -0.320  27.473  0.00  0.00    +0.191 C 
ATOM      7  C   UNL     1       5.208   1.015  28.193  0.00  0.00    +0.172 C 
BRANCH   7   8
ATOM      8  O   UNL     1       5.529   0.786  29.571  0.00  0.00    -0.387 OA
ATOM      9  H   UNL     1       5.074  -0.030  29.856  0.00  0.00    +0.210 HD
ENDBRANCH   7   8
BRANCH   6  10
ATOM     10  O   UNL     1       3.891  -1.061  28.137  0.00  0.00    -0.385 OA
ATOM     11  H   UNL     1       4.292  -1.864  28.509  0.00  0.00    +0.210 HD
ENDBRANCH   6  10
BRANCH   5  12
ATOM     12  O   UNL     1       5.982  -2.448  26.698  0.00  0.00    -0.450 OA
BRANCH  12  13
ATOM     13  C   UNL     1       5.197  -2.486  25.601  0.00  0.00    +0.340 C 
ATOM     14  O   UNL     1       4.852  -1.508  24.956  0.00  0.00    -0.245 OA
BRANCH  13  15
ATOM     15  C   UNL     1       4.766  -3.865  25.245  0.00  0.00    +0.066 A 
ATOM     16  C   UNL     1       4.049  -4.181  24.081  0.00  0.00    +0.064 A 
ATOM     17  C   UNL     1       3.749  -5.516  23.810  0.00  0.00    +0.163 A 
ATOM     18  C   UNL     1       4.127  -6.524  24.692  0.00  0.00    +0.201 A 
ATOM     19  C   UNL     1       4.809  -6.211  25.858  0.00  0.00    +0.163 A 
ATOM     20  C   UNL     1       5.136  -4.889  26.140  0.00  0.00    +0.064 A 
BRANCH  19  21
ATOM     21  O   UNL     1       5.143  -7.234  26.701  0.00  0.00    -0.503 OA
ATOM     22  H   UNL     1       4.371  -7.436  27.259  0.00  0.00    +0.292 HD
ENDBRANCH  19  21
BRANCH  18  23
ATOM     23  O   UNL     1       3.827  -7.827  24.395  0.00  0.00    -0.501 OA
ATOM     24  H   UNL     1       3.001  -8.005  24.889  0.00  0.00    +0.292 HD
ENDBRANCH  18  23
BRANCH  17  25
ATOM     25  O   UNL     1       3.083  -5.842  22.664  0.00  0.00    -0.503 OA
ATOM     26  H   UNL     1       2.362  -6.436  22.954  0.00  0.00    +0.292 HD
ENDBRANCH  17  25
ENDBRANCH  13  15
ENDBRANCH  12  13
ENDBRANCH   5  12
ENDBRANCH   1   4
BRANCH   1  27
ATOM     27  O   UNL     1       9.180  -0.756  25.469  0.00  0.00    -0.325 OA
BRANCH  27  28
ATOM     28  C   UNL     1       8.589  -1.521  24.470  0.00  0.00    +0.256 A 
ATOM     29  C   UNL     1       8.671  -3.017  24.535  0.00  0.00    +0.242 A 
ATOM     30  O   UNL     1       9.377  -3.595  25.353  0.00  0.00    -0.283 OA
ATOM     31  C   UNL     1       7.919  -3.773  23.523  0.00  0.00    +0.109 A 
ATOM     32  C   UNL     1       7.296  -3.056  22.505  0.00  0.00    +0.147 A 
ATOM     33  C   UNL     1       6.602  -3.727  21.494  0.00  0.00    +0.092 A 
ATOM     34  C   UNL     1       6.555  -5.120  21.504  0.00  0.00    +0.124 A 
ATOM     35  C   UNL     1       7.174  -5.849  22.511  0.00  0.00    +0.091 A 
ATOM     36  O   UNL     1       7.347  -1.686  22.409  0.00  0.00    -0.451 OA
ATOM     37  C   UNL     1       7.850  -5.176  23.525  0.00  0.00    +0.135 A 
ATOM     38  C   UNL     1       8.001  -0.954  23.395  0.00  0.00    +0.185 A 
BRANCH  38  39
ATOM     39  C   UNL     1       7.974   0.522  23.130  0.00  0.00    +0.025 A 
ATOM     40  C   UNL     1       6.752   1.156  22.817  0.00  0.00    +0.015 A 
ATOM     41  C   UNL     1       6.693   2.516  22.479  0.00  0.00    +0.050 A 
ATOM     42  C   UNL     1       7.858   3.260  22.470  0.00  0.00    +0.158 A 
ATOM     43  C   UNL     1       9.075   2.672  22.791  0.00  0.00    +0.159 A 
ATOM     44  C   UNL     1       9.143   1.313  23.096  0.00  0.00    +0.060 A 
BRANCH  43  45
ATOM     45  O   UNL     1      10.184   3.474  22.785  0.00  0.00    -0.503 OA
ATOM     46  H   UNL     1      10.047   4.180  23.440  0.00  0.00    +0.292 HD
ENDBRANCH  43  45
BRANCH  42  47
ATOM     47  O   UNL     1       7.803   4.584  22.129  0.00  0.00    -0.503 OA
ATOM     48  H   UNL     1       7.103   4.959  22.701  0.00  0.00    +0.292 HD
ENDBRANCH  42  47
ENDBRANCH  38  39
BRANCH  37  49
ATOM     49  O   UNL     1       8.440  -5.911  24.512  0.00  0.00    -0.506 OA
ATOM     50  H   UNL     1       9.356  -5.625  24.656  0.00  0.00    +0.292 HD
ENDBRANCH  37  49
BRANCH  34  51
ATOM     51  O   UNL     1       5.910  -5.821  20.531  0.00  0.00    -0.507 OA
ATOM     52  H   UNL     1       6.100  -6.765  20.632  0.00  0.00    +0.292 HD
ENDBRANCH  34  51
ENDBRANCH  27  28
ENDBRANCH   1  27
TORSDOF 16
ENDMDL
MODEL 8
REMARK VINA RESULT:      -7.1      2.461      7.496
REMARK  Name = 
REMARK  16 active torsions:
REMARK  status: ('A' for Active; 'I' for Inactive)
REMARK    1  A    between atoms: C_2  and  O_47
REMARK    2  A    between atoms: C_4  and  O_46
REMARK    3  A    between atoms: C_6  and  O_34
REMARK    4  A    between atoms: C_8  and  O_11
REMARK    5  A    between atoms: O_11  and  O_12
REMARK    6  A    between atoms: O_12  and  C_13
REMARK    7  A    between atoms: C_14  and  C_26
REMARK    8  A    between atoms: C_18  and  O_25
REMARK    9  A    between atoms: C_20  and  O_24
REMARK   10  A    between atoms: C_28  and  O_33
REMARK   11  A    between atoms: C_29  and  O_32
REMARK   12  A    between atoms: O_34  and  C_35
REMARK   13  A    between atoms: C_35  and  C_37
REMARK   14  A    between atoms: C_39  and  O_45
REMARK   15  A    between atoms: C_40  and  O_44
REMARK   16  A    between atoms: C_41  and  O_43
REMARK                            x       y       z     vdW  Elec       q    Type
REMARK                         _______ _______ _______ _____ _____    ______ ____
ROOT
ATOM      1  O   UNL     1       5.641   0.856  23.869  0.00  0.00    -0.150 OA
ENDROOT
BRANCH   1   4
ATOM      2  C   UNL     1       3.754   3.582  25.326  0.00  0.00    +0.197 C 
ATOM      3  O   UNL     1       4.067   2.254  24.897  0.00  0.00    -0.342 OA
ATOM      4  C   UNL     1       5.342   2.193  24.232  0.00  0.00    +0.343 C 
ATOM      5  C   UNL     1       5.322   3.027  22.932  0.00  0.00    +0.267 C 
ATOM      6  C   UNL     1       4.932   4.473  23.284  0.00  0.00    +0.191 C 
ATOM      7  C   UNL     1       3.629   4.501  24.112  0.00  0.00    +0.172 C 
BRANCH   7   8
ATOM      8  O   UNL     1       2.515   4.080  23.314  0.00  0.00    -0.387 OA
ATOM      9  H   UNL     1       2.316   3.151  23.540  0.00  0.00    +0.210 HD
ENDBRANCH   7   8
BRANCH   6  10
ATOM     10  O   UNL     1       4.811   5.258  22.092  0.00  0.00    -0.385 OA
ATOM     11  H   UNL     1       5.082   6.168  22.304  0.00  0.00    +0.210 HD
ENDBRANCH   6  10
BRANCH   5  12
ATOM     12  O   UNL     1       6.544   2.944  22.136  0.00  0.00    -0.450 OA
BRANCH  12  13
ATOM     13  C   UNL     1       7.729   3.173  22.740  0.00  0.00    +0.340 C 
ATOM     14  O   UNL     1       8.171   4.277  23.012  0.00  0.00    -0.245 OA
BRANCH  13  15
ATOM     15  C   UNL     1       8.477   1.921  23.040  0.00  0.00    +0.066 A 
ATOM     16  C   UNL     1       8.918   1.567  24.325  0.00  0.00    +0.064 A 
ATOM     17  C   UNL     1       9.555   0.339  24.508  0.00  0.00    +0.163 A 
ATOM     18  C   UNL     1       9.780  -0.514  23.432  0.00  0.00    +0.201 A 
ATOM     19  C   UNL     1       9.373  -0.152  22.157  0.00  0.00    +0.163 A 
ATOM     20  C   UNL     1       8.719   1.058  21.953  0.00  0.00    +0.064 A 
BRANCH  19  21
ATOM     21  O   UNL     1       9.632  -1.016  21.131  0.00  0.00    -0.503 OA
ATOM     22  H   UNL     1       9.650  -1.921  21.490  0.00  0.00    +0.292 HD
ENDBRANCH  19  21
BRANCH  18  23
ATOM     23  O   UNL     1      10.400  -1.717  23.645  0.00  0.00    -0.501 OA
ATOM     24  H   UNL     1      10.788  -1.636  24.540  0.00  0.00    +0.292 HD
ENDBRANCH  18  23
BRANCH  17  25
ATOM     25  O   UNL     1       9.958  -0.034  25.758  0.00  0.00    -0.503 OA
ATOM     26  H   UNL     1      10.856  -0.403  25.631  0.00  0.00    +0.292 HD
ENDBRANCH  17  25
ENDBRANCH  13  15
ENDBRANCH  12  13
ENDBRANCH   5  12
ENDBRANCH   1   4
BRANCH   1  27
ATOM     27  O   UNL     1       5.004   0.001  24.855  0.00  0.00    -0.325 OA
BRANCH  27  28
ATOM     28  C   UNL     1       5.939  -0.964  25.211  0.00  0.00    +0.256 A 
ATOM     29  C   UNL     1       6.182  -2.132  24.303  0.00  0.00    +0.242 A 
ATOM     30  O   UNL     1       5.473  -2.357  23.328  0.00  0.00    -0.283 OA
ATOM     31  C   UNL     1       7.271  -3.050  24.668  0.00  0.00    +0.109 A 
ATOM     32  C   UNL     1       7.909  -2.847  25.889  0.00  0.00    +0.147 A 
ATOM     33  C   UNL     1       8.924  -3.715  26.305  0.00  0.00    +0.092 A 
ATOM     34  C   UNL     1       9.277  -4.792  25.495  0.00  0.00    +0.124 A 
ATOM     35  C   UNL     1       8.648  -5.009  24.277  0.00  0.00    +0.091 A 
ATOM     36  O   UNL     1       7.575  -1.835  26.755  0.00  0.00    -0.451 OA
ATOM     37  C   UNL     1       7.650  -4.133  23.859  0.00  0.00    +0.135 A 
ATOM     38  C   UNL     1       6.589  -0.921  26.393  0.00  0.00    +0.185 A 
BRANCH  38  39
ATOM     39  C   UNL     1       6.339   0.107  27.456  0.00  0.00    +0.025 A 
ATOM     40  C   UNL     1       5.268  -0.065  28.360  0.00  0.00    +0.015 A 
ATOM     41  C   UNL     1       4.946   0.911  29.314  0.00  0.00    +0.050 A 
ATOM     42  C   UNL     1       5.708   2.063  29.386  0.00  0.00    +0.158 A 
ATOM     43  C   UNL     1       6.781   2.255  28.524  0.00  0.00    +0.159 A 
ATOM     44  C   UNL     1       7.085   1.302  27.553  0.00  0.00    +0.060 A 
BRANCH  43  45
ATOM     45  O   UNL     1       7.507   3.406  28.668  0.00  0.00    -0.503 OA
ATOM     46  H   UNL     1       6.922   4.084  29.049  0.00  0.00    +0.292 HD
ENDBRANCH  43  45
BRANCH  42  47
ATOM     47  O   UNL     1       5.388   3.020  30.309  0.00  0.00    -0.503 OA
ATOM     48  H   UNL     1       4.527   3.376  30.010  0.00  0.00    +0.292 HD
ENDBRANCH  42  47
ENDBRANCH  38  39
BRANCH  37  49
ATOM     49  O   UNL     1       7.052  -4.356  22.652  0.00  0.00    -0.506 OA
ATOM     50  H   UNL     1       7.657  -4.811  22.045  0.00  0.00    +0.292 HD
ENDBRANCH  37  49
BRANCH  34  51
ATOM     51  O   UNL     1      10.244  -5.677  25.865  0.00  0.00    -0.507 OA
ATOM     52  H   UNL     1      10.595  -5.431  26.733  0.00  0.00    +0.292 HD
ENDBRANCH  34  51
ENDBRANCH  27  28
ENDBRANCH   1  27
TORSDOF 16
ENDMDL
MODEL 9
REMARK VINA RESULT:      -7.1      2.476      7.935
REMARK  Name = 
REMARK  16 active torsions:
REMARK  status: ('A' for Active; 'I' for Inactive)
REMARK    1  A    between atoms: C_2  and  O_47
REMARK    2  A    between atoms: C_4  and  O_46
REMARK    3  A    between atoms: C_6  and  O_34
REMARK    4  A    between atoms: C_8  and  O_11
REMARK    5  A    between atoms: O_11  and  O_12
REMARK    6  A    between atoms: O_12  and  C_13
REMARK    7  A    between atoms: C_14  and  C_26
REMARK    8  A    between atoms: C_18  and  O_25
REMARK    9  A    between atoms: C_20  and  O_24
REMARK   10  A    between atoms: C_28  and  O_33
REMARK   11  A    between atoms: C_29  and  O_32
REMARK   12  A    between atoms: O_34  and  C_35
REMARK   13  A    between atoms: C_35  and  C_37
REMARK   14  A    between atoms: C_39  and  O_45
REMARK   15  A    between atoms: C_40  and  O_44
REMARK   16  A    between atoms: C_41  and  O_43
REMARK                            x       y       z     vdW  Elec       q    Type
REMARK                         _______ _______ _______ _____ _____    ______ ____
ROOT
ATOM      1  O   UNL     1       7.252   1.777  24.129  0.00  0.00    -0.150 OA
ENDROOT
BRANCH   1   4
ATOM      2  C   UNL     1       5.542   4.915  23.550  0.00  0.00    +0.197 C 
ATOM      3  O   UNL     1       5.852   3.524  23.441  0.00  0.00    -0.342 OA
ATOM      4  C   UNL     1       7.008   3.170  24.220  0.00  0.00    +0.343 C 
ATOM      5  C   UNL     1       8.268   3.891  23.688  0.00  0.00    +0.267 C 
ATOM      6  C   UNL     1       8.008   5.407  23.709  0.00  0.00    +0.191 C 
ATOM      7  C   UNL     1       6.691   5.746  22.980  0.00  0.00    +0.172 C 
BRANCH   7   8
ATOM      8  O   UNL     1       6.809   5.486  21.575  0.00  0.00    -0.387 OA
ATOM      9  H   UNL     1       6.712   4.524  21.437  0.00  0.00    +0.210 HD
ENDBRANCH   7   8
BRANCH   6  10
ATOM     10  O   UNL     1       9.118   6.108  23.136  0.00  0.00    -0.385 OA
ATOM     11  H   UNL     1       9.478   5.563  22.416  0.00  0.00    +0.210 HD
ENDBRANCH   6  10
BRANCH   5  12
ATOM     12  O   UNL     1       9.511   3.515  24.356  0.00  0.00    -0.450 OA
BRANCH  12  13
ATOM     13  C   UNL     1      10.513   2.993  23.618  0.00  0.00    +0.340 C 
ATOM     14  O   UNL     1      11.527   3.591  23.296  0.00  0.00    -0.245 OA
BRANCH  13  15
ATOM     15  C   UNL     1      10.256   1.585  23.209  0.00  0.00    +0.066 A 
ATOM     16  C   UNL     1      10.416   0.484  24.066  0.00  0.00    +0.064 A 
ATOM     17  C   UNL     1      10.086  -0.789  23.601  0.00  0.00    +0.163 A 
ATOM     18  C   UNL     1       9.633  -0.978  22.299  0.00  0.00    +0.201 A 
ATOM     19  C   UNL     1       9.505   0.105  21.442  0.00  0.00    +0.163 A 
ATOM     20  C   UNL     1       9.809   1.386  21.888  0.00  0.00    +0.064 A 
BRANCH  19  21
ATOM     21  O   UNL     1       9.073  -0.134  20.167  0.00  0.00    -0.503 OA
ATOM     22  H   UNL     1       8.389  -0.826  20.200  0.00  0.00    +0.292 HD
ENDBRANCH  19  21
BRANCH  18  23
ATOM     23  O   UNL     1       9.309  -2.239  21.875  0.00  0.00    -0.501 OA
ATOM     24  H   UNL     1       8.439  -2.134  21.439  0.00  0.00    +0.292 HD
ENDBRANCH  18  23
BRANCH  17  25
ATOM     25  O   UNL     1      10.202  -1.865  24.434  0.00  0.00    -0.503 OA
ATOM     26  H   UNL     1       9.371  -2.367  24.311  0.00  0.00    +0.292 HD
ENDBRANCH  17  25
ENDBRANCH  13  15
ENDBRANCH  12  13
ENDBRANCH   5  12
ENDBRANCH   1   4
BRANCH   1  27
ATOM     27  O   UNL     1       5.976   1.114  24.324  0.00  0.00    -0.325 OA
BRANCH  27  28
ATOM     28  C   UNL     1       6.246  -0.098  24.950  0.00  0.00    +0.256 A 
ATOM     29  C   UNL     1       6.476  -1.325  24.120  0.00  0.00    +0.242 A 
ATOM     30  O   UNL     1       6.279  -1.340  22.910  0.00  0.00    -0.283 OA
ATOM     31  C   UNL     1       6.884  -2.547  24.830  0.00  0.00    +0.109 A 
ATOM     32  C   UNL     1       6.900  -2.515  26.222  0.00  0.00    +0.147 A 
ATOM     33  C   UNL     1       7.240  -3.661  26.948  0.00  0.00    +0.092 A 
ATOM     34  C   UNL     1       7.545  -4.837  26.267  0.00  0.00    +0.124 A 
ATOM     35  C   UNL     1       7.530  -4.885  24.879  0.00  0.00    +0.091 A 
ATOM     36  O   UNL     1       6.562  -1.403  26.954  0.00  0.00    -0.451 OA
ATOM     37  C   UNL     1       7.207  -3.738  24.160  0.00  0.00    +0.135 A 
ATOM     38  C   UNL     1       6.236  -0.221  26.294  0.00  0.00    +0.185 A 
BRANCH  38  39
ATOM     39  C   UNL     1       5.880   0.887  27.239  0.00  0.00    +0.025 A 
ATOM     40  C   UNL     1       4.523   1.197  27.478  0.00  0.00    +0.015 A 
ATOM     41  C   UNL     1       4.146   2.278  28.288  0.00  0.00    +0.050 A 
ATOM     42  C   UNL     1       5.127   3.049  28.884  0.00  0.00    +0.158 A 
ATOM     43  C   UNL     1       6.471   2.760  28.686  0.00  0.00    +0.159 A 
ATOM     44  C   UNL     1       6.851   1.706  27.856  0.00  0.00    +0.060 A 
BRANCH  43  45
ATOM     45  O   UNL     1       7.387   3.550  29.327  0.00  0.00    -0.503 OA
ATOM     46  H   UNL     1       6.932   4.355  29.628  0.00  0.00    +0.292 HD
ENDBRANCH  43  45
BRANCH  42  47
ATOM     47  O   UNL     1       4.760   4.111  29.665  0.00  0.00    -0.503 OA
ATOM     48  H   UNL     1       4.570   3.720  30.542  0.00  0.00    +0.292 HD
ENDBRANCH  42  47
ENDBRANCH  38  39
BRANCH  37  49
ATOM     49  O   UNL     1       7.211  -3.803  22.796  0.00  0.00    -0.506 OA
ATOM     50  H   UNL     1       6.878  -4.660  22.489  0.00  0.00    +0.292 HD
ENDBRANCH  37  49
BRANCH  34  51
ATOM     51  O   UNL     1       7.862  -5.984  26.928  0.00  0.00    -0.507 OA
ATOM     52  H   UNL     1       7.531  -6.747  26.432  0.00  0.00    +0.292 HD
ENDBRANCH  34  51
ENDBRANCH  27  28
ENDBRANCH   1  27
TORSDOF 16
ENDMDL
