MODEL 1
REMARK VINA RESULT:      -7.3      0.000      0.000
REMARK  Name = 
REMARK  15 active torsions:
REMARK  status: ('A' for Active; 'I' for Inactive)
REMARK    1  A    between atoms: C_2  and  O_46
REMARK    2  A    between atoms: C_4  and  O_45
REMARK    3  A    between atoms: C_6  and  O_33
REMARK    4  A    between atoms: C_8  and  O_11
REMARK    5  A    between atoms: O_11  and  C_12
REMARK    6  A    between atoms: C_13  and  C_25
REMARK    7  A    between atoms: C_17  and  O_24
REMARK    8  A    between atoms: C_19  and  O_23
REMARK    9  A    between atoms: C_27  and  O_32
REMARK   10  A    between atoms: C_28  and  O_31
REMARK   11  A    between atoms: O_33  and  C_34
REMARK   12  A    between atoms: C_36  and  O_44
REMARK   13  A    between atoms: C_38  and  C_41
REMARK   14  A    between atoms: C_38  and  O_43
REMARK   15  A    between atoms: C_41  and  O_42
REMARK                            x       y       z     vdW  Elec       q    Type
REMARK                         _______ _______ _______ _____ _____    ______ ____
ROOT
ATOM      1  C   UNL     1       6.199  -1.047  24.426  0.00  0.00    +0.214 A 
ATOM      2  C   UNL     1       5.211  -2.183  24.554  0.00  0.00    +0.238 A 
ATOM      3  O   UNL     1       4.258  -2.130  25.321  0.00  0.00    -0.283 OA
ATOM      4  C   UNL     1       5.470  -3.422  23.791  0.00  0.00    +0.109 A 
ATOM      5  C   UNL     1       6.716  -3.547  23.181  0.00  0.00    +0.147 A 
ATOM      6  C   UNL     1       7.076  -4.726  22.516  0.00  0.00    +0.092 A 
ATOM      7  C   UNL     1       6.174  -5.781  22.466  0.00  0.00    +0.124 A 
ATOM      8  C   UNL     1       4.920  -5.669  23.051  0.00  0.00    +0.091 A 
ATOM      9  O   UNL     1       7.654  -2.555  23.205  0.00  0.00    -0.451 OA
ATOM     10  C   UNL     1       4.568  -4.494  23.718  0.00  0.00    +0.135 A 
ATOM     11  C   UNL     1       7.355  -1.320  23.773  0.00  0.00    +0.181 A 
ENDROOT
BRANCH  11  12
ATOM     12  C   UNL     1       8.519  -0.392  23.627  0.00  0.00    +0.025 A 
ATOM     13  C   UNL     1       9.420  -0.226  24.703  0.00  0.00    +0.015 A 
ATOM     14  C   UNL     1      10.392   0.782  24.700  0.00  0.00    +0.050 A 
ATOM     15  C   UNL     1      10.475   1.633  23.615  0.00  0.00    +0.158 A 
ATOM     16  C   UNL     1       9.647   1.452  22.514  0.00  0.00    +0.159 A 
ATOM     17  C   UNL     1       8.677   0.451  22.514  0.00  0.00    +0.060 A 
BRANCH  15  18
ATOM     18  O   UNL     1      11.369   2.664  23.636  0.00  0.00    -0.503 OA
ATOM     19  H   UNL     1      11.517   2.879  22.692  0.00  0.00    +0.292 HD
ENDBRANCH  15  18
BRANCH  16  20
ATOM     20  O   UNL     1       9.813   2.305  21.458  0.00  0.00    -0.503 OA
ATOM     21  H   UNL     1       9.244   2.015  20.721  0.00  0.00    +0.292 HD
ENDBRANCH  16  20
ENDBRANCH  11  12
BRANCH   7  22
ATOM     22  O   UNL     1       6.473  -6.957  21.846  0.00  0.00    -0.507 OA
ATOM     23  H   UNL     1       5.712  -7.249  21.315  0.00  0.00    +0.292 HD
ENDBRANCH   7  22
BRANCH  10  24
ATOM     24  O   UNL     1       3.321  -4.406  24.269  0.00  0.00    -0.506 OA
ATOM     25  H   UNL     1       3.147  -3.498  24.562  0.00  0.00    +0.292 HD
ENDBRANCH  10  24
BRANCH   1  26
ATOM     26  O   UNL     1       5.959   0.221  24.964  0.00  0.00    -0.453 OA
BRANCH  26  29
ATOM     27  C   UNL     1       5.547   0.235  28.575  0.00  0.00    +0.198 C 
ATOM     28  O   UNL     1       5.178   0.156  27.196  0.00  0.00    -0.337 OA
ATOM     29  C   UNL     1       6.287   0.471  26.345  0.00  0.00    +0.340 C 
ATOM     30  C   UNL     1       6.634   1.976  26.532  0.00  0.00    +0.221 C 
ATOM     31  C   UNL     1       6.908   2.244  28.032  0.00  0.00    +0.180 C 
ATOM     32  C   UNL     1       5.835   1.683  28.964  0.00  0.00    +0.171 C 
BRANCH  31  33
ATOM     33  O   UNL     1       7.086   3.644  28.283  0.00  0.00    -0.386 OA
ATOM     34  H   UNL     1       6.950   3.742  29.246  0.00  0.00    +0.210 HD
ENDBRANCH  31  33
BRANCH  32  35
ATOM     35  O   UNL     1       6.344   1.777  30.304  0.00  0.00    -0.387 OA
ATOM     36  H   UNL     1       6.346   0.883  30.688  0.00  0.00    +0.210 HD
ENDBRANCH  32  35
BRANCH  30  37
ATOM     37  O   UNL     1       7.692   2.465  25.664  0.00  0.00    -0.337 OA
BRANCH  37  38
ATOM     38  C   UNL     1       7.419   3.679  24.977  0.00  0.00    +0.282 C 
ATOM     39  O   UNL     1       7.239   3.513  23.576  0.00  0.00    -0.346 OA
ATOM     40  C   UNL     1       7.765   4.649  22.889  0.00  0.00    +0.202 C 
ATOM     41  C   UNL     1       8.264   5.614  23.955  0.00  0.00    +0.142 C 
ATOM     42  C   UNL     1       8.585   4.672  25.112  0.00  0.00    +0.206 C 
BRANCH  41  43
ATOM     43  O   UNL     1       7.181   6.483  24.350  0.00  0.00    -0.381 OA
ATOM     44  H   UNL     1       7.154   6.461  25.324  0.00  0.00    +0.210 HD
ENDBRANCH  41  43
BRANCH  42  45
ATOM     45  O   UNL     1       8.630   5.365  26.363  0.00  0.00    -0.384 OA
ATOM     46  H   UNL     1       9.283   6.082  26.316  0.00  0.00    +0.210 HD
ENDBRANCH  42  45
BRANCH  41  47
ATOM     47  C   UNL     1       9.420   6.460  23.429  0.00  0.00    +0.195 C 
BRANCH  47  48
ATOM     48  O   UNL     1      10.541   5.660  23.076  0.00  0.00    -0.392 OA
ATOM     49  H   UNL     1      11.302   6.008  23.572  0.00  0.00    +0.210 HD
ENDBRANCH  47  48
ENDBRANCH  41  47
ENDBRANCH  37  38
ENDBRANCH  30  37
ENDBRANCH  26  29
ENDBRANCH   1  26
TORSDOF 15
ENDMDL
MODEL 2
REMARK VINA RESULT:      -7.2      2.094      3.204
REMARK  Name = 
REMARK  15 active torsions:
REMARK  status: ('A' for Active; 'I' for Inactive)
REMARK    1  A    between atoms: C_2  and  O_46
REMARK    2  A    between atoms: C_4  and  O_45
REMARK    3  A    between atoms: C_6  and  O_33
REMARK    4  A    between atoms: C_8  and  O_11
REMARK    5  A    between atoms: O_11  and  C_12
REMARK    6  A    between atoms: C_13  and  C_25
REMARK    7  A    between atoms: C_17  and  O_24
REMARK    8  A    between atoms: C_19  and  O_23
REMARK    9  A    between atoms: C_27  and  O_32
REMARK   10  A    between atoms: C_28  and  O_31
REMARK   11  A    between atoms: O_33  and  C_34
REMARK   12  A    between atoms: C_36  and  O_44
REMARK   13  A    between atoms: C_38  and  C_41
REMARK   14  A    between atoms: C_38  and  O_43
REMARK   15  A    between atoms: C_41  and  O_42
REMARK                            x       y       z     vdW  Elec       q    Type
REMARK                         _______ _______ _______ _____ _____    ______ ____
ROOT
ATOM      1  C   UNL     1       5.071  -2.515  24.727  0.00  0.00    +0.214 A 
ATOM      2  C   UNL     1       3.804  -3.076  25.330  0.00  0.00    +0.238 A 
ATOM      3  O   UNL     1       3.047  -2.389  26.003  0.00  0.00    -0.283 OA
ATOM      4  C   UNL     1       3.534  -4.520  25.167  0.00  0.00    +0.109 A 
ATOM      5  C   UNL     1       4.566  -5.309  24.664  0.00  0.00    +0.147 A 
ATOM      6  C   UNL     1       4.424  -6.699  24.564  0.00  0.00    +0.092 A 
ATOM      7  C   UNL     1       3.236  -7.293  24.971  0.00  0.00    +0.124 A 
ATOM      8  C   UNL     1       2.189  -6.522  25.456  0.00  0.00    +0.091 A 
ATOM      9  O   UNL     1       5.763  -4.792  24.261  0.00  0.00    -0.451 OA
ATOM     10  C   UNL     1       2.337  -5.137  25.560  0.00  0.00    +0.135 A 
ATOM     11  C   UNL     1       5.964  -3.415  24.249  0.00  0.00    +0.181 A 
ENDROOT
BRANCH  11  12
ATOM     12  C   UNL     1       7.327  -3.100  23.718  0.00  0.00    +0.025 A 
ATOM     13  C   UNL     1       8.468  -3.407  24.494  0.00  0.00    +0.015 A 
ATOM     14  C   UNL     1       9.741  -2.942  24.145  0.00  0.00    +0.050 A 
ATOM     15  C   UNL     1       9.887  -2.166  23.011  0.00  0.00    +0.158 A 
ATOM     16  C   UNL     1       8.795  -1.904  22.193  0.00  0.00    +0.159 A 
ATOM     17  C   UNL     1       7.525  -2.365  22.538  0.00  0.00    +0.060 A 
BRANCH  15  18
ATOM     18  O   UNL     1      11.111  -1.646  22.704  0.00  0.00    -0.503 OA
ATOM     19  H   UNL     1      11.289  -1.001  23.419  0.00  0.00    +0.292 HD
ENDBRANCH  15  18
BRANCH  16  20
ATOM     20  O   UNL     1       9.020  -1.166  21.064  0.00  0.00    -0.503 OA
ATOM     21  H   UNL     1       9.767  -1.554  20.572  0.00  0.00    +0.292 HD
ENDBRANCH  16  20
ENDBRANCH  11  12
BRANCH   7  22
ATOM     22  O   UNL     1       3.045  -8.641  24.910  0.00  0.00    -0.507 OA
ATOM     23  H   UNL     1       2.922  -8.994  25.809  0.00  0.00    +0.292 HD
ENDBRANCH   7  22
BRANCH  10  24
ATOM     24  O   UNL     1       1.283  -4.402  26.025  0.00  0.00    -0.506 OA
ATOM     25  H   UNL     1       1.326  -4.327  26.992  0.00  0.00    +0.292 HD
ENDBRANCH  10  24
BRANCH   1  26
ATOM     26  O   UNL     1       5.334  -1.144  24.674  0.00  0.00    -0.453 OA
BRANCH  26  29
ATOM     27  C   UNL     1       4.439   0.775  27.629  0.00  0.00    +0.198 C 
ATOM     28  O   UNL     1       4.303   0.200  26.327  0.00  0.00    -0.337 OA
ATOM     29  C   UNL     1       5.526  -0.418  25.904  0.00  0.00    +0.340 C 
ATOM     30  C   UNL     1       6.587   0.700  25.687  0.00  0.00    +0.221 C 
ATOM     31  C   UNL     1       6.726   1.519  26.994  0.00  0.00    +0.180 C 
ATOM     32  C   UNL     1       5.390   1.969  27.583  0.00  0.00    +0.171 C 
BRANCH  31  33
ATOM     33  O   UNL     1       7.580   2.654  26.804  0.00  0.00    -0.386 OA
ATOM     34  H   UNL     1       7.689   2.722  25.836  0.00  0.00    +0.210 HD
ENDBRANCH  31  33
BRANCH  32  35
ATOM     35  O   UNL     1       5.656   2.480  28.900  0.00  0.00    -0.387 OA
ATOM     36  H   UNL     1       5.679   3.451  28.846  0.00  0.00    +0.210 HD
ENDBRANCH  32  35
BRANCH  30  37
ATOM     37  O   UNL     1       7.862   0.231  25.172  0.00  0.00    -0.337 OA
BRANCH  37  38
ATOM     38  C   UNL     1       8.387   0.952  24.064  0.00  0.00    +0.282 C 
ATOM     39  O   UNL     1       9.342   1.939  24.430  0.00  0.00    -0.346 OA
ATOM     40  C   UNL     1       9.217   3.068  23.562  0.00  0.00    +0.202 C 
ATOM     41  C   UNL     1       8.132   2.725  22.551  0.00  0.00    +0.142 C 
ATOM     42  C   UNL     1       7.281   1.722  23.324  0.00  0.00    +0.206 C 
BRANCH  41  43
ATOM     43  O   UNL     1       8.733   2.053  21.423  0.00  0.00    -0.381 OA
ATOM     44  H   UNL     1       8.623   2.649  20.659  0.00  0.00    +0.210 HD
ENDBRANCH  41  43
BRANCH  42  45
ATOM     45  O   UNL     1       6.483   0.917  22.451  0.00  0.00    -0.384 OA
ATOM     46  H   UNL     1       5.922   1.489  21.903  0.00  0.00    +0.210 HD
ENDBRANCH  42  45
BRANCH  41  47
ATOM     47  C   UNL     1       7.421   3.984  22.064  0.00  0.00    +0.195 C 
BRANCH  47  48
ATOM     48  O   UNL     1       6.046   3.742  21.793  0.00  0.00    -0.392 OA
ATOM     49  H   UNL     1       5.972   2.808  21.530  0.00  0.00    +0.210 HD
ENDBRANCH  47  48
ENDBRANCH  41  47
ENDBRANCH  37  38
ENDBRANCH  30  37
ENDBRANCH  26  29
ENDBRANCH   1  26
TORSDOF 15
ENDMDL
MODEL 3
REMARK VINA RESULT:      -7.1      1.758      7.659
REMARK  Name = 
REMARK  15 active torsions:
REMARK  status: ('A' for Active; 'I' for Inactive)
REMARK    1  A    between atoms: C_2  and  O_46
REMARK    2  A    between atoms: C_4  and  O_45
REMARK    3  A    between atoms: C_6  and  O_33
REMARK    4  A    between atoms: C_8  and  O_11
REMARK    5  A    between atoms: O_11  and  C_12
REMARK    6  A    between atoms: C_13  and  C_25
REMARK    7  A    between atoms: C_17  and  O_24
REMARK    8  A    between atoms: C_19  and  O_23
REMARK    9  A    between atoms: C_27  and  O_32
REMARK   10  A    between atoms: C_28  and  O_31
REMARK   11  A    between atoms: O_33  and  C_34
REMARK   12  A    between atoms: C_36  and  O_44
REMARK   13  A    between atoms: C_38  and  C_41
REMARK   14  A    between atoms: C_38  and  O_43
REMARK   15  A    between atoms: C_41  and  O_42
REMARK                            x       y       z     vdW  Elec       q    Type
REMARK                         _______ _______ _______ _____ _____    ______ ____
ROOT
ATOM      1  C   UNL     1       8.177   2.070  23.881  0.00  0.00    +0.214 A 
ATOM      2  C   UNL     1       8.317   3.563  23.699  0.00  0.00    +0.238 A 
ATOM      3  O   UNL     1       7.349   4.285  23.498  0.00  0.00    -0.283 OA
ATOM      4  C   UNL     1       9.679   4.138  23.676  0.00  0.00    +0.109 A 
ATOM      5  C   UNL     1      10.746   3.247  23.600  0.00  0.00    +0.147 A 
ATOM      6  C   UNL     1      12.063   3.711  23.483  0.00  0.00    +0.092 A 
ATOM      7  C   UNL     1      12.301   5.079  23.444  0.00  0.00    +0.124 A 
ATOM      8  C   UNL     1      11.252   5.983  23.538  0.00  0.00    +0.091 A 
ATOM      9  O   UNL     1      10.581   1.892  23.618  0.00  0.00    -0.451 OA
ATOM     10  C   UNL     1       9.941   5.516  23.648  0.00  0.00    +0.135 A 
ATOM     11  C   UNL     1       9.318   1.341  23.812  0.00  0.00    +0.181 A 
ENDROOT
BRANCH  11  12
ATOM     12  C   UNL     1       9.408  -0.152  23.847  0.00  0.00    +0.025 A 
ATOM     13  C   UNL     1       9.513  -0.873  22.636  0.00  0.00    +0.015 A 
ATOM     14  C   UNL     1       9.383  -2.267  22.597  0.00  0.00    +0.050 A 
ATOM     15  C   UNL     1       9.150  -2.954  23.773  0.00  0.00    +0.158 A 
ATOM     16  C   UNL     1       9.109  -2.278  24.987  0.00  0.00    +0.159 A 
ATOM     17  C   UNL     1       9.237  -0.891  25.029  0.00  0.00    +0.060 A 
BRANCH  15  18
ATOM     18  O   UNL     1       8.949  -4.303  23.735  0.00  0.00    -0.503 OA
ATOM     19  H   UNL     1       8.147  -4.446  24.279  0.00  0.00    +0.292 HD
ENDBRANCH  15  18
BRANCH  16  20
ATOM     20  O   UNL     1       8.918  -3.027  26.115  0.00  0.00    -0.503 OA
ATOM     21  H   UNL     1       8.105  -3.554  26.014  0.00  0.00    +0.292 HD
ENDBRANCH  16  20
ENDBRANCH  11  12
BRANCH   7  22
ATOM     22  O   UNL     1      13.558   5.589  23.317  0.00  0.00    -0.507 OA
ATOM     23  H   UNL     1      13.678   5.939  22.417  0.00  0.00    +0.292 HD
ENDBRANCH   7  22
BRANCH  10  24
ATOM     24  O   UNL     1       8.931   6.430  23.757  0.00  0.00    -0.506 OA
ATOM     25  H   UNL     1       8.262   6.118  24.387  0.00  0.00    +0.292 HD
ENDBRANCH  10  24
BRANCH   1  26
ATOM     26  O   UNL     1       6.941   1.451  24.088  0.00  0.00    -0.453 OA
BRANCH  26  29
ATOM     27  C   UNL     1       6.683   2.144  27.646  0.00  0.00    +0.198 C 
ATOM     28  O   UNL     1       7.297   1.985  26.365  0.00  0.00    -0.337 OA
ATOM     29  C   UNL     1       6.372   1.446  25.412  0.00  0.00    +0.340 C 
ATOM     30  C   UNL     1       6.038  -0.016  25.828  0.00  0.00    +0.221 C 
ATOM     31  C   UNL     1       5.501  -0.012  27.280  0.00  0.00    +0.180 C 
ATOM     32  C   UNL     1       6.368   0.780  28.256  0.00  0.00    +0.171 C 
BRANCH  31  33
ATOM     33  O   UNL     1       5.318  -1.349  27.767  0.00  0.00    -0.386 OA
ATOM     34  H   UNL     1       5.549  -1.921  27.009  0.00  0.00    +0.210 HD
ENDBRANCH  31  33
BRANCH  32  35
ATOM     35  O   UNL     1       5.624   0.909  29.479  0.00  0.00    -0.387 OA
ATOM     36  H   UNL     1       6.153   0.517  30.195  0.00  0.00    +0.210 HD
ENDBRANCH  32  35
BRANCH  30  37
ATOM     37  O   UNL     1       5.172  -0.725  24.902  0.00  0.00    -0.337 OA
BRANCH  37  38
ATOM     38  C   UNL     1       5.632  -2.000  24.475  0.00  0.00    +0.282 C 
ATOM     39  O   UNL     1       5.923  -2.064  23.085  0.00  0.00    -0.346 OA
ATOM     40  C   UNL     1       5.584  -3.359  22.584  0.00  0.00    +0.202 C 
ATOM     41  C   UNL     1       5.092  -4.172  23.773  0.00  0.00    +0.142 C 
ATOM     42  C   UNL     1       4.568  -3.085  24.708  0.00  0.00    +0.206 C 
BRANCH  41  43
ATOM     43  O   UNL     1       6.218  -4.822  24.400  0.00  0.00    -0.381 OA
ATOM     44  H   UNL     1       5.899  -5.153  25.260  0.00  0.00    +0.210 HD
ENDBRANCH  41  43
BRANCH  42  45
ATOM     45  O   UNL     1       4.480  -3.546  26.060  0.00  0.00    -0.384 OA
ATOM     46  H   UNL     1       4.361  -4.510  26.069  0.00  0.00    +0.210 HD
ENDBRANCH  42  45
BRANCH  41  47
ATOM     47  C   UNL     1       4.084  -5.229  23.332  0.00  0.00    +0.195 C 
BRANCH  47  48
ATOM     48  O   UNL     1       4.568  -5.995  22.235  0.00  0.00    -0.392 OA
ATOM     49  H   UNL     1       3.792  -6.258  21.711  0.00  0.00    +0.210 HD
ENDBRANCH  47  48
ENDBRANCH  41  47
ENDBRANCH  37  38
ENDBRANCH  30  37
ENDBRANCH  26  29
ENDBRANCH   1  26
TORSDOF 15
ENDMDL
MODEL 4
REMARK VINA RESULT:      -7.1      1.212      1.958
REMARK  Name = 
REMARK  15 active torsions:
REMARK  status: ('A' for Active; 'I' for Inactive)
REMARK    1  A    between atoms: C_2  and  O_46
REMARK    2  A    between atoms: C_4  and  O_45
REMARK    3  A    between atoms: C_6  and  O_33
REMARK    4  A    between atoms: C_8  and  O_11
REMARK    5  A    between atoms: O_11  and  C_12
REMARK    6  A    between atoms: C_13  and  C_25
REMARK    7  A    between atoms: C_17  and  O_24
REMARK    8  A    between atoms: C_19  and  O_23
REMARK    9  A    between atoms: C_27  and  O_32
REMARK   10  A    between atoms: C_28  and  O_31
REMARK   11  A    between atoms: O_33  and  C_34
REMARK   12  A    between atoms: C_36  and  O_44
REMARK   13  A    between atoms: C_38  and  C_41
REMARK   14  A    between atoms: C_38  and  O_43
REMARK   15  A    between atoms: C_41  and  O_42
REMARK                            x       y       z     vdW  Elec       q    Type
REMARK                         _______ _______ _______ _____ _____    ______ ____
ROOT
ATOM      1  C   UNL     1       6.230  -1.131  24.255  0.00  0.00    +0.214 A 
ATOM      2  C   UNL     1       5.220  -2.249  24.374  0.00  0.00    +0.238 A 
ATOM      3  O   UNL     1       4.222  -2.148  25.075  0.00  0.00    -0.283 OA
ATOM      4  C   UNL     1       5.510  -3.526  23.689  0.00  0.00    +0.109 A 
ATOM      5  C   UNL     1       6.790  -3.694  23.166  0.00  0.00    +0.147 A 
ATOM      6  C   UNL     1       7.175  -4.908  22.583  0.00  0.00    +0.092 A 
ATOM      7  C   UNL     1       6.263  -5.954  22.525  0.00  0.00    +0.124 A 
ATOM      8  C   UNL     1       4.977  -5.800  23.024  0.00  0.00    +0.091 A 
ATOM      9  O   UNL     1       7.738  -2.712  23.203  0.00  0.00    -0.451 OA
ATOM     10  C   UNL     1       4.600  -4.591  23.610  0.00  0.00    +0.135 A 
ATOM     11  C   UNL     1       7.421  -1.448  23.691  0.00  0.00    +0.181 A 
ENDROOT
BRANCH  11  12
ATOM     12  C   UNL     1       8.605  -0.541  23.575  0.00  0.00    +0.025 A 
ATOM     13  C   UNL     1       9.518  -0.442  24.650  0.00  0.00    +0.015 A 
ATOM     14  C   UNL     1      10.512   0.543  24.682  0.00  0.00    +0.050 A 
ATOM     15  C   UNL     1      10.607   1.438  23.633  0.00  0.00    +0.158 A 
ATOM     16  C   UNL     1       9.766   1.323  22.532  0.00  0.00    +0.159 A 
ATOM     17  C   UNL     1       8.775   0.345  22.498  0.00  0.00    +0.060 A 
BRANCH  15  18
ATOM     18  O   UNL     1      11.524   2.447  23.691  0.00  0.00    -0.503 OA
ATOM     19  H   UNL     1      12.206   2.121  24.315  0.00  0.00    +0.292 HD
ENDBRANCH  15  18
BRANCH  16  20
ATOM     20  O   UNL     1       9.944   2.216  21.512  0.00  0.00    -0.503 OA
ATOM     21  H   UNL     1      10.095   3.103  21.887  0.00  0.00    +0.292 HD
ENDBRANCH  16  20
ENDBRANCH  11  12
BRANCH   7  22
ATOM     22  O   UNL     1       6.584  -7.162  21.983  0.00  0.00    -0.507 OA
ATOM     23  H   UNL     1       7.242  -7.038  21.277  0.00  0.00    +0.292 HD
ENDBRANCH   7  22
BRANCH  10  24
ATOM     24  O   UNL     1       3.321  -4.463  24.076  0.00  0.00    -0.506 OA
ATOM     25  H   UNL     1       3.329  -4.151  24.995  0.00  0.00    +0.292 HD
ENDBRANCH  10  24
BRANCH   1  26
ATOM     26  O   UNL     1       5.975   0.163  24.716  0.00  0.00    -0.453 OA
BRANCH  26  29
ATOM     27  C   UNL     1       5.666   0.438  28.326  0.00  0.00    +0.198 C 
ATOM     28  O   UNL     1       5.258   0.258  26.968  0.00  0.00    -0.337 OA
ATOM     29  C   UNL     1       6.341   0.514  26.065  0.00  0.00    +0.340 C 
ATOM     30  C   UNL     1       6.686   2.030  26.132  0.00  0.00    +0.221 C 
ATOM     31  C   UNL     1       7.001   2.406  27.601  0.00  0.00    +0.180 C 
ATOM     32  C   UNL     1       5.958   1.912  28.601  0.00  0.00    +0.171 C 
BRANCH  31  33
ATOM     33  O   UNL     1       7.180   3.821  27.745  0.00  0.00    -0.386 OA
ATOM     34  H   UNL     1       6.835   4.024  28.636  0.00  0.00    +0.210 HD
ENDBRANCH  31  33
BRANCH  32  35
ATOM     35  O   UNL     1       6.505   2.103  29.916  0.00  0.00    -0.387 OA
ATOM     36  H   UNL     1       7.215   1.451  30.044  0.00  0.00    +0.210 HD
ENDBRANCH  32  35
BRANCH  30  37
ATOM     37  O   UNL     1       7.716   2.457  25.201  0.00  0.00    -0.337 OA
BRANCH  37  38
ATOM     38  C   UNL     1       7.341   3.481  24.288  0.00  0.00    +0.282 C 
ATOM     39  O   UNL     1       7.241   4.767  24.885  0.00  0.00    -0.346 OA
ATOM     40  C   UNL     1       6.180   5.498  24.268  0.00  0.00    +0.202 C 
ATOM     41  C   UNL     1       5.615   4.608  23.171  0.00  0.00    +0.142 C 
ATOM     42  C   UNL     1       5.952   3.212  23.687  0.00  0.00    +0.206 C 
BRANCH  41  43
ATOM     43  O   UNL     1       6.348   4.841  21.949  0.00  0.00    -0.381 OA
ATOM     44  H   UNL     1       7.268   5.025  22.214  0.00  0.00    +0.210 HD
ENDBRANCH  41  43
BRANCH  42  45
ATOM     45  O   UNL     1       5.940   2.240  22.637  0.00  0.00    -0.384 OA
ATOM     46  H   UNL     1       6.328   2.623  21.834  0.00  0.00    +0.210 HD
ENDBRANCH  42  45
BRANCH  41  47
ATOM     47  C   UNL     1       4.137   4.904  22.933  0.00  0.00    +0.195 C 
BRANCH  47  48
ATOM     48  O   UNL     1       3.633   4.201  21.805  0.00  0.00    -0.392 OA
ATOM     49  H   UNL     1       4.378   4.082  21.191  0.00  0.00    +0.210 HD
ENDBRANCH  47  48
ENDBRANCH  41  47
ENDBRANCH  37  38
ENDBRANCH  30  37
ENDBRANCH  26  29
ENDBRANCH   1  26
TORSDOF 15
ENDMDL
MODEL 5
REMARK VINA RESULT:      -6.8      2.512      8.050
REMARK  Name = 
REMARK  15 active torsions:
REMARK  status: ('A' for Active; 'I' for Inactive)
REMARK    1  A    between atoms: C_2  and  O_46
REMARK    2  A    between atoms: C_4  and  O_45
REMARK    3  A    between atoms: C_6  and  O_33
REMARK    4  A    between atoms: C_8  and  O_11
REMARK    5  A    between atoms: O_11  and  C_12
REMARK    6  A    between atoms: C_13  and  C_25
REMARK    7  A    between atoms: C_17  and  O_24
REMARK    8  A    between atoms: C_19  and  O_23
REMARK    9  A    between atoms: C_27  and  O_32
REMARK   10  A    between atoms: C_28  and  O_31
REMARK   11  A    between atoms: O_33  and  C_34
REMARK   12  A    between atoms: C_36  and  O_44
REMARK   13  A    between atoms: C_38  and  C_41
REMARK   14  A    between atoms: C_38  and  O_43
REMARK   15  A    between atoms: C_41  and  O_42
REMARK                            x       y       z     vdW  Elec       q    Type
REMARK                         _______ _______ _______ _____ _____    ______ ____
ROOT
ATOM      1  C   UNL     1       6.518  -0.371  26.158  0.00  0.00    +0.214 A 
ATOM      2  C   UNL     1       5.603  -0.323  27.360  0.00  0.00    +0.238 A 
ATOM      3  O   UNL     1       4.763  -1.189  27.570  0.00  0.00    -0.283 OA
ATOM      4  C   UNL     1       5.678   0.856  28.248  0.00  0.00    +0.109 A 
ATOM      5  C   UNL     1       6.423   1.945  27.800  0.00  0.00    +0.147 A 
ATOM      6  C   UNL     1       6.471   3.135  28.538  0.00  0.00    +0.092 A 
ATOM      7  C   UNL     1       5.766   3.224  29.732  0.00  0.00    +0.124 A 
ATOM      8  C   UNL     1       5.033   2.144  30.204  0.00  0.00    +0.091 A 
ATOM      9  O   UNL     1       7.126   1.929  26.631  0.00  0.00    -0.451 OA
ATOM     10  C   UNL     1       4.983   0.962  29.462  0.00  0.00    +0.135 A 
ATOM     11  C   UNL     1       7.202   0.764  25.873  0.00  0.00    +0.181 A 
ENDROOT
BRANCH  11  12
ATOM     12  C   UNL     1       8.070   0.987  24.675  0.00  0.00    +0.025 A 
ATOM     13  C   UNL     1       9.469   1.100  24.838  0.00  0.00    +0.015 A 
ATOM     14  C   UNL     1      10.299   1.521  23.792  0.00  0.00    +0.050 A 
ATOM     15  C   UNL     1       9.736   1.828  22.567  0.00  0.00    +0.158 A 
ATOM     16  C   UNL     1       8.373   1.662  22.359  0.00  0.00    +0.159 A 
ATOM     17  C   UNL     1       7.543   1.244  23.399  0.00  0.00    +0.060 A 
BRANCH  15  18
ATOM     18  O   UNL     1      10.528   2.309  21.565  0.00  0.00    -0.503 OA
ATOM     19  H   UNL     1      11.335   2.626  22.021  0.00  0.00    +0.292 HD
ENDBRANCH  15  18
BRANCH  16  20
ATOM     20  O   UNL     1       7.890   1.943  21.111  0.00  0.00    -0.503 OA
ATOM     21  H   UNL     1       8.637   2.148  20.519  0.00  0.00    +0.292 HD
ENDBRANCH  16  20
ENDBRANCH  11  12
BRANCH   7  22
ATOM     22  O   UNL     1       5.763   4.360  30.485  0.00  0.00    -0.507 OA
ATOM     23  H   UNL     1       6.670   4.701  30.564  0.00  0.00    +0.292 HD
ENDBRANCH   7  22
BRANCH  10  24
ATOM     24  O   UNL     1       4.269  -0.091  29.961  0.00  0.00    -0.506 OA
ATOM     25  H   UNL     1       3.511   0.231  30.475  0.00  0.00    +0.292 HD
ENDBRANCH  10  24
BRANCH   1  26
ATOM     26  O   UNL     1       6.649  -1.509  25.359  0.00  0.00    -0.453 OA
BRANCH  26  29
ATOM     27  C   UNL     1       9.753  -3.163  24.446  0.00  0.00    +0.198 C 
ATOM     28  O   UNL     1       8.509  -2.481  24.268  0.00  0.00    -0.337 OA
ATOM     29  C   UNL     1       7.812  -2.346  25.513  0.00  0.00    +0.340 C 
ATOM     30  C   UNL     1       7.374  -3.763  25.984  0.00  0.00    +0.221 C 
ATOM     31  C   UNL     1       8.625  -4.671  26.070  0.00  0.00    +0.180 C 
ATOM     32  C   UNL     1       9.508  -4.622  24.824  0.00  0.00    +0.171 C 
BRANCH  31  33
ATOM     33  O   UNL     1       8.261  -6.028  26.355  0.00  0.00    -0.386 OA
ATOM     34  H   UNL     1       8.819  -6.564  25.759  0.00  0.00    +0.210 HD
ENDBRANCH  31  33
BRANCH  32  35
ATOM     35  O   UNL     1      10.736  -5.296  25.146  0.00  0.00    -0.387 OA
ATOM     36  H   UNL     1      11.440  -4.627  25.200  0.00  0.00    +0.210 HD
ENDBRANCH  32  35
BRANCH  30  37
ATOM     37  O   UNL     1       6.576  -3.777  27.198  0.00  0.00    -0.337 OA
BRANCH  37  38
ATOM     38  C   UNL     1       5.384  -4.550  27.149  0.00  0.00    +0.282 C 
ATOM     39  O   UNL     1       5.591  -5.931  27.416  0.00  0.00    -0.346 OA
ATOM     40  C   UNL     1       4.695  -6.710  26.621  0.00  0.00    +0.202 C 
ATOM     41  C   UNL     1       3.835  -5.727  25.839  0.00  0.00    +0.142 C 
ATOM     42  C   UNL     1       4.747  -4.506  25.751  0.00  0.00    +0.206 C 
BRANCH  41  43
ATOM     43  O   UNL     1       2.675  -5.385  26.627  0.00  0.00    -0.381 OA
ATOM     44  H   UNL     1       2.440  -4.470  26.383  0.00  0.00    +0.210 HD
ENDBRANCH  41  43
BRANCH  42  45
ATOM     45  O   UNL     1       4.009  -3.312  25.474  0.00  0.00    -0.384 OA
ATOM     46  H   UNL     1       3.765  -3.289  24.535  0.00  0.00    +0.210 HD
ENDBRANCH  42  45
BRANCH  41  47
ATOM     47  C   UNL     1       3.382  -6.331  24.513  0.00  0.00    +0.195 C 
BRANCH  47  48
ATOM     48  O   UNL     1       3.960  -7.612  24.292  0.00  0.00    -0.392 OA
ATOM     49  H   UNL     1       4.799  -7.630  24.783  0.00  0.00    +0.210 HD
ENDBRANCH  47  48
ENDBRANCH  41  47
ENDBRANCH  37  38
ENDBRANCH  30  37
ENDBRANCH  26  29
ENDBRANCH   1  26
TORSDOF 15
ENDMDL
MODEL 6
REMARK VINA RESULT:      -6.7      2.049      4.876
REMARK  Name = 
REMARK  15 active torsions:
REMARK  status: ('A' for Active; 'I' for Inactive)
REMARK    1  A    between atoms: C_2  and  O_46
REMARK    2  A    between atoms: C_4  and  O_45
REMARK    3  A    between atoms: C_6  and  O_33
REMARK    4  A    between atoms: C_8  and  O_11
REMARK    5  A    between atoms: O_11  and  C_12
REMARK    6  A    between atoms: C_13  and  C_25
REMARK    7  A    between atoms: C_17  and  O_24
REMARK    8  A    between atoms: C_19  and  O_23
REMARK    9  A    between atoms: C_27  and  O_32
REMARK   10  A    between atoms: C_28  and  O_31
REMARK   11  A    between atoms: O_33  and  C_34
REMARK   12  A    between atoms: C_36  and  O_44
REMARK   13  A    between atoms: C_38  and  C_41
REMARK   14  A    between atoms: C_38  and  O_43
REMARK   15  A    between atoms: C_41  and  O_42
REMARK                            x       y       z     vdW  Elec       q    Type
REMARK                         _______ _______ _______ _____ _____    ______ ____
ROOT
ATOM      1  C   UNL     1       5.427  -2.276  24.334  0.00  0.00    +0.214 A 
ATOM      2  C   UNL     1       5.031  -3.473  23.500  0.00  0.00    +0.238 A 
ATOM      3  O   UNL     1       5.040  -3.441  22.276  0.00  0.00    -0.283 OA
ATOM      4  C   UNL     1       4.537  -4.678  24.199  0.00  0.00    +0.109 A 
ATOM      5  C   UNL     1       4.257  -4.557  25.559  0.00  0.00    +0.147 A 
ATOM      6  C   UNL     1       3.700  -5.624  26.275  0.00  0.00    +0.092 A 
ATOM      7  C   UNL     1       3.427  -6.816  25.617  0.00  0.00    +0.124 A 
ATOM      8  C   UNL     1       3.716  -6.962  24.268  0.00  0.00    +0.091 A 
ATOM      9  O   UNL     1       4.488  -3.410  26.262  0.00  0.00    -0.451 OA
ATOM     10  C   UNL     1       4.266  -5.894  23.556  0.00  0.00    +0.135 A 
ATOM     11  C   UNL     1       5.112  -2.326  25.652  0.00  0.00    +0.181 A 
ENDROOT
BRANCH  11  12
ATOM     12  C   UNL     1       5.300  -1.218  26.640  0.00  0.00    +0.025 A 
ATOM     13  C   UNL     1       4.197  -0.414  27.005  0.00  0.00    +0.015 A 
ATOM     14  C   UNL     1       4.358   0.761  27.750  0.00  0.00    +0.050 A 
ATOM     15  C   UNL     1       5.628   1.140  28.143  0.00  0.00    +0.158 A 
ATOM     16  C   UNL     1       6.723   0.333  27.856  0.00  0.00    +0.159 A 
ATOM     17  C   UNL     1       6.566  -0.835  27.113  0.00  0.00    +0.060 A 
BRANCH  15  18
ATOM     18  O   UNL     1       5.802   2.320  28.806  0.00  0.00    -0.503 OA
ATOM     19  H   UNL     1       5.273   2.221  29.624  0.00  0.00    +0.292 HD
ENDBRANCH  15  18
BRANCH  16  20
ATOM     20  O   UNL     1       7.943   0.748  28.313  0.00  0.00    -0.503 OA
ATOM     21  H   UNL     1       8.640   0.213  27.890  0.00  0.00    +0.292 HD
ENDBRANCH  16  20
ENDBRANCH  11  12
BRANCH   7  22
ATOM     22  O   UNL     1       2.872  -7.883  26.258  0.00  0.00    -0.507 OA
ATOM     23  H   UNL     1       1.914  -7.744  26.353  0.00  0.00    +0.292 HD
ENDBRANCH   7  22
BRANCH  10  24
ATOM     24  O   UNL     1       4.556  -6.074  22.233  0.00  0.00    -0.506 OA
ATOM     25  H   UNL     1       3.738  -6.164  21.719  0.00  0.00    +0.292 HD
ENDBRANCH  10  24
BRANCH   1  26
ATOM     26  O   UNL     1       6.064  -1.159  23.789  0.00  0.00    -0.453 OA
BRANCH  26  29
ATOM     27  C   UNL     1       9.350  -2.498  23.002  0.00  0.00    +0.198 C 
ATOM     28  O   UNL     1       8.201  -2.173  23.789  0.00  0.00    -0.337 OA
ATOM     29  C   UNL     1       7.293  -1.338  23.059  0.00  0.00    +0.340 C 
ATOM     30  C   UNL     1       7.973   0.045  22.837  0.00  0.00    +0.221 C 
ATOM     31  C   UNL     1       9.328  -0.173  22.121  0.00  0.00    +0.180 C 
ATOM     32  C   UNL     1      10.199  -1.251  22.764  0.00  0.00    +0.171 C 
BRANCH  31  33
ATOM     33  O   UNL     1      10.065   1.054  22.026  0.00  0.00    -0.386 OA
ATOM     34  H   UNL     1      10.288   1.135  21.079  0.00  0.00    +0.210 HD
ENDBRANCH  31  33
BRANCH  32  35
ATOM     35  O   UNL     1      11.283  -1.518  21.860  0.00  0.00    -0.387 OA
ATOM     36  H   UNL     1      11.144  -2.400  21.476  0.00  0.00    +0.210 HD
ENDBRANCH  32  35
BRANCH  30  37
ATOM     37  O   UNL     1       7.134   1.032  22.180  0.00  0.00    -0.337 OA
BRANCH  37  38
ATOM     38  C   UNL     1       6.849   2.204  22.933  0.00  0.00    +0.282 C 
ATOM     39  O   UNL     1       5.465   2.524  22.985  0.00  0.00    -0.346 OA
ATOM     40  C   UNL     1       5.303   3.944  22.985  0.00  0.00    +0.202 C 
ATOM     41  C   UNL     1       6.702   4.544  22.981  0.00  0.00    +0.142 C 
ATOM     42  C   UNL     1       7.521   3.441  22.316  0.00  0.00    +0.206 C 
BRANCH  41  43
ATOM     43  O   UNL     1       7.152   4.700  24.344  0.00  0.00    -0.381 OA
ATOM     44  H   UNL     1       6.796   3.938  24.838  0.00  0.00    +0.210 HD
ENDBRANCH  41  43
BRANCH  42  45
ATOM     45  O   UNL     1       8.915   3.566  22.609  0.00  0.00    -0.384 OA
ATOM     46  H   UNL     1       9.081   3.299  23.528  0.00  0.00    +0.210 HD
ENDBRANCH  42  45
BRANCH  41  47
ATOM     47  C   UNL     1       6.711   5.905  22.292  0.00  0.00    +0.195 C 
BRANCH  47  48
ATOM     48  O   UNL     1       7.869   6.080  21.485  0.00  0.00    -0.392 OA
ATOM     49  H   UNL     1       8.638   5.907  22.055  0.00  0.00    +0.210 HD
ENDBRANCH  47  48
ENDBRANCH  41  47
ENDBRANCH  37  38
ENDBRANCH  30  37
ENDBRANCH  26  29
ENDBRANCH   1  26
TORSDOF 15
ENDMDL
MODEL 7
REMARK VINA RESULT:      -6.7      2.591      6.607
REMARK  Name = 
REMARK  15 active torsions:
REMARK  status: ('A' for Active; 'I' for Inactive)
REMARK    1  A    between atoms: C_2  and  O_46
REMARK    2  A    between atoms: C_4  and  O_45
REMARK    3  A    between atoms: C_6  and  O_33
REMARK    4  A    between atoms: C_8  and  O_11
REMARK    5  A    between atoms: O_11  and  C_12
REMARK    6  A    between atoms: C_13  and  C_25
REMARK    7  A    between atoms: C_17  and  O_24
REMARK    8  A    between atoms: C_19  and  O_23
REMARK    9  A    between atoms: C_27  and  O_32
REMARK   10  A    between atoms: C_28  and  O_31
REMARK   11  A    between atoms: O_33  and  C_34
REMARK   12  A    between atoms: C_36  and  O_44
REMARK   13  A    between atoms: C_38  and  C_41
REMARK   14  A    between atoms: C_38  and  O_43
REMARK   15  A    between atoms: C_41  and  O_42
REMARK                            x       y       z     vdW  Elec       q    Type
REMARK                         _______ _______ _______ _____ _____    ______ ____
ROOT
ATOM      1  C   UNL     1       8.186   2.450  23.776  0.00  0.00    +0.214 A 
ATOM      2  C   UNL     1       8.518   3.924  23.727  0.00  0.00    +0.238 A 
ATOM      3  O   UNL     1       7.647   4.782  23.648  0.00  0.00    -0.283 OA
ATOM      4  C   UNL     1       9.942   4.317  23.682  0.00  0.00    +0.109 A 
ATOM      5  C   UNL     1      10.876   3.307  23.463  0.00  0.00    +0.147 A 
ATOM      6  C   UNL     1      12.237   3.607  23.317  0.00  0.00    +0.092 A 
ATOM      7  C   UNL     1      12.654   4.930  23.393  0.00  0.00    +0.124 A 
ATOM      8  C   UNL     1      11.741   5.948  23.629  0.00  0.00    +0.091 A 
ATOM      9  O   UNL     1      10.532   1.991  23.364  0.00  0.00    -0.451 OA
ATOM     10  C   UNL     1      10.385   5.646  23.768  0.00  0.00    +0.135 A 
ATOM     11  C   UNL     1       9.216   1.591  23.576  0.00  0.00    +0.181 A 
ENDROOT
BRANCH  11  12
ATOM     12  C   UNL     1       9.106   0.103  23.466  0.00  0.00    +0.025 A 
ATOM     13  C   UNL     1       8.756  -0.482  22.228  0.00  0.00    +0.015 A 
ATOM     14  C   UNL     1       8.430  -1.839  22.122  0.00  0.00    +0.050 A 
ATOM     15  C   UNL     1       8.456  -2.628  23.257  0.00  0.00    +0.158 A 
ATOM     16  C   UNL     1       8.861  -2.096  24.474  0.00  0.00    +0.159 A 
ATOM     17  C   UNL     1       9.185  -0.744  24.583  0.00  0.00    +0.060 A 
BRANCH  15  18
ATOM     18  O   UNL     1       8.069  -3.934  23.176  0.00  0.00    -0.503 OA
ATOM     19  H   UNL     1       7.592  -4.100  24.016  0.00  0.00    +0.292 HD
ENDBRANCH  15  18
BRANCH  16  20
ATOM     20  O   UNL     1       8.905  -2.944  25.546  0.00  0.00    -0.503 OA
ATOM     21  H   UNL     1       8.098  -3.491  25.553  0.00  0.00    +0.292 HD
ENDBRANCH  16  20
ENDBRANCH  11  12
BRANCH   7  22
ATOM     22  O   UNL     1      13.962   5.283  23.244  0.00  0.00    -0.507 OA
ATOM     23  H   UNL     1      14.025   6.242  23.090  0.00  0.00    +0.292 HD
ENDBRANCH   7  22
BRANCH  10  24
ATOM     24  O   UNL     1       9.512   6.667  24.018  0.00  0.00    -0.506 OA
ATOM     25  H   UNL     1       8.597   6.345  23.974  0.00  0.00    +0.292 HD
ENDBRANCH  10  24
BRANCH   1  26
ATOM     26  O   UNL     1       6.889   1.979  23.993  0.00  0.00    -0.453 OA
BRANCH  26  29
ATOM     27  C   UNL     1       6.612   1.435  27.576  0.00  0.00    +0.198 C 
ATOM     28  O   UNL     1       7.052   1.230  26.231  0.00  0.00    -0.337 OA
ATOM     29  C   UNL     1       6.325   2.061  25.317  0.00  0.00    +0.340 C 
ATOM     30  C   UNL     1       4.848   1.572  25.283  0.00  0.00    +0.221 C 
ATOM     31  C   UNL     1       4.281   1.591  26.723  0.00  0.00    +0.180 C 
ATOM     32  C   UNL     1       5.187   0.915  27.751  0.00  0.00    +0.171 C 
BRANCH  31  33
ATOM     33  O   UNL     1       2.972   1.009  26.772  0.00  0.00    -0.386 OA
ATOM     34  H   UNL     1       2.969   0.347  26.053  0.00  0.00    +0.210 HD
ENDBRANCH  31  33
BRANCH  32  35
ATOM     35  O   UNL     1       4.667   1.234  29.052  0.00  0.00    -0.387 OA
ATOM     36  H   UNL     1       3.902   0.657  29.219  0.00  0.00    +0.210 HD
ENDBRANCH  32  35
BRANCH  30  37
ATOM     37  O   UNL     1       4.002   2.268  24.329  0.00  0.00    -0.337 OA
BRANCH  37  38
ATOM     38  C   UNL     1       4.185   3.676  24.250  0.00  0.00    +0.282 C 
ATOM     39  O   UNL     1       3.178   4.419  24.925  0.00  0.00    -0.346 OA
ATOM     40  C   UNL     1       2.916   5.627  24.209  0.00  0.00    +0.202 C 
ATOM     41  C   UNL     1       3.872   5.652  23.025  0.00  0.00    +0.142 C 
ATOM     42  C   UNL     1       4.130   4.165  22.793  0.00  0.00    +0.206 C 
BRANCH  41  43
ATOM     43  O   UNL     1       5.107   6.281  23.429  0.00  0.00    -0.381 OA
ATOM     44  H   UNL     1       5.775   5.572  23.466  0.00  0.00    +0.210 HD
ENDBRANCH  41  43
BRANCH  42  45
ATOM     45  O   UNL     1       5.333   3.946  22.050  0.00  0.00    -0.384 OA
ATOM     46  H   UNL     1       5.944   4.687  22.191  0.00  0.00    +0.210 HD
ENDBRANCH  42  45
BRANCH  41  47
ATOM     47  C   UNL     1       3.273   6.426  21.855  0.00  0.00    +0.195 C 
BRANCH  47  48
ATOM     48  O   UNL     1       2.984   5.576  20.752  0.00  0.00    -0.392 OA
ATOM     49  H   UNL     1       2.801   4.693  21.118  0.00  0.00    +0.210 HD
ENDBRANCH  47  48
ENDBRANCH  41  47
ENDBRANCH  37  38
ENDBRANCH  30  37
ENDBRANCH  26  29
ENDBRANCH   1  26
TORSDOF 15
ENDMDL
MODEL 8
REMARK VINA RESULT:      -6.6      3.042      8.676
REMARK  Name = 
REMARK  15 active torsions:
REMARK  status: ('A' for Active; 'I' for Inactive)
REMARK    1  A    between atoms: C_2  and  O_46
REMARK    2  A    between atoms: C_4  and  O_45
REMARK    3  A    between atoms: C_6  and  O_33
REMARK    4  A    between atoms: C_8  and  O_11
REMARK    5  A    between atoms: O_11  and  C_12
REMARK    6  A    between atoms: C_13  and  C_25
REMARK    7  A    between atoms: C_17  and  O_24
REMARK    8  A    between atoms: C_19  and  O_23
REMARK    9  A    between atoms: C_27  and  O_32
REMARK   10  A    between atoms: C_28  and  O_31
REMARK   11  A    between atoms: O_33  and  C_34
REMARK   12  A    between atoms: C_36  and  O_44
REMARK   13  A    between atoms: C_38  and  C_41
REMARK   14  A    between atoms: C_38  and  O_43
REMARK   15  A    between atoms: C_41  and  O_42
REMARK                            x       y       z     vdW  Elec       q    Type
REMARK                         _______ _______ _______ _____ _____    ______ ____
ROOT
ATOM      1  C   UNL     1       7.371  -2.114  25.050  0.00  0.00    +0.214 A 
ATOM      2  C   UNL     1       8.516  -2.145  24.065  0.00  0.00    +0.238 A 
ATOM      3  O   UNL     1       9.163  -3.163  23.855  0.00  0.00    -0.283 OA
ATOM      4  C   UNL     1       8.909  -0.878  23.413  0.00  0.00    +0.109 A 
ATOM      5  C   UNL     1       8.349   0.297  23.911  0.00  0.00    +0.147 A 
ATOM      6  C   UNL     1       8.737   1.546  23.411  0.00  0.00    +0.092 A 
ATOM      7  C   UNL     1       9.691   1.609  22.403  0.00  0.00    +0.124 A 
ATOM      8  C   UNL     1      10.246   0.449  21.880  0.00  0.00    +0.091 A 
ATOM      9  O   UNL     1       7.419   0.306  24.910  0.00  0.00    -0.451 OA
ATOM     10  C   UNL     1       9.862  -0.794  22.386  0.00  0.00    +0.135 A 
ATOM     11  C   UNL     1       6.915  -0.890  25.412  0.00  0.00    +0.181 A 
ENDROOT
BRANCH  11  12
ATOM     12  C   UNL     1       5.876  -0.613  26.452  0.00  0.00    +0.025 A 
ATOM     13  C   UNL     1       6.241   0.052  27.645  0.00  0.00    +0.015 A 
ATOM     14  C   UNL     1       5.366   0.142  28.734  0.00  0.00    +0.050 A 
ATOM     15  C   UNL     1       4.111  -0.430  28.638  0.00  0.00    +0.158 A 
ATOM     16  C   UNL     1       3.701  -1.032  27.454  0.00  0.00    +0.159 A 
ATOM     17  C   UNL     1       4.571  -1.124  26.369  0.00  0.00    +0.060 A 
BRANCH  15  18
ATOM     18  O   UNL     1       3.279  -0.412  29.720  0.00  0.00    -0.503 OA
ATOM     19  H   UNL     1       3.121   0.540  29.890  0.00  0.00    +0.292 HD
ENDBRANCH  15  18
BRANCH  16  20
ATOM     20  O   UNL     1       2.432  -1.539  27.416  0.00  0.00    -0.503 OA
ATOM     21  H   UNL     1       1.906  -1.139  28.133  0.00  0.00    +0.292 HD
ENDBRANCH  16  20
ENDBRANCH  11  12
BRANCH   7  22
ATOM     22  O   UNL     1      10.118   2.796  21.887  0.00  0.00    -0.507 OA
ATOM     23  H   UNL     1      10.338   2.683  20.946  0.00  0.00    +0.292 HD
ENDBRANCH   7  22
BRANCH  10  24
ATOM     24  O   UNL     1      10.412  -1.919  21.840  0.00  0.00    -0.506 OA
ATOM     25  H   UNL     1      10.619  -2.563  22.535  0.00  0.00    +0.292 HD
ENDBRANCH  10  24
BRANCH   1  26
ATOM     26  O   UNL     1       6.811  -3.277  25.587  0.00  0.00    -0.453 OA
BRANCH  26  29
ATOM     27  C   UNL     1       4.663  -4.533  22.939  0.00  0.00    +0.198 C 
ATOM     28  O   UNL     1       5.152  -3.638  23.940  0.00  0.00    -0.337 OA
ATOM     29  C   UNL     1       6.207  -4.239  24.701  0.00  0.00    +0.340 C 
ATOM     30  C   UNL     1       5.602  -5.405  25.536  0.00  0.00    +0.221 C 
ATOM     31  C   UNL     1       4.890  -6.390  24.577  0.00  0.00    +0.180 C 
ATOM     32  C   UNL     1       3.942  -5.712  23.589  0.00  0.00    +0.171 C 
BRANCH  31  33
ATOM     33  O   UNL     1       4.187  -7.405  25.306  0.00  0.00    -0.386 OA
ATOM     34  H   UNL     1       3.319  -7.004  25.512  0.00  0.00    +0.210 HD
ENDBRANCH  31  33
BRANCH  32  35
ATOM     35  O   UNL     1       3.563  -6.699  22.616  0.00  0.00    -0.387 OA
ATOM     36  H   UNL     1       2.915  -6.294  22.015  0.00  0.00    +0.210 HD
ENDBRANCH  32  35
BRANCH  30  37
ATOM     37  O   UNL     1       6.542  -6.060  26.430  0.00  0.00    -0.337 OA
BRANCH  37  38
ATOM     38  C   UNL     1       6.207  -6.033  27.811  0.00  0.00    +0.282 C 
ATOM     39  O   UNL     1       5.584  -7.226  28.269  0.00  0.00    -0.346 OA
ATOM     40  C   UNL     1       4.610  -6.904  29.264  0.00  0.00    +0.202 C 
ATOM     41  C   UNL     1       4.675  -5.397  29.469  0.00  0.00    +0.142 C 
ATOM     42  C   UNL     1       5.200  -4.913  28.119  0.00  0.00    +0.206 C 
BRANCH  41  43
ATOM     43  O   UNL     1       5.659  -5.100  30.483  0.00  0.00    -0.381 OA
ATOM     44  H   UNL     1       6.521  -5.076  30.028  0.00  0.00    +0.210 HD
ENDBRANCH  41  43
BRANCH  42  45
ATOM     45  O   UNL     1       5.776  -3.607  28.211  0.00  0.00    -0.384 OA
ATOM     46  H   UNL     1       6.371  -3.460  27.458  0.00  0.00    +0.210 HD
ENDBRANCH  42  45
BRANCH  41  47
ATOM     47  C   UNL     1       3.322  -4.845  29.907  0.00  0.00    +0.195 C 
BRANCH  47  48
ATOM     48  O   UNL     1       3.301  -3.423  29.889  0.00  0.00    -0.392 OA
ATOM     49  H   UNL     1       4.227  -3.129  29.850  0.00  0.00    +0.210 HD
ENDBRANCH  47  48
ENDBRANCH  41  47
ENDBRANCH  37  38
ENDBRANCH  30  37
ENDBRANCH  26  29
ENDBRANCH   1  26
TORSDOF 15
ENDMDL
MODEL 9
REMARK VINA RESULT:      -6.5      1.982      4.177
REMARK  Name = 
REMARK  15 active torsions:
REMARK  status: ('A' for Active; 'I' for Inactive)
REMARK    1  A    between atoms: C_2  and  O_46
REMARK    2  A    between atoms: C_4  and  O_45
REMARK    3  A    between atoms: C_6  and  O_33
REMARK    4  A    between atoms: C_8  and  O_11
REMARK    5  A    between atoms: O_11  and  C_12
REMARK    6  A    between atoms: C_13  and  C_25
REMARK    7  A    between atoms: C_17  and  O_24
REMARK    8  A    between atoms: C_19  and  O_23
REMARK    9  A    between atoms: C_27  and  O_32
REMARK   10  A    between atoms: C_28  and  O_31
REMARK   11  A    between atoms: O_33  and  C_34
REMARK   12  A    between atoms: C_36  and  O_44
REMARK   13  A    between atoms: C_38  and  C_41
REMARK   14  A    between atoms: C_38  and  O_43
REMARK   15  A    between atoms: C_41  and  O_42
REMARK                            x       y       z     vdW  Elec       q    Type
REMARK                         _______ _______ _______ _____ _____    ______ ____
ROOT
ATOM      1  C   UNL     1       6.430  -1.020  24.458  0.00  0.00    +0.214 A 
ATOM      2  C   UNL     1       5.404  -2.127  24.541  0.00  0.00    +0.238 A 
ATOM      3  O   UNL     1       4.471  -2.087  25.334  0.00  0.00    -0.283 OA
ATOM      4  C   UNL     1       5.600  -3.325  23.699  0.00  0.00    +0.109 A 
ATOM      5  C   UNL     1       6.827  -3.456  23.051  0.00  0.00    +0.147 A 
ATOM      6  C   UNL     1       7.128  -4.604  22.307  0.00  0.00    +0.092 A 
ATOM      7  C   UNL     1       6.186  -5.621  22.216  0.00  0.00    +0.124 A 
ATOM      8  C   UNL     1       4.951  -5.501  22.838  0.00  0.00    +0.091 A 
ATOM      9  O   UNL     1       7.800  -2.501  23.112  0.00  0.00    -0.451 OA
ATOM     10  C   UNL     1       4.658  -4.358  23.584  0.00  0.00    +0.135 A 
ATOM     11  C   UNL     1       7.560  -1.294  23.761  0.00  0.00    +0.181 A 
ENDROOT
BRANCH  11  12
ATOM     12  C   UNL     1       8.754  -0.400  23.642  0.00  0.00    +0.025 A 
ATOM     13  C   UNL     1       9.624  -0.246  24.745  0.00  0.00    +0.015 A 
ATOM     14  C   UNL     1      10.624   0.734  24.762  0.00  0.00    +0.050 A 
ATOM     15  C   UNL     1      10.766   1.570  23.670  0.00  0.00    +0.158 A 
ATOM     16  C   UNL     1       9.968   1.398  22.545  0.00  0.00    +0.159 A 
ATOM     17  C   UNL     1       8.972   0.424  22.525  0.00  0.00    +0.060 A 
BRANCH  15  18
ATOM     18  O   UNL     1      11.687   2.575  23.708  0.00  0.00    -0.503 OA
ATOM     19  H   UNL     1      11.165   3.378  23.913  0.00  0.00    +0.292 HD
ENDBRANCH  15  18
BRANCH  16  20
ATOM     20  O   UNL     1      10.192   2.232  21.485  0.00  0.00    -0.503 OA
ATOM     21  H   UNL     1       9.346   2.411  21.035  0.00  0.00    +0.292 HD
ENDBRANCH  16  20
ENDBRANCH  11  12
BRANCH   7  22
ATOM     22  O   UNL     1       6.428  -6.767  21.518  0.00  0.00    -0.507 OA
ATOM     23  H   UNL     1       6.552  -7.506  22.139  0.00  0.00    +0.292 HD
ENDBRANCH   7  22
BRANCH  10  24
ATOM     24  O   UNL     1       3.428  -4.260  24.170  0.00  0.00    -0.506 OA
ATOM     25  H   UNL     1       2.794  -4.840  23.719  0.00  0.00    +0.292 HD
ENDBRANCH  10  24
BRANCH   1  26
ATOM     26  O   UNL     1       6.250   0.219  25.077  0.00  0.00    -0.453 OA
BRANCH  26  29
ATOM     27  C   UNL     1       5.576   3.100  22.967  0.00  0.00    +0.198 C 
ATOM     28  O   UNL     1       6.329   2.192  23.775  0.00  0.00    -0.337 OA
ATOM     29  C   UNL     1       5.473   1.232  24.408  0.00  0.00    +0.340 C 
ATOM     30  C   UNL     1       4.588   1.979  25.448  0.00  0.00    +0.221 C 
ATOM     31  C   UNL     1       3.820   3.114  24.728  0.00  0.00    +0.180 C 
ATOM     32  C   UNL     1       4.705   3.994  23.847  0.00  0.00    +0.171 C 
BRANCH  31  33
ATOM     33  O   UNL     1       3.104   3.929  25.665  0.00  0.00    -0.386 OA
ATOM     34  H   UNL     1       2.169   3.667  25.557  0.00  0.00    +0.210 HD
ENDBRANCH  31  33
BRANCH  32  35
ATOM     35  O   UNL     1       3.832   4.820  23.057  0.00  0.00    -0.387 OA
ATOM     36  H   UNL     1       4.383   5.345  22.452  0.00  0.00    +0.210 HD
ENDBRANCH  32  35
BRANCH  30  37
ATOM     37  O   UNL     1       3.724   1.117  26.236  0.00  0.00    -0.337 OA
BRANCH  37  38
ATOM     38  C   UNL     1       3.964   1.111  27.637  0.00  0.00    +0.282 C 
ATOM     39  O   UNL     1       3.780   2.379  28.252  0.00  0.00    -0.346 OA
ATOM     40  C   UNL     1       4.727   2.538  29.310  0.00  0.00    +0.202 C 
ATOM     41  C   UNL     1       5.525   1.244  29.383  0.00  0.00    +0.142 C 
ATOM     42  C   UNL     1       5.418   0.723  27.952  0.00  0.00    +0.206 C 
BRANCH  41  43
ATOM     43  O   UNL     1       4.849   0.322  30.265  0.00  0.00    -0.381 OA
ATOM     44  H   UNL     1       5.535  -0.047  30.852  0.00  0.00    +0.210 HD
ENDBRANCH  41  43
BRANCH  42  45
ATOM     45  O   UNL     1       5.686  -0.680  27.878  0.00  0.00    -0.384 OA
ATOM     46  H   UNL     1       5.078  -1.160  28.463  0.00  0.00    +0.210 HD
ENDBRANCH  42  45
BRANCH  41  47
ATOM     47  C   UNL     1       6.934   1.499  29.908  0.00  0.00    +0.195 C 
BRANCH  47  48
ATOM     48  O   UNL     1       7.927   1.108  28.968  0.00  0.00    -0.392 OA
ATOM     49  H   UNL     1       7.531   1.203  28.085  0.00  0.00    +0.210 HD
ENDBRANCH  47  48
ENDBRANCH  41  47
ENDBRANCH  37  38
ENDBRANCH  30  37
ENDBRANCH  26  29
ENDBRANCH   1  26
TORSDOF 15
ENDMDL
