MODEL 1
REMARK VINA RESULT:      -7.6      0.000      0.000
REMARK  Name = 
REMARK  18 active torsions:
REMARK  status: ('A' for Active; 'I' for Inactive)
REMARK    1  A    between atoms: C_1  and  C_2
REMARK    2  A    between atoms: C_3  and  O_50
REMARK    3  A    between atoms: C_5  and  O_49
REMARK    4  A    between atoms: C_6  and  O_48
REMARK    5  A    between atoms: C_8  and  O_11
REMARK    6  A    between atoms: O_11  and  C_12
REMARK    7  A    between atoms: C_13  and  O_47
REMARK    8  A    between atoms: C_15  and  O_46
REMARK    9  A    between atoms: C_17  and  C_44
REMARK   10  A    between atoms: C_19  and  O_21
REMARK   11  A    between atoms: O_21  and  C_22
REMARK   12  A    between atoms: C_23  and  C_35
REMARK   13  A    between atoms: C_27  and  O_34
REMARK   14  A    between atoms: C_29  and  O_33
REMARK   15  A    between atoms: C_37  and  O_43
REMARK   16  A    between atoms: C_38  and  O_41
REMARK   17  A    between atoms: O_41  and  C_42
REMARK   18  A    between atoms: C_44  and  O_45
REMARK                            x       y       z     vdW  Elec       q    Type
REMARK                         _______ _______ _______ _____ _____    ______ ____
ROOT
ATOM      1  C   UNL     1       5.717  -1.839  26.622  0.00  0.00    +0.221 C 
ATOM      2  C   UNL     1       7.080  -1.078  26.480  0.00  0.00    +0.340 C 
ATOM      3  O   UNL     1       7.266  -0.172  27.581  0.00  0.00    -0.331 OA
ATOM      4  C   UNL     1       6.299   0.905  27.580  0.00  0.00    +0.179 C 
ATOM      5  C   UNL     1       4.863   0.349  27.641  0.00  0.00    +0.177 C 
ATOM      6  C   UNL     1       4.623  -0.734  26.575  0.00  0.00    +0.180 C 
ENDROOT
BRANCH   6   7
ATOM      7  O   UNL     1       3.267  -1.200  26.711  0.00  0.00    -0.386 OA
ATOM      8  H   UNL     1       2.780  -0.928  25.913  0.00  0.00    +0.210 HD
ENDBRANCH   6   7
BRANCH   5   9
ATOM      9  O   UNL     1       3.896   1.394  27.457  0.00  0.00    -0.386 OA
ATOM     10  H   UNL     1       4.105   1.788  26.585  0.00  0.00    +0.210 HD
ENDBRANCH   5   9
BRANCH   4  11
ATOM     11  C   UNL     1       6.503   1.910  26.413  0.00  0.00    +0.190 C 
BRANCH  11  12
ATOM     12  O   UNL     1       7.854   2.362  26.338  0.00  0.00    -0.392 OA
ATOM     13  H   UNL     1       8.038   2.854  27.158  0.00  0.00    +0.210 HD
ENDBRANCH  11  12
ENDBRANCH   4  11
BRANCH   2  14
ATOM     14  O   UNL     1       8.222  -1.952  26.281  0.00  0.00    -0.453 OA
BRANCH  14  15
ATOM     15  C   UNL     1       8.193  -2.640  25.062  0.00  0.00    +0.214 A 
ATOM     16  C   UNL     1       7.695  -4.064  25.017  0.00  0.00    +0.238 A 
ATOM     17  O   UNL     1       7.746  -4.799  25.993  0.00  0.00    -0.283 OA
ATOM     18  C   UNL     1       7.130  -4.528  23.745  0.00  0.00    +0.109 A 
ATOM     19  C   UNL     1       7.615  -3.908  22.605  0.00  0.00    +0.147 A 
ATOM     20  C   UNL     1       7.208  -4.328  21.341  0.00  0.00    +0.092 A 
ATOM     21  C   UNL     1       6.283  -5.362  21.238  0.00  0.00    +0.124 A 
ATOM     22  C   UNL     1       5.756  -5.969  22.372  0.00  0.00    +0.091 A 
ATOM     23  O   UNL     1       8.524  -2.886  22.681  0.00  0.00    -0.451 OA
ATOM     24  C   UNL     1       6.176  -5.547  23.633  0.00  0.00    +0.135 A 
ATOM     25  C   UNL     1       8.621  -2.150  23.867  0.00  0.00    +0.181 A 
BRANCH  25  26
ATOM     26  C   UNL     1       9.285  -0.835  23.582  0.00  0.00    +0.025 A 
ATOM     27  C   UNL     1      10.114  -0.280  24.583  0.00  0.00    +0.015 A 
ATOM     28  C   UNL     1      10.584   1.038  24.514  0.00  0.00    +0.050 A 
ATOM     29  C   UNL     1      10.260   1.846  23.430  0.00  0.00    +0.161 A 
ATOM     30  C   UNL     1       9.523   1.282  22.385  0.00  0.00    +0.159 A 
ATOM     31  C   UNL     1       9.029  -0.038  22.462  0.00  0.00    +0.060 A 
BRANCH  29  32
ATOM     32  O   UNL     1      10.761   3.118  23.526  0.00  0.00    -0.491 OA
ATOM     33  C   UNL     1       9.857   4.146  23.913  0.00  0.00    +0.277 C 
ENDBRANCH  29  32
BRANCH  30  34
ATOM     34  O   UNL     1       9.279   1.999  21.246  0.00  0.00    -0.503 OA
ATOM     35  H   UNL     1       8.404   2.415  21.347  0.00  0.00    +0.292 HD
ENDBRANCH  30  34
ENDBRANCH  25  26
BRANCH  24  36
ATOM     36  O   UNL     1       5.625  -6.110  24.749  0.00  0.00    -0.506 OA
ATOM     37  H   UNL     1       6.165  -6.867  25.029  0.00  0.00    +0.292 HD
ENDBRANCH  24  36
BRANCH  21  38
ATOM     38  O   UNL     1       5.854  -5.813  20.025  0.00  0.00    -0.507 OA
ATOM     39  H   UNL     1       4.963  -5.470  19.849  0.00  0.00    +0.292 HD
ENDBRANCH  21  38
ENDBRANCH  14  15
ENDBRANCH   2  14
BRANCH   1  40
ATOM     40  O   UNL     1       5.658  -2.689  27.796  0.00  0.00    -0.337 OA
BRANCH  40  44
ATOM     41  C   UNL     1       2.550  -5.062  26.162  0.00  0.00    +0.041 C 
ATOM     42  C   UNL     1       2.761  -4.966  27.677  0.00  0.00    +0.149 C 
ATOM     43  O   UNL     1       3.573  -3.826  28.045  0.00  0.00    -0.343 OA
ATOM     44  C   UNL     1       4.943  -3.929  27.608  0.00  0.00    +0.282 C 
ATOM     45  C   UNL     1       5.612  -5.164  28.271  0.00  0.00    +0.201 C 
ATOM     46  C   UNL     1       4.821  -6.426  27.920  0.00  0.00    +0.179 C 
ATOM     47  C   UNL     1       3.335  -6.267  28.267  0.00  0.00    +0.174 C 
BRANCH  47  48
ATOM     48  O   UNL     1       3.209  -6.259  29.699  0.00  0.00    -0.387 OA
ATOM     49  H   UNL     1       3.441  -5.347  29.988  0.00  0.00    +0.210 HD
ENDBRANCH  47  48
BRANCH  46  50
ATOM     50  O   UNL     1       5.375  -7.541  28.633  0.00  0.00    -0.386 OA
ATOM     51  H   UNL     1       6.106  -7.867  28.074  0.00  0.00    +0.210 HD
ENDBRANCH  46  50
BRANCH  45  52
ATOM     52  O   UNL     1       5.673  -5.017  29.704  0.00  0.00    -0.384 OA
ATOM     53  H   UNL     1       6.518  -4.562  29.888  0.00  0.00    +0.210 HD
ENDBRANCH  45  52
ENDBRANCH  40  44
ENDBRANCH   1  40
TORSDOF 16
ENDMDL
MODEL 2
REMARK VINA RESULT:      -7.6      1.790      6.000
REMARK  Name = 
REMARK  18 active torsions:
REMARK  status: ('A' for Active; 'I' for Inactive)
REMARK    1  A    between atoms: C_1  and  C_2
REMARK    2  A    between atoms: C_3  and  O_50
REMARK    3  A    between atoms: C_5  and  O_49
REMARK    4  A    between atoms: C_6  and  O_48
REMARK    5  A    between atoms: C_8  and  O_11
REMARK    6  A    between atoms: O_11  and  C_12
REMARK    7  A    between atoms: C_13  and  O_47
REMARK    8  A    between atoms: C_15  and  O_46
REMARK    9  A    between atoms: C_17  and  C_44
REMARK   10  A    between atoms: C_19  and  O_21
REMARK   11  A    between atoms: O_21  and  C_22
REMARK   12  A    between atoms: C_23  and  C_35
REMARK   13  A    between atoms: C_27  and  O_34
REMARK   14  A    between atoms: C_29  and  O_33
REMARK   15  A    between atoms: C_37  and  O_43
REMARK   16  A    between atoms: C_38  and  O_41
REMARK   17  A    between atoms: O_41  and  C_42
REMARK   18  A    between atoms: C_44  and  O_45
REMARK                            x       y       z     vdW  Elec       q    Type
REMARK                         _______ _______ _______ _____ _____    ______ ____
ROOT
ATOM      1  C   UNL     1       5.665  -5.635  25.107  0.00  0.00    +0.221 C 
ATOM      2  C   UNL     1       6.618  -4.540  24.514  0.00  0.00    +0.340 C 
ATOM      3  O   UNL     1       5.891  -3.663  23.635  0.00  0.00    -0.331 OA
ATOM      4  C   UNL     1       5.410  -4.343  22.451  0.00  0.00    +0.179 C 
ATOM      5  C   UNL     1       4.496  -5.524  22.831  0.00  0.00    +0.177 C 
ATOM      6  C   UNL     1       5.150  -6.440  23.880  0.00  0.00    +0.180 C 
ENDROOT
BRANCH   6   7
ATOM      7  O   UNL     1       4.227  -7.503  24.180  0.00  0.00    -0.386 OA
ATOM      8  H   UNL     1       4.564  -7.975  24.962  0.00  0.00    +0.210 HD
ENDBRANCH   6   7
BRANCH   5   9
ATOM      9  O   UNL     1       4.162  -6.311  21.679  0.00  0.00    -0.386 OA
ATOM     10  H   UNL     1       3.795  -7.146  22.035  0.00  0.00    +0.210 HD
ENDBRANCH   5   9
BRANCH   4  11
ATOM     11  C   UNL     1       6.549  -4.757  21.479  0.00  0.00    +0.190 C 
BRANCH  11  12
ATOM     12  O   UNL     1       6.045  -5.069  20.181  0.00  0.00    -0.392 OA
ATOM     13  H   UNL     1       5.179  -4.633  20.096  0.00  0.00    +0.210 HD
ENDBRANCH  11  12
ENDBRANCH   4  11
BRANCH   2  14
ATOM     14  O   UNL     1       7.376  -3.815  25.518  0.00  0.00    -0.453 OA
BRANCH  14  15
ATOM     15  C   UNL     1       7.673  -2.498  25.151  0.00  0.00    +0.214 A 
ATOM     16  C   UNL     1       8.860  -2.217  24.262  0.00  0.00    +0.238 A 
ATOM     17  O   UNL     1       9.824  -2.968  24.213  0.00  0.00    -0.283 OA
ATOM     18  C   UNL     1       8.802  -1.001  23.444  0.00  0.00    +0.109 A 
ATOM     19  C   UNL     1       8.033   0.034  23.950  0.00  0.00    +0.147 A 
ATOM     20  C   UNL     1       7.975   1.262  23.296  0.00  0.00    +0.092 A 
ATOM     21  C   UNL     1       8.679   1.427  22.107  0.00  0.00    +0.124 A 
ATOM     22  C   UNL     1       9.424   0.387  21.564  0.00  0.00    +0.091 A 
ATOM     23  O   UNL     1       7.329  -0.105  25.117  0.00  0.00    -0.451 OA
ATOM     24  C   UNL     1       9.483  -0.836  22.231  0.00  0.00    +0.135 A 
ATOM     25  C   UNL     1       6.995  -1.391  25.560  0.00  0.00    +0.181 A 
BRANCH  25  26
ATOM     26  C   UNL     1       5.859  -1.300  26.536  0.00  0.00    +0.025 A 
ATOM     27  C   UNL     1       4.596  -1.785  26.129  0.00  0.00    +0.015 A 
ATOM     28  C   UNL     1       3.431  -1.534  26.865  0.00  0.00    +0.050 A 
ATOM     29  C   UNL     1       3.486  -0.805  28.047  0.00  0.00    +0.161 A 
ATOM     30  C   UNL     1       4.741  -0.401  28.514  0.00  0.00    +0.159 A 
ATOM     31  C   UNL     1       5.913  -0.633  27.764  0.00  0.00    +0.060 A 
BRANCH  29  32
ATOM     32  O   UNL     1       2.261  -0.610  28.629  0.00  0.00    -0.491 OA
ATOM     33  C   UNL     1       1.139  -1.227  28.008  0.00  0.00    +0.277 C 
ENDBRANCH  29  32
BRANCH  30  34
ATOM     34  O   UNL     1       4.860   0.215  29.728  0.00  0.00    -0.503 OA
ATOM     35  H   UNL     1       4.135   0.862  29.798  0.00  0.00    +0.292 HD
ENDBRANCH  30  34
ENDBRANCH  25  26
BRANCH  24  36
ATOM     36  O   UNL     1      10.175  -1.873  21.675  0.00  0.00    -0.506 OA
ATOM     37  H   UNL     1       9.550  -2.544  21.354  0.00  0.00    +0.292 HD
ENDBRANCH  24  36
BRANCH  21  38
ATOM     38  O   UNL     1       8.659   2.610  21.428  0.00  0.00    -0.507 OA
ATOM     39  H   UNL     1       9.514   2.745  20.989  0.00  0.00    +0.292 HD
ENDBRANCH  21  38
ENDBRANCH  14  15
ENDBRANCH   2  14
BRANCH   1  40
ATOM     40  O   UNL     1       4.614  -5.084  25.942  0.00  0.00    -0.337 OA
BRANCH  40  44
ATOM     41  C   UNL     1       2.499  -6.267  29.419  0.00  0.00    +0.041 C 
ATOM     42  C   UNL     1       3.709  -5.329  29.507  0.00  0.00    +0.149 C 
ATOM     43  O   UNL     1       4.030  -4.730  28.230  0.00  0.00    -0.343 OA
ATOM     44  C   UNL     1       4.517  -5.674  27.256  0.00  0.00    +0.282 C 
ATOM     45  C   UNL     1       5.832  -6.322  27.768  0.00  0.00    +0.201 C 
ATOM     46  C   UNL     1       5.579  -6.997  29.119  0.00  0.00    +0.179 C 
ATOM     47  C   UNL     1       4.940  -6.024  30.117  0.00  0.00    +0.174 C 
BRANCH  47  48
ATOM     48  O   UNL     1       5.928  -5.047  30.485  0.00  0.00    -0.387 OA
ATOM     49  H   UNL     1       6.348  -5.382  31.310  0.00  0.00    +0.210 HD
ENDBRANCH  47  48
BRANCH  46  50
ATOM     50  O   UNL     1       6.823  -7.488  29.639  0.00  0.00    -0.386 OA
ATOM     51  H   UNL     1       7.204  -8.034  28.925  0.00  0.00    +0.210 HD
ENDBRANCH  46  50
BRANCH  45  52
ATOM     52  O   UNL     1       6.877  -5.340  27.910  0.00  0.00    -0.384 OA
ATOM     53  H   UNL     1       6.621  -4.594  27.334  0.00  0.00    +0.210 HD
ENDBRANCH  45  52
ENDBRANCH  40  44
ENDBRANCH   1  40
TORSDOF 16
ENDMDL
MODEL 3
REMARK VINA RESULT:      -7.3      2.107      7.675
REMARK  Name = 
REMARK  18 active torsions:
REMARK  status: ('A' for Active; 'I' for Inactive)
REMARK    1  A    between atoms: C_1  and  C_2
REMARK    2  A    between atoms: C_3  and  O_50
REMARK    3  A    between atoms: C_5  and  O_49
REMARK    4  A    between atoms: C_6  and  O_48
REMARK    5  A    between atoms: C_8  and  O_11
REMARK    6  A    between atoms: O_11  and  C_12
REMARK    7  A    between atoms: C_13  and  O_47
REMARK    8  A    between atoms: C_15  and  O_46
REMARK    9  A    between atoms: C_17  and  C_44
REMARK   10  A    between atoms: C_19  and  O_21
REMARK   11  A    between atoms: O_21  and  C_22
REMARK   12  A    between atoms: C_23  and  C_35
REMARK   13  A    between atoms: C_27  and  O_34
REMARK   14  A    between atoms: C_29  and  O_33
REMARK   15  A    between atoms: C_37  and  O_43
REMARK   16  A    between atoms: C_38  and  O_41
REMARK   17  A    between atoms: O_41  and  C_42
REMARK   18  A    between atoms: C_44  and  O_45
REMARK                            x       y       z     vdW  Elec       q    Type
REMARK                         _______ _______ _______ _____ _____    ______ ____
ROOT
ATOM      1  C   UNL     1       7.684   0.301  23.327  0.00  0.00    +0.221 C 
ATOM      2  C   UNL     1       6.982  -0.942  23.975  0.00  0.00    +0.340 C 
ATOM      3  O   UNL     1       7.944  -1.759  24.666  0.00  0.00    -0.331 OA
ATOM      4  C   UNL     1       8.901  -2.367  23.766  0.00  0.00    +0.179 C 
ATOM      5  C   UNL     1       9.658  -1.290  22.965  0.00  0.00    +0.177 C 
ATOM      6  C   UNL     1       8.697  -0.286  22.304  0.00  0.00    +0.180 C 
ENDROOT
BRANCH   6   7
ATOM      7  O   UNL     1       9.487   0.682  21.589  0.00  0.00    -0.386 OA
ATOM      8  H   UNL     1      10.386   0.321  21.497  0.00  0.00    +0.210 HD
ENDBRANCH   6   7
BRANCH   5   9
ATOM      9  O   UNL     1      10.474  -1.883  21.944  0.00  0.00    -0.386 OA
ATOM     10  H   UNL     1      10.936  -2.626  22.384  0.00  0.00    +0.210 HD
ENDBRANCH   5   9
BRANCH   4  11
ATOM     11  C   UNL     1       8.275  -3.460  22.856  0.00  0.00    +0.190 C 
BRANCH  11  12
ATOM     12  O   UNL     1       8.284  -4.739  23.487  0.00  0.00    -0.392 OA
ATOM     13  H   UNL     1       9.177  -4.874  23.852  0.00  0.00    +0.210 HD
ENDBRANCH  11  12
ENDBRANCH   4  11
BRANCH   2  14
ATOM     14  O   UNL     1       5.841  -0.604  24.807  0.00  0.00    -0.453 OA
BRANCH  14  15
ATOM     15  C   UNL     1       5.421  -1.654  25.632  0.00  0.00    +0.214 A 
ATOM     16  C   UNL     1       5.002  -2.969  25.018  0.00  0.00    +0.238 A 
ATOM     17  O   UNL     1       4.573  -3.041  23.875  0.00  0.00    -0.283 OA
ATOM     18  C   UNL     1       5.146  -4.165  25.853  0.00  0.00    +0.109 A 
ATOM     19  C   UNL     1       5.066  -3.962  27.221  0.00  0.00    +0.147 A 
ATOM     20  C   UNL     1       5.107  -5.040  28.103  0.00  0.00    +0.092 A 
ATOM     21  C   UNL     1       5.259  -6.325  27.591  0.00  0.00    +0.124 A 
ATOM     22  C   UNL     1       5.381  -6.543  26.224  0.00  0.00    +0.091 A 
ATOM     23  O   UNL     1       4.919  -2.707  27.749  0.00  0.00    -0.451 OA
ATOM     24  C   UNL     1       5.331  -5.459  25.349  0.00  0.00    +0.135 A 
ATOM     25  C   UNL     1       5.310  -1.600  26.987  0.00  0.00    +0.181 A 
BRANCH  25  26
ATOM     26  C   UNL     1       5.518  -0.422  27.894  0.00  0.00    +0.025 A 
ATOM     27  C   UNL     1       4.552  -0.179  28.895  0.00  0.00    +0.015 A 
ATOM     28  C   UNL     1       4.527   1.014  29.630  0.00  0.00    +0.050 A 
ATOM     29  C   UNL     1       5.480   2.000  29.406  0.00  0.00    +0.161 A 
ATOM     30  C   UNL     1       6.500   1.735  28.488  0.00  0.00    +0.159 A 
ATOM     31  C   UNL     1       6.515   0.544  27.731  0.00  0.00    +0.060 A 
BRANCH  29  32
ATOM     32  O   UNL     1       5.299   3.122  30.173  0.00  0.00    -0.491 OA
ATOM     33  C   UNL     1       4.529   4.178  29.612  0.00  0.00    +0.277 C 
ENDBRANCH  29  32
BRANCH  30  34
ATOM     34  O   UNL     1       7.525   2.623  28.319  0.00  0.00    -0.503 OA
ATOM     35  H   UNL     1       8.190   2.435  29.007  0.00  0.00    +0.292 HD
ENDBRANCH  30  34
ENDBRANCH  25  26
BRANCH  24  36
ATOM     36  O   UNL     1       5.497  -5.667  24.010  0.00  0.00    -0.506 OA
ATOM     37  H   UNL     1       4.628  -5.688  23.576  0.00  0.00    +0.292 HD
ENDBRANCH  24  36
BRANCH  21  38
ATOM     38  O   UNL     1       5.302  -7.415  28.410  0.00  0.00    -0.507 OA
ATOM     39  H   UNL     1       4.401  -7.746  28.554  0.00  0.00    +0.292 HD
ENDBRANCH  21  38
ENDBRANCH  14  15
ENDBRANCH   2  14
BRANCH   1  40
ATOM     40  O   UNL     1       8.275   1.196  24.305  0.00  0.00    -0.337 OA
BRANCH  40  44
ATOM     41  C   UNL     1       5.436   4.299  24.824  0.00  0.00    +0.041 C 
ATOM     42  C   UNL     1       6.043   4.002  23.447  0.00  0.00    +0.149 C 
ATOM     43  O   UNL     1       6.654   2.691  23.391  0.00  0.00    -0.343 OA
ATOM     44  C   UNL     1       7.829   2.566  24.216  0.00  0.00    +0.282 C 
ATOM     45  C   UNL     1       8.916   3.565  23.732  0.00  0.00    +0.201 C 
ATOM     46  C   UNL     1       8.356   4.989  23.774  0.00  0.00    +0.179 C 
ATOM     47  C   UNL     1       7.035   5.092  23.003  0.00  0.00    +0.174 C 
BRANCH  47  48
ATOM     48  O   UNL     1       7.323   4.956  21.601  0.00  0.00    -0.387 OA
ATOM     49  H   UNL     1       6.467   4.739  21.166  0.00  0.00    +0.210 HD
ENDBRANCH  47  48
BRANCH  46  50
ATOM     50  O   UNL     1       9.323   5.890  23.213  0.00  0.00    -0.386 OA
ATOM     51  H   UNL     1       9.978   6.038  23.922  0.00  0.00    +0.210 HD
ENDBRANCH  46  50
BRANCH  45  52
ATOM     52  O   UNL     1       9.348   3.257  22.393  0.00  0.00    -0.384 OA
ATOM     53  H   UNL     1       9.776   2.381  22.447  0.00  0.00    +0.210 HD
ENDBRANCH  45  52
ENDBRANCH  40  44
ENDBRANCH   1  40
TORSDOF 16
ENDMDL
MODEL 4
REMARK VINA RESULT:      -7.2      2.381      7.202
REMARK  Name = 
REMARK  18 active torsions:
REMARK  status: ('A' for Active; 'I' for Inactive)
REMARK    1  A    between atoms: C_1  and  C_2
REMARK    2  A    between atoms: C_3  and  O_50
REMARK    3  A    between atoms: C_5  and  O_49
REMARK    4  A    between atoms: C_6  and  O_48
REMARK    5  A    between atoms: C_8  and  O_11
REMARK    6  A    between atoms: O_11  and  C_12
REMARK    7  A    between atoms: C_13  and  O_47
REMARK    8  A    between atoms: C_15  and  O_46
REMARK    9  A    between atoms: C_17  and  C_44
REMARK   10  A    between atoms: C_19  and  O_21
REMARK   11  A    between atoms: O_21  and  C_22
REMARK   12  A    between atoms: C_23  and  C_35
REMARK   13  A    between atoms: C_27  and  O_34
REMARK   14  A    between atoms: C_29  and  O_33
REMARK   15  A    between atoms: C_37  and  O_43
REMARK   16  A    between atoms: C_38  and  O_41
REMARK   17  A    between atoms: O_41  and  C_42
REMARK   18  A    between atoms: C_44  and  O_45
REMARK                            x       y       z     vdW  Elec       q    Type
REMARK                         _______ _______ _______ _____ _____    ______ ____
ROOT
ATOM      1  C   UNL     1       8.889  -0.994  24.913  0.00  0.00    +0.221 C 
ATOM      2  C   UNL     1       8.812   0.554  24.682  0.00  0.00    +0.340 C 
ATOM      3  O   UNL     1       8.093   0.846  23.470  0.00  0.00    -0.331 OA
ATOM      4  C   UNL     1       8.789   0.382  22.289  0.00  0.00    +0.179 C 
ATOM      5  C   UNL     1       9.033  -1.138  22.360  0.00  0.00    +0.177 C 
ATOM      6  C   UNL     1       9.677  -1.553  23.694  0.00  0.00    +0.180 C 
ENDROOT
BRANCH   6   7
ATOM      7  O   UNL     1       9.859  -2.981  23.675  0.00  0.00    -0.386 OA
ATOM      8  H   UNL     1       9.045  -3.387  24.022  0.00  0.00    +0.210 HD
ENDBRANCH   6   7
BRANCH   5   9
ATOM      9  O   UNL     1       9.878  -1.577  21.286  0.00  0.00    -0.386 OA
ATOM     10  H   UNL     1       9.284  -1.671  20.514  0.00  0.00    +0.210 HD
ENDBRANCH   5   9
BRANCH   4  11
ATOM     11  C   UNL     1      10.087   1.183  21.990  0.00  0.00    +0.190 C 
BRANCH  11  12
ATOM     12  O   UNL     1       9.816   2.569  21.791  0.00  0.00    -0.392 OA
ATOM     13  H   UNL     1      10.660   3.044  21.889  0.00  0.00    +0.210 HD
ENDBRANCH  11  12
ENDBRANCH   4  11
BRANCH   2  14
ATOM     14  O   UNL     1       8.301   1.293  25.822  0.00  0.00    -0.453 OA
BRANCH  14  15
ATOM     15  C   UNL     1       7.397   2.303  25.474  0.00  0.00    +0.214 A 
ATOM     16  C   UNL     1       7.906   3.591  24.872  0.00  0.00    +0.238 A 
ATOM     17  O   UNL     1       9.040   3.999  25.082  0.00  0.00    -0.283 OA
ATOM     18  C   UNL     1       6.980   4.330  24.008  0.00  0.00    +0.109 A 
ATOM     19  C   UNL     1       5.632   4.155  24.275  0.00  0.00    +0.147 A 
ATOM     20  C   UNL     1       4.669   4.873  23.570  0.00  0.00    +0.092 A 
ATOM     21  C   UNL     1       5.079   5.749  22.569  0.00  0.00    +0.124 A 
ATOM     22  C   UNL     1       6.425   5.907  22.261  0.00  0.00    +0.091 A 
ATOM     23  O   UNL     1       5.204   3.296  25.252  0.00  0.00    -0.451 OA
ATOM     24  C   UNL     1       7.382   5.190  22.979  0.00  0.00    +0.135 A 
ATOM     25  C   UNL     1       6.050   2.259  25.664  0.00  0.00    +0.181 A 
BRANCH  25  26
ATOM     26  C   UNL     1       5.238   1.197  26.346  0.00  0.00    +0.025 A 
ATOM     27  C   UNL     1       4.810   1.439  27.670  0.00  0.00    +0.015 A 
ATOM     28  C   UNL     1       4.258   0.430  28.470  0.00  0.00    +0.050 A 
ATOM     29  C   UNL     1       4.093  -0.856  27.968  0.00  0.00    +0.161 A 
ATOM     30  C   UNL     1       4.421  -1.088  26.629  0.00  0.00    +0.159 A 
ATOM     31  C   UNL     1       4.998  -0.079  25.828  0.00  0.00    +0.060 A 
BRANCH  29  32
ATOM     32  O   UNL     1       3.579  -1.739  28.881  0.00  0.00    -0.491 OA
ATOM     33  C   UNL     1       3.704  -1.400  30.257  0.00  0.00    +0.277 C 
ENDBRANCH  29  32
BRANCH  30  34
ATOM     34  O   UNL     1       4.168  -2.303  26.056  0.00  0.00    -0.503 OA
ATOM     35  H   UNL     1       4.931  -2.522  25.490  0.00  0.00    +0.292 HD
ENDBRANCH  30  34
ENDBRANCH  25  26
BRANCH  24  36
ATOM     36  O   UNL     1       8.701   5.310  22.646  0.00  0.00    -0.506 OA
ATOM     37  H   UNL     1       9.163   5.816  23.334  0.00  0.00    +0.292 HD
ENDBRANCH  24  36
BRANCH  21  38
ATOM     38  O   UNL     1       4.177   6.478  21.851  0.00  0.00    -0.507 OA
ATOM     39  H   UNL     1       4.513   6.609  20.950  0.00  0.00    +0.292 HD
ENDBRANCH  21  38
ENDBRANCH  14  15
ENDBRANCH   2  14
BRANCH   1  40
ATOM     40  O   UNL     1       7.589  -1.606  25.114  0.00  0.00    -0.337 OA
BRANCH  40  44
ATOM     41  C   UNL     1       7.540  -5.338  23.106  0.00  0.00    +0.041 C 
ATOM     42  C   UNL     1       6.472  -4.984  24.148  0.00  0.00    +0.149 C 
ATOM     43  O   UNL     1       6.415  -3.562  24.410  0.00  0.00    -0.343 OA
ATOM     44  C   UNL     1       7.588  -3.049  25.071  0.00  0.00    +0.282 C 
ATOM     45  C   UNL     1       7.751  -3.734  26.455  0.00  0.00    +0.201 C 
ATOM     46  C   UNL     1       7.835  -5.251  26.270  0.00  0.00    +0.179 C 
ATOM     47  C   UNL     1       6.650  -5.780  25.454  0.00  0.00    +0.174 C 
BRANCH  47  48
ATOM     48  O   UNL     1       5.466  -5.673  26.263  0.00  0.00    -0.387 OA
ATOM     49  H   UNL     1       4.725  -6.005  25.707  0.00  0.00    +0.210 HD
ENDBRANCH  47  48
BRANCH  46  50
ATOM     50  O   UNL     1       7.864  -5.880  27.559  0.00  0.00    -0.386 OA
ATOM     51  H   UNL     1       6.939  -5.871  27.872  0.00  0.00    +0.210 HD
ENDBRANCH  46  50
BRANCH  45  52
ATOM     52  O   UNL     1       6.647  -3.416  27.326  0.00  0.00    -0.384 OA
ATOM     53  H   UNL     1       6.797  -2.497  27.620  0.00  0.00    +0.210 HD
ENDBRANCH  45  52
ENDBRANCH  40  44
ENDBRANCH   1  40
TORSDOF 16
ENDMDL
MODEL 5
REMARK VINA RESULT:      -7.2      1.921      5.745
REMARK  Name = 
REMARK  18 active torsions:
REMARK  status: ('A' for Active; 'I' for Inactive)
REMARK    1  A    between atoms: C_1  and  C_2
REMARK    2  A    between atoms: C_3  and  O_50
REMARK    3  A    between atoms: C_5  and  O_49
REMARK    4  A    between atoms: C_6  and  O_48
REMARK    5  A    between atoms: C_8  and  O_11
REMARK    6  A    between atoms: O_11  and  C_12
REMARK    7  A    between atoms: C_13  and  O_47
REMARK    8  A    between atoms: C_15  and  O_46
REMARK    9  A    between atoms: C_17  and  C_44
REMARK   10  A    between atoms: C_19  and  O_21
REMARK   11  A    between atoms: O_21  and  C_22
REMARK   12  A    between atoms: C_23  and  C_35
REMARK   13  A    between atoms: C_27  and  O_34
REMARK   14  A    between atoms: C_29  and  O_33
REMARK   15  A    between atoms: C_37  and  O_43
REMARK   16  A    between atoms: C_38  and  O_41
REMARK   17  A    between atoms: O_41  and  C_42
REMARK   18  A    between atoms: C_44  and  O_45
REMARK                            x       y       z     vdW  Elec       q    Type
REMARK                         _______ _______ _______ _____ _____    ______ ____
ROOT
ATOM      1  C   UNL     1       5.254  -0.783  26.231  0.00  0.00    +0.221 C 
ATOM      2  C   UNL     1       5.720   0.528  25.508  0.00  0.00    +0.340 C 
ATOM      3  O   UNL     1       6.895   1.061  26.143  0.00  0.00    -0.331 OA
ATOM      4  C   UNL     1       6.636   1.516  27.493  0.00  0.00    +0.179 C 
ATOM      5  C   UNL     1       6.089   0.366  28.361  0.00  0.00    +0.177 C 
ATOM      6  C   UNL     1       4.908  -0.351  27.684  0.00  0.00    +0.180 C 
ENDROOT
BRANCH   6   7
ATOM      7  O   UNL     1       4.470  -1.409  28.557  0.00  0.00    -0.386 OA
ATOM      8  H   UNL     1       5.109  -1.473  29.287  0.00  0.00    +0.210 HD
ENDBRANCH   6   7
BRANCH   5   9
ATOM      9  O   UNL     1       5.659   0.846  29.644  0.00  0.00    -0.386 OA
ATOM     10  H   UNL     1       5.475   1.798  29.513  0.00  0.00    +0.210 HD
ENDBRANCH   5   9
BRANCH   4  11
ATOM     11  C   UNL     1       5.743   2.786  27.550  0.00  0.00    +0.190 C 
BRANCH  11  12
ATOM     12  O   UNL     1       6.211   3.798  26.661  0.00  0.00    -0.392 OA
ATOM     13  H   UNL     1       7.124   3.566  26.416  0.00  0.00    +0.210 HD
ENDBRANCH  11  12
ENDBRANCH   4  11
BRANCH   2  14
ATOM     14  O   UNL     1       5.882   0.382  24.073  0.00  0.00    -0.453 OA
BRANCH  14  15
ATOM     15  C   UNL     1       7.076   0.927  23.588  0.00  0.00    +0.214 A 
ATOM     16  C   UNL     1       7.194   2.419  23.391  0.00  0.00    +0.238 A 
ATOM     17  O   UNL     1       6.216   3.125  23.188  0.00  0.00    -0.283 OA
ATOM     18  C   UNL     1       8.542   2.993  23.467  0.00  0.00    +0.109 A 
ATOM     19  C   UNL     1       9.581   2.146  23.119  0.00  0.00    +0.147 A 
ATOM     20  C   UNL     1      10.893   2.612  23.076  0.00  0.00    +0.092 A 
ATOM     21  C   UNL     1      11.150   3.936  23.419  0.00  0.00    +0.124 A 
ATOM     22  C   UNL     1      10.124   4.789  23.809  0.00  0.00    +0.091 A 
ATOM     23  O   UNL     1       9.353   0.838  22.781  0.00  0.00    -0.451 OA
ATOM     24  C   UNL     1       8.813   4.315  23.840  0.00  0.00    +0.135 A 
ATOM     25  C   UNL     1       8.178   0.218  23.222  0.00  0.00    +0.181 A 
BRANCH  25  26
ATOM     26  C   UNL     1       8.354  -1.272  23.168  0.00  0.00    +0.025 A 
ATOM     27  C   UNL     1       7.553  -2.000  22.260  0.00  0.00    +0.015 A 
ATOM     28  C   UNL     1       7.469  -3.398  22.299  0.00  0.00    +0.050 A 
ATOM     29  C   UNL     1       8.199  -4.123  23.233  0.00  0.00    +0.161 A 
ATOM     30  C   UNL     1       9.069  -3.425  24.075  0.00  0.00    +0.159 A 
ATOM     31  C   UNL     1       9.140  -2.016  24.054  0.00  0.00    +0.060 A 
BRANCH  29  32
ATOM     32  O   UNL     1       7.980  -5.475  23.170  0.00  0.00    -0.491 OA
ATOM     33  C   UNL     1       7.179  -5.956  22.098  0.00  0.00    +0.277 C 
ENDBRANCH  29  32
BRANCH  30  34
ATOM     34  O   UNL     1       9.894  -4.101  24.931  0.00  0.00    -0.503 OA
ATOM     35  H   UNL     1       9.642  -3.848  25.837  0.00  0.00    +0.292 HD
ENDBRANCH  30  34
ENDBRANCH  25  26
BRANCH  24  36
ATOM     36  O   UNL     1       7.811   5.138  24.268  0.00  0.00    -0.506 OA
ATOM     37  H   UNL     1       7.059   4.602  24.568  0.00  0.00    +0.292 HD
ENDBRANCH  24  36
BRANCH  21  38
ATOM     38  O   UNL     1      12.416   4.443  23.390  0.00  0.00    -0.507 OA
ATOM     39  H   UNL     1      12.668   4.630  22.472  0.00  0.00    +0.292 HD
ENDBRANCH  21  38
ENDBRANCH  14  15
ENDBRANCH   2  14
BRANCH   1  40
ATOM     40  O   UNL     1       6.224  -1.858  26.142  0.00  0.00    -0.337 OA
BRANCH  40  44
ATOM     41  C   UNL     1       4.142  -4.351  23.421  0.00  0.00    +0.041 C 
ATOM     42  C   UNL     1       3.699  -4.231  24.884  0.00  0.00    +0.149 C 
ATOM     43  O   UNL     1       4.256  -3.061  25.528  0.00  0.00    -0.343 OA
ATOM     44  C   UNL     1       5.685  -3.123  25.704  0.00  0.00    +0.282 C 
ATOM     45  C   UNL     1       6.048  -4.327  26.615  0.00  0.00    +0.201 C 
ATOM     46  C   UNL     1       5.506  -5.619  25.998  0.00  0.00    +0.179 C 
ATOM     47  C   UNL     1       4.008  -5.505  25.691  0.00  0.00    +0.174 C 
BRANCH  47  48
ATOM     48  O   UNL     1       3.297  -5.485  26.939  0.00  0.00    -0.387 OA
ATOM     49  H   UNL     1       2.549  -6.117  26.837  0.00  0.00    +0.210 HD
ENDBRANCH  47  48
BRANCH  46  50
ATOM     50  O   UNL     1       5.741  -6.706  26.903  0.00  0.00    -0.386 OA
ATOM     51  H   UNL     1       6.628  -6.543  27.278  0.00  0.00    +0.210 HD
ENDBRANCH  46  50
BRANCH  45  52
ATOM     52  O   UNL     1       5.502  -4.162  27.939  0.00  0.00    -0.384 OA
ATOM     53  H   UNL     1       4.918  -4.931  28.083  0.00  0.00    +0.210 HD
ENDBRANCH  45  52
ENDBRANCH  40  44
ENDBRANCH   1  40
TORSDOF 16
ENDMDL
MODEL 6
REMARK VINA RESULT:      -7.2      2.409      6.508
REMARK  Name = 
REMARK  18 active torsions:
REMARK  status: ('A' for Active; 'I' for Inactive)
REMARK    1  A    between atoms: C_1  and  C_2
REMARK    2  A    between atoms: C_3  and  O_50
REMARK    3  A    between atoms: C_5  and  O_49
REMARK    4  A    between atoms: C_6  and  O_48
REMARK    5  A    between atoms: C_8  and  O_11
REMARK    6  A    between atoms: O_11  and  C_12
REMARK    7  A    between atoms: C_13  and  O_47
REMARK    8  A    between atoms: C_15  and  O_46
REMARK    9  A    between atoms: C_17  and  C_44
REMARK   10  A    between atoms: C_19  and  O_21
REMARK   11  A    between atoms: O_21  and  C_22
REMARK   12  A    between atoms: C_23  and  C_35
REMARK   13  A    between atoms: C_27  and  O_34
REMARK   14  A    between atoms: C_29  and  O_33
REMARK   15  A    between atoms: C_37  and  O_43
REMARK   16  A    between atoms: C_38  and  O_41
REMARK   17  A    between atoms: O_41  and  C_42
REMARK   18  A    between atoms: C_44  and  O_45
REMARK                            x       y       z     vdW  Elec       q    Type
REMARK                         _______ _______ _______ _____ _____    ______ ____
ROOT
ATOM      1  C   UNL     1       6.021   0.012  26.345  0.00  0.00    +0.221 C 
ATOM      2  C   UNL     1       4.704  -0.834  26.430  0.00  0.00    +0.340 C 
ATOM      3  O   UNL     1       3.589   0.006  26.780  0.00  0.00    -0.331 OA
ATOM      4  C   UNL     1       3.706   0.551  28.116  0.00  0.00    +0.179 C 
ATOM      5  C   UNL     1       5.003   1.371  28.260  0.00  0.00    +0.177 C 
ATOM      6  C   UNL     1       6.234   0.588  27.774  0.00  0.00    +0.180 C 
ENDROOT
BRANCH   6   7
ATOM      7  O   UNL     1       7.390   1.429  27.936  0.00  0.00    -0.386 OA
ATOM      8  H   UNL     1       7.146   2.155  28.537  0.00  0.00    +0.210 HD
ENDBRANCH   6   7
BRANCH   5   9
ATOM      9  O   UNL     1       5.218   1.761  29.625  0.00  0.00    -0.386 OA
ATOM     10  H   UNL     1       5.918   2.445  29.590  0.00  0.00    +0.210 HD
ENDBRANCH   5   9
BRANCH   4  11
ATOM     11  C   UNL     1       3.549  -0.521  29.229  0.00  0.00    +0.190 C 
BRANCH  11  12
ATOM     12  O   UNL     1       2.377  -1.312  29.037  0.00  0.00    -0.392 OA
ATOM     13  H   UNL     1       1.733  -1.039  29.714  0.00  0.00    +0.210 HD
ENDBRANCH  11  12
ENDBRANCH   4  11
BRANCH   2  14
ATOM     14  O   UNL     1       4.444  -1.637  25.249  0.00  0.00    -0.453 OA
BRANCH  14  15
ATOM     15  C   UNL     1       4.398  -3.012  25.508  0.00  0.00    +0.214 A 
ATOM     16  C   UNL     1       3.119  -3.637  26.012  0.00  0.00    +0.238 A 
ATOM     17  O   UNL     1       2.284  -2.993  26.632  0.00  0.00    -0.283 OA
ATOM     18  C   UNL     1       2.914  -5.058  25.713  0.00  0.00    +0.109 A 
ATOM     19  C   UNL     1       4.062  -5.816  25.558  0.00  0.00    +0.147 A 
ATOM     20  C   UNL     1       3.983  -7.192  25.353  0.00  0.00    +0.092 A 
ATOM     21  C   UNL     1       2.730  -7.791  25.277  0.00  0.00    +0.124 A 
ATOM     22  C   UNL     1       1.566  -7.040  25.391  0.00  0.00    +0.091 A 
ATOM     23  O   UNL     1       5.307  -5.248  25.626  0.00  0.00    -0.451 OA
ATOM     24  C   UNL     1       1.656  -5.665  25.604  0.00  0.00    +0.135 A 
ATOM     25  C   UNL     1       5.441  -3.876  25.384  0.00  0.00    +0.181 A 
BRANCH  25  26
ATOM     26  C   UNL     1       6.869  -3.571  25.036  0.00  0.00    +0.025 A 
ATOM     27  C   UNL     1       7.127  -2.433  24.238  0.00  0.00    +0.015 A 
ATOM     28  C   UNL     1       8.384  -2.197  23.665  0.00  0.00    +0.050 A 
ATOM     29  C   UNL     1       9.436  -3.078  23.885  0.00  0.00    +0.161 A 
ATOM     30  C   UNL     1       9.224  -4.155  24.750  0.00  0.00    +0.159 A 
ATOM     31  C   UNL     1       7.954  -4.409  25.311  0.00  0.00    +0.060 A 
BRANCH  29  32
ATOM     32  O   UNL     1      10.587  -2.732  23.226  0.00  0.00    -0.491 OA
ATOM     33  C   UNL     1      10.538  -1.582  22.390  0.00  0.00    +0.277 C 
ENDBRANCH  29  32
BRANCH  30  34
ATOM     34  O   UNL     1      10.258  -4.982  25.090  0.00  0.00    -0.503 OA
ATOM     35  H   UNL     1      10.187  -5.780  24.535  0.00  0.00    +0.292 HD
ENDBRANCH  30  34
ENDBRANCH  25  26
BRANCH  24  36
ATOM     36  O   UNL     1       0.515  -4.918  25.669  0.00  0.00    -0.506 OA
ATOM     37  H   UNL     1       0.740  -3.977  25.588  0.00  0.00    +0.292 HD
ENDBRANCH  24  36
BRANCH  21  38
ATOM     38  O   UNL     1       2.597  -9.135  25.082  0.00  0.00    -0.507 OA
ATOM     39  H   UNL     1       3.437  -9.575  25.287  0.00  0.00    +0.292 HD
ENDBRANCH  21  38
ENDBRANCH  14  15
ENDBRANCH   2  14
BRANCH   1  40
ATOM     40  O   UNL     1       5.988   1.014  25.296  0.00  0.00    -0.337 OA
BRANCH  40  44
ATOM     41  C   UNL     1      10.202   0.919  24.859  0.00  0.00    +0.041 C 
ATOM     42  C   UNL     1       9.394   2.167  24.485  0.00  0.00    +0.149 C 
ATOM     43  O   UNL     1       8.071   2.158  25.072  0.00  0.00    -0.343 OA
ATOM     44  C   UNL     1       7.210   1.134  24.537  0.00  0.00    +0.282 C 
ATOM     45  C   UNL     1       7.002   1.367  23.016  0.00  0.00    +0.201 C 
ATOM     46  C   UNL     1       8.360   1.377  22.308  0.00  0.00    +0.179 C 
ATOM     47  C   UNL     1       9.321   2.377  22.961  0.00  0.00    +0.174 C 
BRANCH  47  48
ATOM     48  O   UNL     1       8.854   3.704  22.666  0.00  0.00    -0.387 OA
ATOM     49  H   UNL     1       8.980   3.828  21.698  0.00  0.00    +0.210 HD
ENDBRANCH  47  48
BRANCH  46  50
ATOM     50  O   UNL     1       8.166   1.711  20.927  0.00  0.00    -0.386 OA
ATOM     51  H   UNL     1       9.006   2.118  20.640  0.00  0.00    +0.210 HD
ENDBRANCH  46  50
BRANCH  45  52
ATOM     52  O   UNL     1       6.321   2.612  22.767  0.00  0.00    -0.384 OA
ATOM     53  H   UNL     1       5.770   2.776  23.557  0.00  0.00    +0.210 HD
ENDBRANCH  45  52
ENDBRANCH  40  44
ENDBRANCH   1  40
TORSDOF 16
ENDMDL
MODEL 7
REMARK VINA RESULT:      -7.0      2.504      6.280
REMARK  Name = 
REMARK  18 active torsions:
REMARK  status: ('A' for Active; 'I' for Inactive)
REMARK    1  A    between atoms: C_1  and  C_2
REMARK    2  A    between atoms: C_3  and  O_50
REMARK    3  A    between atoms: C_5  and  O_49
REMARK    4  A    between atoms: C_6  and  O_48
REMARK    5  A    between atoms: C_8  and  O_11
REMARK    6  A    between atoms: O_11  and  C_12
REMARK    7  A    between atoms: C_13  and  O_47
REMARK    8  A    between atoms: C_15  and  O_46
REMARK    9  A    between atoms: C_17  and  C_44
REMARK   10  A    between atoms: C_19  and  O_21
REMARK   11  A    between atoms: O_21  and  C_22
REMARK   12  A    between atoms: C_23  and  C_35
REMARK   13  A    between atoms: C_27  and  O_34
REMARK   14  A    between atoms: C_29  and  O_33
REMARK   15  A    between atoms: C_37  and  O_43
REMARK   16  A    between atoms: C_38  and  O_41
REMARK   17  A    between atoms: O_41  and  C_42
REMARK   18  A    between atoms: C_44  and  O_45
REMARK                            x       y       z     vdW  Elec       q    Type
REMARK                         _______ _______ _______ _____ _____    ______ ____
ROOT
ATOM      1  C   UNL     1       6.354   2.045  26.446  0.00  0.00    +0.221 C 
ATOM      2  C   UNL     1       5.590   0.690  26.254  0.00  0.00    +0.340 C 
ATOM      3  O   UNL     1       4.349   0.705  26.981  0.00  0.00    -0.331 OA
ATOM      4  C   UNL     1       4.550   0.758  28.414  0.00  0.00    +0.179 C 
ATOM      5  C   UNL     1       5.363   2.007  28.806  0.00  0.00    +0.177 C 
ATOM      6  C   UNL     1       6.648   2.139  27.970  0.00  0.00    +0.180 C 
ENDROOT
BRANCH   6   7
ATOM      7  O   UNL     1       7.336   3.330  28.396  0.00  0.00    -0.386 OA
ATOM      8  H   UNL     1       6.786   3.763  29.072  0.00  0.00    +0.210 HD
ENDBRANCH   6   7
BRANCH   5   9
ATOM      9  O   UNL     1       5.723   1.974  30.196  0.00  0.00    -0.386 OA
ATOM     10  H   UNL     1       4.958   1.564  30.650  0.00  0.00    +0.210 HD
ENDBRANCH   5   9
BRANCH   4  11
ATOM     11  C   UNL     1       5.146  -0.553  28.997  0.00  0.00    +0.190 C 
BRANCH  11  12
ATOM     12  O   UNL     1       4.337  -1.684  28.684  0.00  0.00    -0.392 OA
ATOM     13  H   UNL     1       3.408  -1.393  28.723  0.00  0.00    +0.210 HD
ENDBRANCH  11  12
ENDBRANCH   4  11
BRANCH   2  14
ATOM     14  O   UNL     1       5.414   0.307  24.864  0.00  0.00    -0.453 OA
BRANCH  14  15
ATOM     15  C   UNL     1       5.878  -0.982  24.578  0.00  0.00    +0.214 A 
ATOM     16  C   UNL     1       5.000  -2.177  24.865  0.00  0.00    +0.238 A 
ATOM     17  O   UNL     1       4.131  -2.149  25.725  0.00  0.00    -0.283 OA
ATOM     18  C   UNL     1       5.228  -3.377  24.053  0.00  0.00    +0.109 A 
ATOM     19  C   UNL     1       6.513  -3.541  23.563  0.00  0.00    +0.147 A 
ATOM     20  C   UNL     1       6.861  -4.686  22.850  0.00  0.00    +0.092 A 
ATOM     21  C   UNL     1       5.888  -5.653  22.611  0.00  0.00    +0.124 A 
ATOM     22  C   UNL     1       4.584  -5.486  23.062  0.00  0.00    +0.091 A 
ATOM     23  O   UNL     1       7.486  -2.603  23.783  0.00  0.00    -0.451 OA
ATOM     24  C   UNL     1       4.249  -4.340  23.782  0.00  0.00    +0.135 A 
ATOM     25  C   UNL     1       7.107  -1.288  24.081  0.00  0.00    +0.181 A 
BRANCH  25  26
ATOM     26  C   UNL     1       8.259  -0.366  23.806  0.00  0.00    +0.025 A 
ATOM     27  C   UNL     1       9.117  -0.041  24.881  0.00  0.00    +0.015 A 
ATOM     28  C   UNL     1      10.068   0.985  24.788  0.00  0.00    +0.050 A 
ATOM     29  C   UNL     1      10.211   1.710  23.612  0.00  0.00    +0.161 A 
ATOM     30  C   UNL     1       9.437   1.337  22.509  0.00  0.00    +0.159 A 
ATOM     31  C   UNL     1       8.463   0.320  22.605  0.00  0.00    +0.060 A 
BRANCH  29  32
ATOM     32  O   UNL     1      11.152   2.703  23.692  0.00  0.00    -0.491 OA
ATOM     33  C   UNL     1      10.684   4.046  23.704  0.00  0.00    +0.277 C 
ENDBRANCH  29  32
BRANCH  30  34
ATOM     34  O   UNL     1       9.624   1.942  21.297  0.00  0.00    -0.503 OA
ATOM     35  H   UNL     1      10.526   1.722  20.999  0.00  0.00    +0.292 HD
ENDBRANCH  30  34
ENDBRANCH  25  26
BRANCH  24  36
ATOM     36  O   UNL     1       2.958  -4.153  24.184  0.00  0.00    -0.506 OA
ATOM     37  H   UNL     1       2.897  -4.282  25.145  0.00  0.00    +0.292 HD
ENDBRANCH  24  36
BRANCH  21  38
ATOM     38  O   UNL     1       6.177  -6.794  21.921  0.00  0.00    -0.507 OA
ATOM     39  H   UNL     1       6.864  -7.291  22.394  0.00  0.00    +0.292 HD
ENDBRANCH  21  38
ENDBRANCH  14  15
ENDBRANCH   2  14
BRANCH   1  40
ATOM     40  O   UNL     1       5.638   3.185  25.904  0.00  0.00    -0.337 OA
BRANCH  40  44
ATOM     41  C   UNL     1       8.139   6.469  24.943  0.00  0.00    +0.041 C 
ATOM     42  C   UNL     1       6.793   6.263  24.237  0.00  0.00    +0.149 C 
ATOM     43  O   UNL     1       5.927   5.360  24.964  0.00  0.00    -0.343 OA
ATOM     44  C   UNL     1       6.404   4.000  24.993  0.00  0.00    +0.282 C 
ATOM     45  C   UNL     1       6.485   3.444  23.545  0.00  0.00    +0.201 C 
ATOM     46  C   UNL     1       7.400   4.337  22.703  0.00  0.00    +0.179 C 
ATOM     47  C   UNL     1       6.968   5.806  22.777  0.00  0.00    +0.174 C 
BRANCH  47  48
ATOM     48  O   UNL     1       5.727   5.943  22.064  0.00  0.00    -0.387 OA
ATOM     49  H   UNL     1       5.398   5.028  21.910  0.00  0.00    +0.210 HD
ENDBRANCH  47  48
BRANCH  46  50
ATOM     50  O   UNL     1       7.374   3.885  21.341  0.00  0.00    -0.386 OA
ATOM     51  H   UNL     1       7.941   3.091  21.322  0.00  0.00    +0.210 HD
ENDBRANCH  46  50
BRANCH  45  52
ATOM     52  O   UNL     1       5.181   3.383  22.936  0.00  0.00    -0.384 OA
ATOM     53  H   UNL     1       4.750   4.234  23.145  0.00  0.00    +0.210 HD
ENDBRANCH  45  52
ENDBRANCH  40  44
ENDBRANCH   1  40
TORSDOF 16
ENDMDL
MODEL 8
REMARK VINA RESULT:      -6.9      2.817      7.028
REMARK  Name = 
REMARK  18 active torsions:
REMARK  status: ('A' for Active; 'I' for Inactive)
REMARK    1  A    between atoms: C_1  and  C_2
REMARK    2  A    between atoms: C_3  and  O_50
REMARK    3  A    between atoms: C_5  and  O_49
REMARK    4  A    between atoms: C_6  and  O_48
REMARK    5  A    between atoms: C_8  and  O_11
REMARK    6  A    between atoms: O_11  and  C_12
REMARK    7  A    between atoms: C_13  and  O_47
REMARK    8  A    between atoms: C_15  and  O_46
REMARK    9  A    between atoms: C_17  and  C_44
REMARK   10  A    between atoms: C_19  and  O_21
REMARK   11  A    between atoms: O_21  and  C_22
REMARK   12  A    between atoms: C_23  and  C_35
REMARK   13  A    between atoms: C_27  and  O_34
REMARK   14  A    between atoms: C_29  and  O_33
REMARK   15  A    between atoms: C_37  and  O_43
REMARK   16  A    between atoms: C_38  and  O_41
REMARK   17  A    between atoms: O_41  and  C_42
REMARK   18  A    between atoms: C_44  and  O_45
REMARK                            x       y       z     vdW  Elec       q    Type
REMARK                         _______ _______ _______ _____ _____    ______ ____
ROOT
ATOM      1  C   UNL     1       6.759   2.289  23.215  0.00  0.00    +0.221 C 
ATOM      2  C   UNL     1       6.856   0.730  23.338  0.00  0.00    +0.340 C 
ATOM      3  O   UNL     1       8.157   0.343  23.815  0.00  0.00    -0.331 OA
ATOM      4  C   UNL     1       9.208   0.655  22.868  0.00  0.00    +0.179 C 
ATOM      5  C   UNL     1       9.229   2.164  22.554  0.00  0.00    +0.177 C 
ATOM      6  C   UNL     1       7.836   2.688  22.166  0.00  0.00    +0.180 C 
ENDROOT
BRANCH   6   7
ATOM      7  O   UNL     1       7.948   4.098  21.900  0.00  0.00    -0.386 OA
ATOM      8  H   UNL     1       7.450   4.286  21.085  0.00  0.00    +0.210 HD
ENDBRANCH   6   7
BRANCH   5   9
ATOM      9  O   UNL     1      10.142   2.456  21.485  0.00  0.00    -0.386 OA
ATOM     10  H   UNL     1      10.062   1.702  20.865  0.00  0.00    +0.210 HD
ENDBRANCH   5   9
BRANCH   4  11
ATOM     11  C   UNL     1       9.158  -0.223  21.588  0.00  0.00    +0.190 C 
BRANCH  11  12
ATOM     12  O   UNL     1       9.261  -1.611  21.898  0.00  0.00    -0.392 OA
ATOM     13  H   UNL     1      10.162  -1.765  22.234  0.00  0.00    +0.210 HD
ENDBRANCH  11  12
ENDBRANCH   4  11
BRANCH   2  14
ATOM     14  O   UNL     1       5.782   0.133  24.111  0.00  0.00    -0.453 OA
BRANCH  14  15
ATOM     15  C   UNL     1       6.135  -1.079  24.714  0.00  0.00    +0.214 A 
ATOM     16  C   UNL     1       6.224  -2.335  23.880  0.00  0.00    +0.238 A 
ATOM     17  O   UNL     1       5.587  -2.470  22.844  0.00  0.00    -0.283 OA
ATOM     18  C   UNL     1       7.124  -3.388  24.361  0.00  0.00    +0.109 A 
ATOM     19  C   UNL     1       7.330  -3.429  25.730  0.00  0.00    +0.147 A 
ATOM     20  C   UNL     1       8.101  -4.438  26.302  0.00  0.00    +0.092 A 
ATOM     21  C   UNL     1       8.686  -5.391  25.474  0.00  0.00    +0.124 A 
ATOM     22  C   UNL     1       8.522  -5.342  24.095  0.00  0.00    +0.091 A 
ATOM     23  O   UNL     1       6.767  -2.500  26.565  0.00  0.00    -0.451 OA
ATOM     24  C   UNL     1       7.742  -4.333  23.533  0.00  0.00    +0.135 A 
ATOM     25  C   UNL     1       6.380  -1.261  26.040  0.00  0.00    +0.181 A 
BRANCH  25  26
ATOM     26  C   UNL     1       6.256  -0.267  27.157  0.00  0.00    +0.025 A 
ATOM     27  C   UNL     1       5.160  -0.397  28.041  0.00  0.00    +0.015 A 
ATOM     28  C   UNL     1       4.823   0.605  28.959  0.00  0.00    +0.050 A 
ATOM     29  C   UNL     1       5.581   1.767  29.046  0.00  0.00    +0.161 A 
ATOM     30  C   UNL     1       6.724   1.869  28.247  0.00  0.00    +0.159 A 
ATOM     31  C   UNL     1       7.054   0.872  27.305  0.00  0.00    +0.060 A 
BRANCH  29  32
ATOM     32  O   UNL     1       5.102   2.667  29.962  0.00  0.00    -0.491 OA
ATOM     33  C   UNL     1       3.775   2.471  30.435  0.00  0.00    +0.277 C 
ENDBRANCH  29  32
BRANCH  30  34
ATOM     34  O   UNL     1       7.565   2.939  28.379  0.00  0.00    -0.503 OA
ATOM     35  H   UNL     1       7.674   3.333  27.495  0.00  0.00    +0.292 HD
ENDBRANCH  30  34
ENDBRANCH  25  26
BRANCH  24  36
ATOM     36  O   UNL     1       7.618  -4.256  22.175  0.00  0.00    -0.506 OA
ATOM     37  H   UNL     1       6.829  -3.736  21.952  0.00  0.00    +0.292 HD
ENDBRANCH  24  36
BRANCH  21  38
ATOM     38  O   UNL     1       9.447  -6.402  25.984  0.00  0.00    -0.507 OA
ATOM     39  H   UNL     1      10.387  -6.180  25.885  0.00  0.00    +0.292 HD
ENDBRANCH  21  38
ENDBRANCH  14  15
ENDBRANCH   2  14
BRANCH   1  40
ATOM     40  O   UNL     1       6.887   2.970  24.490  0.00  0.00    -0.337 OA
BRANCH  40  44
ATOM     41  C   UNL     1       5.188   6.641  25.756  0.00  0.00    +0.041 C 
ATOM     42  C   UNL     1       4.902   5.334  26.506  0.00  0.00    +0.149 C 
ATOM     43  O   UNL     1       5.864   4.300  26.188  0.00  0.00    -0.343 OA
ATOM     44  C   UNL     1       5.779   3.831  24.828  0.00  0.00    +0.282 C 
ATOM     45  C   UNL     1       4.379   3.207  24.577  0.00  0.00    +0.201 C 
ATOM     46  C   UNL     1       3.294   4.243  24.876  0.00  0.00    +0.179 C 
ATOM     47  C   UNL     1       3.462   4.838  26.279  0.00  0.00    +0.174 C 
BRANCH  47  48
ATOM     48  O   UNL     1       3.134   3.819  27.239  0.00  0.00    -0.387 OA
ATOM     49  H   UNL     1       2.254   3.467  26.972  0.00  0.00    +0.210 HD
ENDBRANCH  47  48
BRANCH  46  50
ATOM     50  O   UNL     1       2.006   3.623  24.757  0.00  0.00    -0.386 OA
ATOM     51  H   UNL     1       1.915   3.396  23.812  0.00  0.00    +0.210 HD
ENDBRANCH  46  50
BRANCH  45  52
ATOM     52  O   UNL     1       4.172   2.042  25.401  0.00  0.00    -0.384 OA
ATOM     53  H   UNL     1       5.063   1.693  25.595  0.00  0.00    +0.210 HD
ENDBRANCH  45  52
ENDBRANCH  40  44
ENDBRANCH   1  40
TORSDOF 16
ENDMDL
MODEL 9
REMARK VINA RESULT:      -6.9      3.597      8.595
REMARK  Name = 
REMARK  18 active torsions:
REMARK  status: ('A' for Active; 'I' for Inactive)
REMARK    1  A    between atoms: C_1  and  C_2
REMARK    2  A    between atoms: C_3  and  O_50
REMARK    3  A    between atoms: C_5  and  O_49
REMARK    4  A    between atoms: C_6  and  O_48
REMARK    5  A    between atoms: C_8  and  O_11
REMARK    6  A    between atoms: O_11  and  C_12
REMARK    7  A    between atoms: C_13  and  O_47
REMARK    8  A    between atoms: C_15  and  O_46
REMARK    9  A    between atoms: C_17  and  C_44
REMARK   10  A    between atoms: C_19  and  O_21
REMARK   11  A    between atoms: O_21  and  C_22
REMARK   12  A    between atoms: C_23  and  C_35
REMARK   13  A    between atoms: C_27  and  O_34
REMARK   14  A    between atoms: C_29  and  O_33
REMARK   15  A    between atoms: C_37  and  O_43
REMARK   16  A    between atoms: C_38  and  O_41
REMARK   17  A    between atoms: O_41  and  C_42
REMARK   18  A    between atoms: C_44  and  O_45
REMARK                            x       y       z     vdW  Elec       q    Type
REMARK                         _______ _______ _______ _____ _____    ______ ____
ROOT
ATOM      1  C   UNL     1       4.797   3.195  25.205  0.00  0.00    +0.221 C 
ATOM      2  C   UNL     1       5.922   2.158  24.865  0.00  0.00    +0.340 C 
ATOM      3  O   UNL     1       5.557   0.848  25.336  0.00  0.00    -0.331 OA
ATOM      4  C   UNL     1       5.486   0.780  26.780  0.00  0.00    +0.179 C 
ATOM      5  C   UNL     1       4.466   1.799  27.326  0.00  0.00    +0.177 C 
ATOM      6  C   UNL     1       4.704   3.208  26.758  0.00  0.00    +0.180 C 
ENDROOT
BRANCH   6   7
ATOM      7  O   UNL     1       3.707   4.086  27.311  0.00  0.00    -0.386 OA
ATOM      8  H   UNL     1       3.992   5.001  27.142  0.00  0.00    +0.210 HD
ENDBRANCH   6   7
BRANCH   5   9
ATOM      9  O   UNL     1       4.520   1.867  28.758  0.00  0.00    -0.386 OA
ATOM     10  H   UNL     1       3.628   1.602  29.062  0.00  0.00    +0.210 HD
ENDBRANCH   5   9
BRANCH   4  11
ATOM     11  C   UNL     1       6.874   0.897  27.467  0.00  0.00    +0.190 C 
BRANCH  11  12
ATOM     12  O   UNL     1       7.617  -0.317  27.363  0.00  0.00    -0.392 OA
ATOM     13  H   UNL     1       7.180  -0.864  26.686  0.00  0.00    +0.210 HD
ENDBRANCH  11  12
ENDBRANCH   4  11
BRANCH   2  14
ATOM     14  O   UNL     1       6.316   2.156  23.468  0.00  0.00    -0.453 OA
BRANCH  14  15
ATOM     15  C   UNL     1       7.644   2.548  23.262  0.00  0.00    +0.214 A 
ATOM     16  C   UNL     1       7.952   3.973  22.868  0.00  0.00    +0.238 A 
ATOM     17  O   UNL     1       7.138   4.673  22.283  0.00  0.00    -0.283 OA
ATOM     18  C   UNL     1       9.276   4.488  23.232  0.00  0.00    +0.109 A 
ATOM     19  C   UNL     1      10.286   3.545  23.336  0.00  0.00    +0.147 A 
ATOM     20  C   UNL     1      11.598   3.935  23.595  0.00  0.00    +0.092 A 
ATOM     21  C   UNL     1      11.877   5.286  23.777  0.00  0.00    +0.124 A 
ATOM     22  C   UNL     1      10.869   6.242  23.715  0.00  0.00    +0.091 A 
ATOM     23  O   UNL     1      10.035   2.210  23.164  0.00  0.00    -0.451 OA
ATOM     24  C   UNL     1       9.561   5.843  23.447  0.00  0.00    +0.135 A 
ATOM     25  C   UNL     1       8.731   1.734  23.346  0.00  0.00    +0.181 A 
BRANCH  25  26
ATOM     26  C   UNL     1       8.772   0.253  23.587  0.00  0.00    +0.025 A 
ATOM     27  C   UNL     1       9.607  -0.227  24.621  0.00  0.00    +0.015 A 
ATOM     28  C   UNL     1       9.897  -1.589  24.770  0.00  0.00    +0.050 A 
ATOM     29  C   UNL     1       9.346  -2.526  23.904  0.00  0.00    +0.161 A 
ATOM     30  C   UNL     1       8.442  -2.078  22.936  0.00  0.00    +0.159 A 
ATOM     31  C   UNL     1       8.165  -0.705  22.769  0.00  0.00    +0.060 A 
BRANCH  29  32
ATOM     32  O   UNL     1       9.755  -3.810  24.154  0.00  0.00    -0.491 OA
ATOM     33  C   UNL     1       9.019  -4.552  25.119  0.00  0.00    +0.277 C 
ENDBRANCH  29  32
BRANCH  30  34
ATOM     34  O   UNL     1       7.784  -2.973  22.138  0.00  0.00    -0.503 OA
ATOM     35  H   UNL     1       7.013  -3.296  22.638  0.00  0.00    +0.292 HD
ENDBRANCH  30  34
ENDBRANCH  25  26
BRANCH  24  36
ATOM     36  O   UNL     1       8.563   6.775  23.432  0.00  0.00    -0.506 OA
ATOM     37  H   UNL     1       8.252   6.929  24.339  0.00  0.00    +0.292 HD
ENDBRANCH  24  36
BRANCH  21  38
ATOM     38  O   UNL     1      13.144   5.721  24.030  0.00  0.00    -0.507 OA
ATOM     39  H   UNL     1      13.109   6.500  24.608  0.00  0.00    +0.292 HD
ENDBRANCH  21  38
ENDBRANCH  14  15
ENDBRANCH   2  14
BRANCH   1  40
ATOM     40  O   UNL     1       3.541   2.913  24.535  0.00  0.00    -0.337 OA
BRANCH  40  44
ATOM     41  C   UNL     1       0.444   5.617  23.507  0.00  0.00    +0.041 C 
ATOM     42  C   UNL     1       1.122   4.746  22.443  0.00  0.00    +0.149 C 
ATOM     43  O   UNL     1       1.837   3.631  23.024  0.00  0.00    -0.343 OA
ATOM     44  C   UNL     1       2.989   4.024  23.796  0.00  0.00    +0.282 C 
ATOM     45  C   UNL     1       4.008   4.756  22.880  0.00  0.00    +0.201 C 
ATOM     46  C   UNL     1       3.335   5.967  22.230  0.00  0.00    +0.179 C 
ATOM     47  C   UNL     1       2.037   5.568  21.517  0.00  0.00    +0.174 C 
BRANCH  47  48
ATOM     48  O   UNL     1       2.385   4.797  20.355  0.00  0.00    -0.387 OA
ATOM     49  H   UNL     1       1.547   4.659  19.858  0.00  0.00    +0.210 HD
ENDBRANCH  47  48
BRANCH  46  50
ATOM     50  O   UNL     1       4.245   6.565  21.296  0.00  0.00    -0.386 OA
ATOM     51  H   UNL     1       5.042   6.002  21.316  0.00  0.00    +0.210 HD
ENDBRANCH  46  50
BRANCH  45  52
ATOM     52  O   UNL     1       4.511   3.878  21.854  0.00  0.00    -0.384 OA
ATOM     53  H   UNL     1       4.607   4.431  21.055  0.00  0.00    +0.210 HD
ENDBRANCH  45  52
ENDBRANCH  40  44
ENDBRANCH   1  40
TORSDOF 16
ENDMDL
