MODEL 1
REMARK VINA RESULT:      -7.4      0.000      0.000
REMARK  Name = 
REMARK  14 active torsions:
REMARK  status: ('A' for Active; 'I' for Inactive)
REMARK    1  A    between atoms: C_1  and  O_2
REMARK    2  A    between atoms: O_2  and  C_3
REMARK    3  A    between atoms: C_4  and  O_38
REMARK    4  A    between atoms: C_7  and  C_9
REMARK    5  A    between atoms: C_10  and  O_36
REMARK    6  A    between atoms: C_14  and  O_35
REMARK    7  A    between atoms: C_16  and  O_20
REMARK    8  A    between atoms: O_20  and  C_21
REMARK    9  A    between atoms: C_23  and  O_34
REMARK   10  A    between atoms: C_24  and  O_33
REMARK   11  A    between atoms: C_26  and  O_32
REMARK   12  A    between atoms: C_28  and  C_30
REMARK   13  A    between atoms: C_30  and  O_31
REMARK   14  A    between atoms: O_36  and  C_37
REMARK                            x       y       z     vdW  Elec       q    Type
REMARK                         _______ _______ _______ _____ _____    ______ ____
ROOT
ATOM      1  C   UNL     1       7.808  -0.456  23.156  0.00  0.00    +0.181 A 
ATOM      2  O   UNL     1       6.657  -1.227  22.940  0.00  0.00    -0.451 OA
ATOM      3  C   UNL     1       6.706  -2.586  23.152  0.00  0.00    +0.147 A 
ATOM      4  C   UNL     1       7.878  -3.244  23.480  0.00  0.00    +0.109 A 
ATOM      5  C   UNL     1       7.878  -4.631  23.685  0.00  0.00    +0.135 A 
ATOM      6  C   UNL     1       6.697  -5.363  23.590  0.00  0.00    +0.092 A 
ATOM      7  C   UNL     1       5.498  -4.708  23.304  0.00  0.00    +0.131 A 
ATOM      8  C   UNL     1       9.100  -2.458  23.627  0.00  0.00    +0.238 A 
ATOM      9  O   UNL     1      10.155  -3.039  23.870  0.00  0.00    -0.283 OA
ATOM     10  C   UNL     1       5.515  -3.323  23.048  0.00  0.00    +0.093 A 
ATOM     11  C   UNL     1       9.012  -0.973  23.511  0.00  0.00    +0.211 A 
ENDROOT
BRANCH   1  14
ATOM     12  C   UNL     1       6.106   2.939  23.035  0.00  0.00    +0.162 A 
ATOM     13  C   UNL     1       6.400   1.621  23.402  0.00  0.00    +0.061 A 
ATOM     14  C   UNL     1       7.567   0.989  22.921  0.00  0.00    +0.025 A 
ATOM     15  C   UNL     1       8.481   1.730  22.153  0.00  0.00    +0.015 A 
ATOM     16  C   UNL     1       8.201   3.057  21.808  0.00  0.00    +0.050 A 
ATOM     17  C   UNL     1       7.012   3.635  22.228  0.00  0.00    +0.158 A 
BRANCH  12  19
ATOM     18  C   UNL     1       3.773   3.312  22.681  0.00  0.00    +0.277 C 
ATOM     19  O   UNL     1       4.979   3.653  23.352  0.00  0.00    -0.491 OA
ENDBRANCH  12  19
BRANCH  17  20
ATOM     20  O   UNL     1       6.727   4.910  21.815  0.00  0.00    -0.503 OA
ATOM     21  H   UNL     1       7.055   4.960  20.896  0.00  0.00    +0.292 HD
ENDBRANCH  17  20
ENDBRANCH   1  14
BRANCH   5  22
ATOM     22  O   UNL     1       9.007  -5.334  24.014  0.00  0.00    -0.506 OA
ATOM     23  H   UNL     1       8.753  -6.282  24.125  0.00  0.00    +0.292 HD
ENDBRANCH   5  22
BRANCH  11  24
ATOM     24  O   UNL     1      10.211  -0.363  23.766  0.00  0.00    -0.488 OA
ATOM     25  C   UNL     1      10.508   0.318  24.970  0.00  0.00    +0.277 C 
ENDBRANCH  11  24
BRANCH   7  26
ATOM     26  O   UNL     1       4.378  -5.516  23.338  0.00  0.00    -0.461 OA
BRANCH  26  27
ATOM     27  C   UNL     1       3.405  -5.159  24.335  0.00  0.00    +0.339 C 
ATOM     28  O   UNL     1       3.980  -5.186  25.645  0.00  0.00    -0.331 OA
ATOM     29  C   UNL     1       4.311  -6.514  26.095  0.00  0.00    +0.179 C 
ATOM     30  C   UNL     1       3.019  -7.330  26.261  0.00  0.00    +0.177 C 
ATOM     31  C   UNL     1       2.310  -7.427  24.905  0.00  0.00    +0.180 C 
ATOM     32  C   UNL     1       2.129  -6.036  24.268  0.00  0.00    +0.214 C 
BRANCH  30  33
ATOM     33  O   UNL     1       2.168  -6.683  27.213  0.00  0.00    -0.386 OA
ATOM     34  H   UNL     1       1.606  -7.354  27.639  0.00  0.00    +0.210 HD
ENDBRANCH  30  33
BRANCH  31  35
ATOM     35  O   UNL     1       3.002  -8.308  24.008  0.00  0.00    -0.386 OA
ATOM     36  H   UNL     1       2.467  -9.115  23.871  0.00  0.00    +0.210 HD
ENDBRANCH  31  35
BRANCH  32  37
ATOM     37  O   UNL     1       1.617  -6.162  22.936  0.00  0.00    -0.383 OA
ATOM     38  H   UNL     1       2.312  -5.841  22.328  0.00  0.00    +0.210 HD
ENDBRANCH  32  37
BRANCH  29  39
ATOM     39  C   UNL     1       5.100  -6.399  27.408  0.00  0.00    +0.190 C 
BRANCH  39  40
ATOM     40  O   UNL     1       5.043  -7.614  28.165  0.00  0.00    -0.392 OA
ATOM     41  H   UNL     1       4.451  -8.235  27.701  0.00  0.00    +0.210 HD
ENDBRANCH  39  40
ENDBRANCH  29  39
ENDBRANCH  26  27
ENDBRANCH   7  26
TORSDOF 12
ENDMDL
MODEL 2
REMARK VINA RESULT:      -7.3      1.335      2.613
REMARK  Name = 
REMARK  14 active torsions:
REMARK  status: ('A' for Active; 'I' for Inactive)
REMARK    1  A    between atoms: C_1  and  O_2
REMARK    2  A    between atoms: O_2  and  C_3
REMARK    3  A    between atoms: C_4  and  O_38
REMARK    4  A    between atoms: C_7  and  C_9
REMARK    5  A    between atoms: C_10  and  O_36
REMARK    6  A    between atoms: C_14  and  O_35
REMARK    7  A    between atoms: C_16  and  O_20
REMARK    8  A    between atoms: O_20  and  C_21
REMARK    9  A    between atoms: C_23  and  O_34
REMARK   10  A    between atoms: C_24  and  O_33
REMARK   11  A    between atoms: C_26  and  O_32
REMARK   12  A    between atoms: C_28  and  C_30
REMARK   13  A    between atoms: C_30  and  O_31
REMARK   14  A    between atoms: O_36  and  C_37
REMARK                            x       y       z     vdW  Elec       q    Type
REMARK                         _______ _______ _______ _____ _____    ______ ____
ROOT
ATOM      1  C   UNL     1       8.051  -0.032  23.463  0.00  0.00    +0.181 A 
ATOM      2  O   UNL     1       6.847  -0.738  23.597  0.00  0.00    -0.451 OA
ATOM      3  C   UNL     1       6.883  -2.088  23.864  0.00  0.00    +0.147 A 
ATOM      4  C   UNL     1       8.066  -2.804  23.909  0.00  0.00    +0.109 A 
ATOM      5  C   UNL     1       8.052  -4.179  24.183  0.00  0.00    +0.135 A 
ATOM      6  C   UNL     1       6.853  -4.839  24.441  0.00  0.00    +0.092 A 
ATOM      7  C   UNL     1       5.655  -4.123  24.442  0.00  0.00    +0.131 A 
ATOM      8  C   UNL     1       9.321  -2.090  23.690  0.00  0.00    +0.238 A 
ATOM      9  O   UNL     1      10.372  -2.725  23.680  0.00  0.00    -0.283 OA
ATOM     10  C   UNL     1       5.673  -2.753  24.115  0.00  0.00    +0.093 A 
ATOM     11  C   UNL     1       9.280  -0.608  23.519  0.00  0.00    +0.211 A 
ENDROOT
BRANCH   1  14
ATOM     12  C   UNL     1       7.485   3.677  24.065  0.00  0.00    +0.162 A 
ATOM     13  C   UNL     1       7.856   2.344  24.281  0.00  0.00    +0.061 A 
ATOM     14  C   UNL     1       7.829   1.414  23.219  0.00  0.00    +0.025 A 
ATOM     15  C   UNL     1       7.521   1.863  21.923  0.00  0.00    +0.015 A 
ATOM     16  C   UNL     1       7.176   3.200  21.702  0.00  0.00    +0.050 A 
ATOM     17  C   UNL     1       7.136   4.081  22.772  0.00  0.00    +0.158 A 
BRANCH  12  19
ATOM     18  C   UNL     1       8.588   5.189  25.549  0.00  0.00    +0.277 C 
ATOM     19  O   UNL     1       7.382   4.668  25.007  0.00  0.00    -0.491 OA
ENDBRANCH  12  19
BRANCH  17  20
ATOM     20  O   UNL     1       6.722   5.367  22.542  0.00  0.00    -0.503 OA
ATOM     21  H   UNL     1       7.005   5.871  23.330  0.00  0.00    +0.292 HD
ENDBRANCH  17  20
ENDBRANCH   1  14
BRANCH   5  22
ATOM     22  O   UNL     1       9.191  -4.937  24.245  0.00  0.00    -0.506 OA
ATOM     23  H   UNL     1       9.938  -4.392  23.899  0.00  0.00    +0.292 HD
ENDBRANCH   5  22
BRANCH  11  24
ATOM     24  O   UNL     1      10.532  -0.064  23.417  0.00  0.00    -0.488 OA
ATOM     25  C   UNL     1      11.166   0.652  24.460  0.00  0.00    +0.277 C 
ENDBRANCH  11  24
BRANCH   7  26
ATOM     26  O   UNL     1       4.544  -4.858  24.812  0.00  0.00    -0.461 OA
BRANCH  26  27
ATOM     27  C   UNL     1       4.616  -6.260  24.500  0.00  0.00    +0.339 C 
ATOM     28  O   UNL     1       3.683  -6.605  23.471  0.00  0.00    -0.331 OA
ATOM     29  C   UNL     1       2.309  -6.521  23.895  0.00  0.00    +0.179 C 
ATOM     30  C   UNL     1       2.047  -7.580  24.978  0.00  0.00    +0.177 C 
ATOM     31  C   UNL     1       2.956  -7.305  26.180  0.00  0.00    +0.180 C 
ATOM     32  C   UNL     1       4.428  -7.161  25.747  0.00  0.00    +0.214 C 
BRANCH  30  33
ATOM     33  O   UNL     1       2.321  -8.881  24.445  0.00  0.00    -0.386 OA
ATOM     34  H   UNL     1       1.505  -9.410  24.470  0.00  0.00    +0.210 HD
ENDBRANCH  30  33
BRANCH  31  35
ATOM     35  O   UNL     1       2.529  -6.146  26.912  0.00  0.00    -0.386 OA
ATOM     36  H   UNL     1       2.243  -6.417  27.807  0.00  0.00    +0.210 HD
ENDBRANCH  31  35
BRANCH  32  37
ATOM     37  O   UNL     1       5.233  -6.741  26.856  0.00  0.00    -0.383 OA
ATOM     38  H   UNL     1       6.119  -7.137  26.736  0.00  0.00    +0.210 HD
ENDBRANCH  32  37
BRANCH  29  39
ATOM     39  C   UNL     1       1.408  -6.709  22.665  0.00  0.00    +0.190 C 
BRANCH  39  40
ATOM     40  O   UNL     1       1.758  -7.889  21.932  0.00  0.00    -0.392 OA
ATOM     41  H   UNL     1       1.146  -8.602  22.191  0.00  0.00    +0.210 HD
ENDBRANCH  39  40
ENDBRANCH  29  39
ENDBRANCH  26  27
ENDBRANCH   7  26
TORSDOF 12
ENDMDL
MODEL 3
REMARK VINA RESULT:      -7.2      1.768      9.130
REMARK  Name = 
REMARK  14 active torsions:
REMARK  status: ('A' for Active; 'I' for Inactive)
REMARK    1  A    between atoms: C_1  and  O_2
REMARK    2  A    between atoms: O_2  and  C_3
REMARK    3  A    between atoms: C_4  and  O_38
REMARK    4  A    between atoms: C_7  and  C_9
REMARK    5  A    between atoms: C_10  and  O_36
REMARK    6  A    between atoms: C_14  and  O_35
REMARK    7  A    between atoms: C_16  and  O_20
REMARK    8  A    between atoms: O_20  and  C_21
REMARK    9  A    between atoms: C_23  and  O_34
REMARK   10  A    between atoms: C_24  and  O_33
REMARK   11  A    between atoms: C_26  and  O_32
REMARK   12  A    between atoms: C_28  and  C_30
REMARK   13  A    between atoms: C_30  and  O_31
REMARK   14  A    between atoms: O_36  and  C_37
REMARK                            x       y       z     vdW  Elec       q    Type
REMARK                         _______ _______ _______ _____ _____    ______ ____
ROOT
ATOM      1  C   UNL     1       6.915  -3.513  24.687  0.00  0.00    +0.181 A 
ATOM      2  O   UNL     1       6.327  -2.259  24.903  0.00  0.00    -0.451 OA
ATOM      3  C   UNL     1       7.059  -1.119  24.658  0.00  0.00    +0.147 A 
ATOM      4  C   UNL     1       8.394  -1.158  24.296  0.00  0.00    +0.109 A 
ATOM      5  C   UNL     1       9.098   0.030  24.057  0.00  0.00    +0.135 A 
ATOM      6  C   UNL     1       8.461   1.265  24.153  0.00  0.00    +0.092 A 
ATOM      7  C   UNL     1       7.104   1.320  24.474  0.00  0.00    +0.131 A 
ATOM      8  C   UNL     1       9.037  -2.461  24.147  0.00  0.00    +0.238 A 
ATOM      9  O   UNL     1      10.234  -2.505  23.873  0.00  0.00    -0.283 OA
ATOM     10  C   UNL     1       6.417   0.125  24.764  0.00  0.00    +0.093 A 
ATOM     11  C   UNL     1       8.205  -3.690  24.300  0.00  0.00    +0.211 A 
ENDROOT
BRANCH   1  14
ATOM     12  C   UNL     1       5.210  -6.450  26.391  0.00  0.00    +0.162 A 
ATOM     13  C   UNL     1       5.984  -5.299  26.202  0.00  0.00    +0.061 A 
ATOM     14  C   UNL     1       5.975  -4.627  24.961  0.00  0.00    +0.025 A 
ATOM     15  C   UNL     1       5.105  -5.068  23.949  0.00  0.00    +0.015 A 
ATOM     16  C   UNL     1       4.310  -6.202  24.146  0.00  0.00    +0.050 A 
ATOM     17  C   UNL     1       4.390  -6.892  25.347  0.00  0.00    +0.158 A 
BRANCH  12  19
ATOM     18  C   UNL     1       5.540  -6.665  28.746  0.00  0.00    +0.277 C 
ATOM     19  O   UNL     1       5.178  -7.251  27.503  0.00  0.00    -0.491 OA
ENDBRANCH  12  19
BRANCH  17  20
ATOM     20  O   UNL     1       3.659  -8.042  25.487  0.00  0.00    -0.503 OA
ATOM     21  H   UNL     1       3.641  -8.444  24.596  0.00  0.00    +0.292 HD
ENDBRANCH  17  20
ENDBRANCH   1  14
BRANCH   5  22
ATOM     22  O   UNL     1      10.418   0.052  23.693  0.00  0.00    -0.506 OA
ATOM     23  H   UNL     1      10.492   0.558  22.848  0.00  0.00    +0.292 HD
ENDBRANCH   5  22
BRANCH  11  24
ATOM     24  O   UNL     1       8.916  -4.831  24.041  0.00  0.00    -0.488 OA
ATOM     25  C   UNL     1       9.474  -5.655  25.046  0.00  0.00    +0.277 C 
ENDBRANCH  11  24
BRANCH   7  26
ATOM     26  O   UNL     1       6.554   2.587  24.440  0.00  0.00    -0.461 OA
BRANCH  26  27
ATOM     27  C   UNL     1       5.967   2.957  23.180  0.00  0.00    +0.339 C 
ATOM     28  O   UNL     1       6.692   4.030  22.571  0.00  0.00    -0.331 OA
ATOM     29  C   UNL     1       6.560   5.280  23.276  0.00  0.00    +0.179 C 
ATOM     30  C   UNL     1       5.099   5.753  23.199  0.00  0.00    +0.177 C 
ATOM     31  C   UNL     1       4.197   4.709  23.865  0.00  0.00    +0.180 C 
ATOM     32  C   UNL     1       4.460   3.300  23.299  0.00  0.00    +0.214 C 
BRANCH  30  33
ATOM     33  O   UNL     1       4.726   5.918  21.826  0.00  0.00    -0.386 OA
ATOM     34  H   UNL     1       5.040   5.147  21.321  0.00  0.00    +0.210 HD
ENDBRANCH  30  33
BRANCH  31  35
ATOM     35  O   UNL     1       4.345   4.715  25.293  0.00  0.00    -0.386 OA
ATOM     36  H   UNL     1       3.460   4.700  25.709  0.00  0.00    +0.210 HD
ENDBRANCH  31  35
BRANCH  32  37
ATOM     37  O   UNL     1       3.730   2.319  24.047  0.00  0.00    -0.383 OA
ATOM     38  H   UNL     1       2.959   2.773  24.441  0.00  0.00    +0.210 HD
ENDBRANCH  32  37
BRANCH  29  39
ATOM     39  C   UNL     1       7.534   6.293  22.657  0.00  0.00    +0.190 C 
BRANCH  39  40
ATOM     40  O   UNL     1       7.539   6.213  21.227  0.00  0.00    -0.392 OA
ATOM     41  H   UNL     1       8.381   6.584  20.904  0.00  0.00    +0.210 HD
ENDBRANCH  39  40
ENDBRANCH  29  39
ENDBRANCH  26  27
ENDBRANCH   7  26
TORSDOF 12
ENDMDL
MODEL 4
REMARK VINA RESULT:      -7.1      1.662      8.968
REMARK  Name = 
REMARK  14 active torsions:
REMARK  status: ('A' for Active; 'I' for Inactive)
REMARK    1  A    between atoms: C_1  and  O_2
REMARK    2  A    between atoms: O_2  and  C_3
REMARK    3  A    between atoms: C_4  and  O_38
REMARK    4  A    between atoms: C_7  and  C_9
REMARK    5  A    between atoms: C_10  and  O_36
REMARK    6  A    between atoms: C_14  and  O_35
REMARK    7  A    between atoms: C_16  and  O_20
REMARK    8  A    between atoms: O_20  and  C_21
REMARK    9  A    between atoms: C_23  and  O_34
REMARK   10  A    between atoms: C_24  and  O_33
REMARK   11  A    between atoms: C_26  and  O_32
REMARK   12  A    between atoms: C_28  and  C_30
REMARK   13  A    between atoms: C_30  and  O_31
REMARK   14  A    between atoms: O_36  and  C_37
REMARK                            x       y       z     vdW  Elec       q    Type
REMARK                         _______ _______ _______ _____ _____    ______ ____
ROOT
ATOM      1  C   UNL     1       6.941  -3.706  24.259  0.00  0.00    +0.181 A 
ATOM      2  O   UNL     1       6.322  -2.454  24.135  0.00  0.00    -0.451 OA
ATOM      3  C   UNL     1       7.075  -1.364  23.761  0.00  0.00    +0.147 A 
ATOM      4  C   UNL     1       8.447  -1.431  23.595  0.00  0.00    +0.109 A 
ATOM      5  C   UNL     1       9.171  -0.292  23.214  0.00  0.00    +0.135 A 
ATOM      6  C   UNL     1       8.520   0.915  22.971  0.00  0.00    +0.092 A 
ATOM      7  C   UNL     1       7.132   0.989  23.092  0.00  0.00    +0.131 A 
ATOM      8  C   UNL     1       9.111  -2.715  23.801  0.00  0.00    +0.238 A 
ATOM      9  O   UNL     1      10.334  -2.774  23.703  0.00  0.00    -0.283 OA
ATOM     10  C   UNL     1       6.418  -0.146  23.525  0.00  0.00    +0.093 A 
ATOM     11  C   UNL     1       8.272  -3.915  24.090  0.00  0.00    +0.211 A 
ENDROOT
BRANCH   1  14
ATOM     12  C   UNL     1       5.187  -6.460  26.201  0.00  0.00    +0.162 A 
ATOM     13  C   UNL     1       5.986  -5.347  25.917  0.00  0.00    +0.061 A 
ATOM     14  C   UNL     1       5.979  -4.773  24.627  0.00  0.00    +0.025 A 
ATOM     15  C   UNL     1       5.086  -5.269  23.661  0.00  0.00    +0.015 A 
ATOM     16  C   UNL     1       4.268  -6.365  23.953  0.00  0.00    +0.050 A 
ATOM     17  C   UNL     1       4.345  -6.962  25.203  0.00  0.00    +0.158 A 
BRANCH  12  19
ATOM     18  C   UNL     1       5.517  -6.495  28.566  0.00  0.00    +0.277 C 
ATOM     19  O   UNL     1       5.149  -7.172  27.372  0.00  0.00    -0.491 OA
ENDBRANCH  12  19
BRANCH  17  20
ATOM     20  O   UNL     1       3.589  -8.079  25.438  0.00  0.00    -0.503 OA
ATOM     21  H   UNL     1       2.834  -8.013  24.820  0.00  0.00    +0.292 HD
ENDBRANCH  17  20
ENDBRANCH   1  14
BRANCH   5  22
ATOM     22  O   UNL     1      10.528  -0.301  23.031  0.00  0.00    -0.506 OA
ATOM     23  H   UNL     1      10.917   0.399  23.609  0.00  0.00    +0.292 HD
ENDBRANCH   5  22
BRANCH  11  24
ATOM     24  O   UNL     1       9.018  -5.060  24.166  0.00  0.00    -0.488 OA
ATOM     25  C   UNL     1       9.543  -5.580  25.373  0.00  0.00    +0.277 C 
ENDBRANCH  11  24
BRANCH   7  26
ATOM     26  O   UNL     1       6.585   2.204  22.727  0.00  0.00    -0.461 OA
BRANCH  26  27
ATOM     27  C   UNL     1       6.015   2.960  23.810  0.00  0.00    +0.339 C 
ATOM     28  O   UNL     1       4.606   3.129  23.632  0.00  0.00    -0.331 OA
ATOM     29  C   UNL     1       4.269   3.993  22.529  0.00  0.00    +0.179 C 
ATOM     30  C   UNL     1       4.758   5.418  22.835  0.00  0.00    +0.177 C 
ATOM     31  C   UNL     1       6.281   5.400  23.006  0.00  0.00    +0.180 C 
ATOM     32  C   UNL     1       6.717   4.326  24.021  0.00  0.00    +0.214 C 
BRANCH  30  33
ATOM     33  O   UNL     1       4.136   5.885  24.038  0.00  0.00    -0.386 OA
ATOM     34  H   UNL     1       4.561   6.719  24.307  0.00  0.00    +0.210 HD
ENDBRANCH  30  33
BRANCH  31  35
ATOM     35  O   UNL     1       6.952   5.212  21.751  0.00  0.00    -0.386 OA
ATOM     36  H   UNL     1       6.296   5.243  21.026  0.00  0.00    +0.210 HD
ENDBRANCH  31  35
BRANCH  32  37
ATOM     37  O   UNL     1       8.146   4.213  24.042  0.00  0.00    -0.383 OA
ATOM     38  H   UNL     1       8.434   4.017  23.128  0.00  0.00    +0.210 HD
ENDBRANCH  32  37
BRANCH  29  39
ATOM     39  C   UNL     1       2.750   3.933  22.311  0.00  0.00    +0.190 C 
BRANCH  39  40
ATOM     40  O   UNL     1       2.242   2.608  22.502  0.00  0.00    -0.392 OA
ATOM     41  H   UNL     1       2.757   2.183  23.212  0.00  0.00    +0.210 HD
ENDBRANCH  39  40
ENDBRANCH  29  39
ENDBRANCH  26  27
ENDBRANCH   7  26
TORSDOF 12
ENDMDL
MODEL 5
REMARK VINA RESULT:      -6.9      1.618      2.038
REMARK  Name = 
REMARK  14 active torsions:
REMARK  status: ('A' for Active; 'I' for Inactive)
REMARK    1  A    between atoms: C_1  and  O_2
REMARK    2  A    between atoms: O_2  and  C_3
REMARK    3  A    between atoms: C_4  and  O_38
REMARK    4  A    between atoms: C_7  and  C_9
REMARK    5  A    between atoms: C_10  and  O_36
REMARK    6  A    between atoms: C_14  and  O_35
REMARK    7  A    between atoms: C_16  and  O_20
REMARK    8  A    between atoms: O_20  and  C_21
REMARK    9  A    between atoms: C_23  and  O_34
REMARK   10  A    between atoms: C_24  and  O_33
REMARK   11  A    between atoms: C_26  and  O_32
REMARK   12  A    between atoms: C_28  and  C_30
REMARK   13  A    between atoms: C_30  and  O_31
REMARK   14  A    between atoms: O_36  and  C_37
REMARK                            x       y       z     vdW  Elec       q    Type
REMARK                         _______ _______ _______ _____ _____    ______ ____
ROOT
ATOM      1  C   UNL     1       7.761   1.298  23.718  0.00  0.00    +0.181 A 
ATOM      2  O   UNL     1       6.813   0.300  23.454  0.00  0.00    -0.451 OA
ATOM      3  C   UNL     1       7.190  -1.023  23.520  0.00  0.00    +0.147 A 
ATOM      4  C   UNL     1       8.499  -1.411  23.743  0.00  0.00    +0.109 A 
ATOM      5  C   UNL     1       8.835  -2.771  23.801  0.00  0.00    +0.135 A 
ATOM      6  C   UNL     1       7.854  -3.751  23.663  0.00  0.00    +0.092 A 
ATOM      7  C   UNL     1       6.523  -3.376  23.481  0.00  0.00    +0.131 A 
ATOM      8  C   UNL     1       9.509  -0.375  23.939  0.00  0.00    +0.238 A 
ATOM      9  O   UNL     1      10.682  -0.708  24.089  0.00  0.00    -0.283 OA
ATOM     10  C   UNL     1       6.201  -2.009  23.372  0.00  0.00    +0.093 A 
ATOM     11  C   UNL     1       9.070   1.051  23.983  0.00  0.00    +0.211 A 
ENDROOT
BRANCH   1  14
ATOM     12  C   UNL     1       5.940   4.493  24.673  0.00  0.00    +0.162 A 
ATOM     13  C   UNL     1       6.632   3.282  24.788  0.00  0.00    +0.061 A 
ATOM     14  C   UNL     1       7.177   2.659  23.644  0.00  0.00    +0.025 A 
ATOM     15  C   UNL     1       7.104   3.318  22.405  0.00  0.00    +0.015 A 
ATOM     16  C   UNL     1       6.435   4.542  22.294  0.00  0.00    +0.050 A 
ATOM     17  C   UNL     1       5.841   5.100  23.417  0.00  0.00    +0.158 A 
BRANCH  12  19
ATOM     18  C   UNL     1       4.124   4.571  26.223  0.00  0.00    +0.277 C 
ATOM     19  O   UNL     1       5.289   5.170  25.672  0.00  0.00    -0.491 OA
ENDBRANCH  12  19
BRANCH  17  20
ATOM     20  O   UNL     1       5.129   6.260  23.267  0.00  0.00    -0.503 OA
ATOM     21  H   UNL     1       5.744   6.974  23.527  0.00  0.00    +0.292 HD
ENDBRANCH  17  20
ENDBRANCH   1  14
BRANCH   5  22
ATOM     22  O   UNL     1      10.112  -3.213  24.022  0.00  0.00    -0.506 OA
ATOM     23  H   UNL     1      10.673  -2.914  23.267  0.00  0.00    +0.292 HD
ENDBRANCH   5  22
BRANCH  11  24
ATOM     24  O   UNL     1      10.105   1.902  24.266  0.00  0.00    -0.488 OA
ATOM     25  C   UNL     1      10.717   2.743  23.307  0.00  0.00    +0.277 C 
ENDBRANCH  11  24
BRANCH   7  26
ATOM     26  O   UNL     1       5.625  -4.427  23.461  0.00  0.00    -0.461 OA
BRANCH  26  27
ATOM     27  C   UNL     1       4.577  -4.346  24.442  0.00  0.00    +0.339 C 
ATOM     28  O   UNL     1       5.105  -4.452  25.767  0.00  0.00    -0.331 OA
ATOM     29  C   UNL     1       5.621  -5.762  26.072  0.00  0.00    +0.179 C 
ATOM     30  C   UNL     1       4.464  -6.775  26.072  0.00  0.00    +0.177 C 
ATOM     31  C   UNL     1       3.824  -6.805  24.680  0.00  0.00    +0.180 C 
ATOM     32  C   UNL     1       3.453  -5.387  24.205  0.00  0.00    +0.214 C 
BRANCH  30  33
ATOM     33  O   UNL     1       3.493  -6.386  27.050  0.00  0.00    -0.386 OA
ATOM     34  H   UNL     1       2.931  -5.687  26.673  0.00  0.00    +0.210 HD
ENDBRANCH  30  33
BRANCH  31  35
ATOM     35  O   UNL     1       4.671  -7.453  23.720  0.00  0.00    -0.386 OA
ATOM     36  H   UNL     1       4.336  -8.357  23.552  0.00  0.00    +0.210 HD
ENDBRANCH  31  35
BRANCH  32  37
ATOM     37  O   UNL     1       3.011  -5.418  22.842  0.00  0.00    -0.383 OA
ATOM     38  H   UNL     1       2.140  -5.863  22.831  0.00  0.00    +0.210 HD
ENDBRANCH  32  37
BRANCH  29  39
ATOM     39  C   UNL     1       6.339  -5.699  27.429  0.00  0.00    +0.190 C 
BRANCH  39  40
ATOM     40  O   UNL     1       6.137  -6.896  28.188  0.00  0.00    -0.392 OA
ATOM     41  H   UNL     1       5.272  -7.271  27.942  0.00  0.00    +0.210 HD
ENDBRANCH  39  40
ENDBRANCH  29  39
ENDBRANCH  26  27
ENDBRANCH   7  26
TORSDOF 12
ENDMDL
MODEL 6
REMARK VINA RESULT:      -6.9      2.087      9.011
REMARK  Name = 
REMARK  14 active torsions:
REMARK  status: ('A' for Active; 'I' for Inactive)
REMARK    1  A    between atoms: C_1  and  O_2
REMARK    2  A    between atoms: O_2  and  C_3
REMARK    3  A    between atoms: C_4  and  O_38
REMARK    4  A    between atoms: C_7  and  C_9
REMARK    5  A    between atoms: C_10  and  O_36
REMARK    6  A    between atoms: C_14  and  O_35
REMARK    7  A    between atoms: C_16  and  O_20
REMARK    8  A    between atoms: O_20  and  C_21
REMARK    9  A    between atoms: C_23  and  O_34
REMARK   10  A    between atoms: C_24  and  O_33
REMARK   11  A    between atoms: C_26  and  O_32
REMARK   12  A    between atoms: C_28  and  C_30
REMARK   13  A    between atoms: C_30  and  O_31
REMARK   14  A    between atoms: O_36  and  C_37
REMARK                            x       y       z     vdW  Elec       q    Type
REMARK                         _______ _______ _______ _____ _____    ______ ____
ROOT
ATOM      1  C   UNL     1       7.007  -3.656  24.455  0.00  0.00    +0.181 A 
ATOM      2  O   UNL     1       6.447  -2.372  24.495  0.00  0.00    -0.451 OA
ATOM      3  C   UNL     1       7.226  -1.285  24.166  0.00  0.00    +0.147 A 
ATOM      4  C   UNL     1       8.576  -1.396  23.889  0.00  0.00    +0.109 A 
ATOM      5  C   UNL     1       9.328  -0.260  23.561  0.00  0.00    +0.135 A 
ATOM      6  C   UNL     1       8.725   0.992  23.481  0.00  0.00    +0.092 A 
ATOM      7  C   UNL     1       7.355   1.116  23.715  0.00  0.00    +0.131 A 
ATOM      8  C   UNL     1       9.187  -2.723  23.925  0.00  0.00    +0.238 A 
ATOM      9  O   UNL     1      10.395  -2.827  23.728  0.00  0.00    -0.283 OA
ATOM     10  C   UNL     1       6.616  -0.022  24.095  0.00  0.00    +0.093 A 
ATOM     11  C   UNL     1       8.310  -3.907  24.166  0.00  0.00    +0.211 A 
ENDROOT
BRANCH   1  14
ATOM     12  C   UNL     1       5.189  -6.416  26.328  0.00  0.00    +0.162 A 
ATOM     13  C   UNL     1       6.013  -5.314  26.072  0.00  0.00    +0.061 A 
ATOM     14  C   UNL     1       6.021  -4.709  24.796  0.00  0.00    +0.025 A 
ATOM     15  C   UNL     1       5.118  -5.161  23.818  0.00  0.00    +0.015 A 
ATOM     16  C   UNL     1       4.275  -6.245  24.082  0.00  0.00    +0.050 A 
ATOM     17  C   UNL     1       4.337  -6.874  25.317  0.00  0.00    +0.158 A 
BRANCH  12  19
ATOM     18  C   UNL     1       5.658  -6.569  28.665  0.00  0.00    +0.277 C 
ATOM     19  O   UNL     1       5.133  -7.155  27.482  0.00  0.00    -0.491 OA
ENDBRANCH  12  19
BRANCH  17  20
ATOM     20  O   UNL     1       3.555  -7.979  25.525  0.00  0.00    -0.503 OA
ATOM     21  H   UNL     1       2.804  -7.881  24.908  0.00  0.00    +0.292 HD
ENDBRANCH  17  20
ENDBRANCH   1  14
BRANCH   5  22
ATOM     22  O   UNL     1      10.667  -0.311  23.274  0.00  0.00    -0.506 OA
ATOM     23  H   UNL     1      11.132   0.311  23.882  0.00  0.00    +0.292 HD
ENDBRANCH   5  22
BRANCH  11  24
ATOM     24  O   UNL     1       8.999  -5.086  24.078  0.00  0.00    -0.488 OA
ATOM     25  C   UNL     1       9.545  -5.764  25.194  0.00  0.00    +0.277 C 
ENDBRANCH  11  24
BRANCH   7  26
ATOM     26  O   UNL     1       6.846   2.384  23.507  0.00  0.00    -0.461 OA
BRANCH  26  27
ATOM     27  C   UNL     1       7.738   3.458  23.853  0.00  0.00    +0.339 C 
ATOM     28  O   UNL     1       7.759   3.671  25.268  0.00  0.00    -0.331 OA
ATOM     29  C   UNL     1       6.524   4.207  25.781  0.00  0.00    +0.179 C 
ATOM     30  C   UNL     1       6.310   5.620  25.215  0.00  0.00    +0.177 C 
ATOM     31  C   UNL     1       6.220   5.540  23.687  0.00  0.00    +0.180 C 
ATOM     32  C   UNL     1       7.417   4.771  23.096  0.00  0.00    +0.214 C 
BRANCH  30  33
ATOM     33  O   UNL     1       7.409   6.456  25.597  0.00  0.00    -0.386 OA
ATOM     34  H   UNL     1       7.090   7.370  25.692  0.00  0.00    +0.210 HD
ENDBRANCH  30  33
BRANCH  31  35
ATOM     35  O   UNL     1       4.981   4.953  23.261  0.00  0.00    -0.386 OA
ATOM     36  H   UNL     1       4.401   4.824  24.037  0.00  0.00    +0.210 HD
ENDBRANCH  31  35
BRANCH  32  37
ATOM     37  O   UNL     1       7.229   4.564  21.690  0.00  0.00    -0.383 OA
ATOM     38  H   UNL     1       6.770   5.354  21.341  0.00  0.00    +0.210 HD
ENDBRANCH  32  37
BRANCH  29  39
ATOM     39  C   UNL     1       6.592   4.199  27.316  0.00  0.00    +0.190 C 
BRANCH  39  40
ATOM     40  O   UNL     1       7.421   3.136  27.802  0.00  0.00    -0.392 OA
ATOM     41  H   UNL     1       8.155   3.011  27.173  0.00  0.00    +0.210 HD
ENDBRANCH  39  40
ENDBRANCH  29  39
ENDBRANCH  26  27
ENDBRANCH   7  26
TORSDOF 12
ENDMDL
MODEL 7
REMARK VINA RESULT:      -6.8      1.146      1.253
REMARK  Name = 
REMARK  14 active torsions:
REMARK  status: ('A' for Active; 'I' for Inactive)
REMARK    1  A    between atoms: C_1  and  O_2
REMARK    2  A    between atoms: O_2  and  C_3
REMARK    3  A    between atoms: C_4  and  O_38
REMARK    4  A    between atoms: C_7  and  C_9
REMARK    5  A    between atoms: C_10  and  O_36
REMARK    6  A    between atoms: C_14  and  O_35
REMARK    7  A    between atoms: C_16  and  O_20
REMARK    8  A    between atoms: O_20  and  C_21
REMARK    9  A    between atoms: C_23  and  O_34
REMARK   10  A    between atoms: C_24  and  O_33
REMARK   11  A    between atoms: C_26  and  O_32
REMARK   12  A    between atoms: C_28  and  C_30
REMARK   13  A    between atoms: C_30  and  O_31
REMARK   14  A    between atoms: O_36  and  C_37
REMARK                            x       y       z     vdW  Elec       q    Type
REMARK                         _______ _______ _______ _____ _____    ______ ____
ROOT
ATOM      1  C   UNL     1       7.946  -0.644  23.430  0.00  0.00    +0.181 A 
ATOM      2  O   UNL     1       6.828  -1.484  23.527  0.00  0.00    -0.451 OA
ATOM      3  C   UNL     1       7.007  -2.812  23.844  0.00  0.00    +0.147 A 
ATOM      4  C   UNL     1       8.261  -3.380  23.977  0.00  0.00    +0.109 A 
ATOM      5  C   UNL     1       8.393  -4.738  24.300  0.00  0.00    +0.135 A 
ATOM      6  C   UNL     1       7.267  -5.528  24.519  0.00  0.00    +0.092 A 
ATOM      7  C   UNL     1       5.995  -4.961  24.432  0.00  0.00    +0.131 A 
ATOM      8  C   UNL     1       9.434  -2.529  23.797  0.00  0.00    +0.238 A 
ATOM      9  O   UNL     1      10.551  -3.034  23.866  0.00  0.00    -0.283 OA
ATOM     10  C   UNL     1       5.870  -3.608  24.056  0.00  0.00    +0.093 A 
ATOM     11  C   UNL     1       9.228  -1.068  23.571  0.00  0.00    +0.211 A 
ENDROOT
BRANCH   1  14
ATOM     12  C   UNL     1       6.241   2.748  23.601  0.00  0.00    +0.162 A 
ATOM     13  C   UNL     1       6.719   1.488  23.981  0.00  0.00    +0.061 A 
ATOM     14  C   UNL     1       7.569   0.757  23.123  0.00  0.00    +0.025 A 
ATOM     15  C   UNL     1       8.010   1.350  21.927  0.00  0.00    +0.015 A 
ATOM     16  C   UNL     1       7.554   2.620  21.559  0.00  0.00    +0.050 A 
ATOM     17  C   UNL     1       6.659   3.290  22.381  0.00  0.00    +0.158 A 
BRANCH  12  19
ATOM     18  C   UNL     1       5.557   3.702  25.681  0.00  0.00    +0.277 C 
ATOM     19  O   UNL     1       5.350   3.534  24.285  0.00  0.00    -0.491 OA
ENDBRANCH  12  19
BRANCH  17  20
ATOM     20  O   UNL     1       6.170   4.499  21.962  0.00  0.00    -0.503 OA
ATOM     21  H   UNL     1       5.805   4.332  21.070  0.00  0.00    +0.292 HD
ENDBRANCH  17  20
ENDBRANCH   1  14
BRANCH   5  22
ATOM     22  O   UNL     1       9.608  -5.353  24.448  0.00  0.00    -0.506 OA
ATOM     23  H   UNL     1       9.679  -5.665  25.382  0.00  0.00    +0.292 HD
ENDBRANCH   5  22
BRANCH  11  24
ATOM     24  O   UNL     1      10.412  -0.382  23.515  0.00  0.00    -0.488 OA
ATOM     25  C   UNL     1      10.872   0.478  24.540  0.00  0.00    +0.277 C 
ENDBRANCH  11  24
BRANCH   7  26
ATOM     26  O   UNL     1       4.959  -5.811  24.769  0.00  0.00    -0.461 OA
BRANCH  26  27
ATOM     27  C   UNL     1       3.650  -5.219  24.715  0.00  0.00    +0.339 C 
ATOM     28  O   UNL     1       3.071  -5.135  26.021  0.00  0.00    -0.331 OA
ATOM     29  C   UNL     1       2.733  -6.420  26.579  0.00  0.00    +0.179 C 
ATOM     30  C   UNL     1       1.616  -7.059  25.738  0.00  0.00    +0.177 C 
ATOM     31  C   UNL     1       2.117  -7.256  24.303  0.00  0.00    +0.180 C 
ATOM     32  C   UNL     1       2.702  -5.951  23.731  0.00  0.00    +0.214 C 
BRANCH  30  33
ATOM     33  O   UNL     1       0.469  -6.201  25.742  0.00  0.00    -0.386 OA
ATOM     34  H   UNL     1       0.635  -5.452  25.143  0.00  0.00    +0.210 HD
ENDBRANCH  30  33
BRANCH  31  35
ATOM     35  O   UNL     1       3.078  -8.319  24.220  0.00  0.00    -0.386 OA
ATOM     36  H   UNL     1       2.608  -9.174  24.143  0.00  0.00    +0.210 HD
ENDBRANCH  31  35
BRANCH  32  37
ATOM     37  O   UNL     1       3.313  -6.195  22.458  0.00  0.00    -0.383 OA
ATOM     38  H   UNL     1       3.915  -5.447  22.278  0.00  0.00    +0.210 HD
ENDBRANCH  32  37
BRANCH  29  39
ATOM     39  C   UNL     1       2.318  -6.220  28.044  0.00  0.00    +0.190 C 
BRANCH  39  40
ATOM     40  O   UNL     1       3.441  -6.318  28.928  0.00  0.00    -0.392 OA
ATOM     41  H   UNL     1       3.148  -6.764  29.744  0.00  0.00    +0.210 HD
ENDBRANCH  39  40
ENDBRANCH  29  39
ENDBRANCH  26  27
ENDBRANCH   7  26
TORSDOF 12
ENDMDL
MODEL 8
REMARK VINA RESULT:      -6.8      1.556      8.786
REMARK  Name = 
REMARK  14 active torsions:
REMARK  status: ('A' for Active; 'I' for Inactive)
REMARK    1  A    between atoms: C_1  and  O_2
REMARK    2  A    between atoms: O_2  and  C_3
REMARK    3  A    between atoms: C_4  and  O_38
REMARK    4  A    between atoms: C_7  and  C_9
REMARK    5  A    between atoms: C_10  and  O_36
REMARK    6  A    between atoms: C_14  and  O_35
REMARK    7  A    between atoms: C_16  and  O_20
REMARK    8  A    between atoms: O_20  and  C_21
REMARK    9  A    between atoms: C_23  and  O_34
REMARK   10  A    between atoms: C_24  and  O_33
REMARK   11  A    between atoms: C_26  and  O_32
REMARK   12  A    between atoms: C_28  and  C_30
REMARK   13  A    between atoms: C_30  and  O_31
REMARK   14  A    between atoms: O_36  and  C_37
REMARK                            x       y       z     vdW  Elec       q    Type
REMARK                         _______ _______ _______ _____ _____    ______ ____
ROOT
ATOM      1  C   UNL     1       7.112  -3.803  24.500  0.00  0.00    +0.181 A 
ATOM      2  O   UNL     1       6.412  -2.599  24.342  0.00  0.00    -0.451 OA
ATOM      3  C   UNL     1       7.073  -1.493  23.858  0.00  0.00    +0.147 A 
ATOM      4  C   UNL     1       8.434  -1.491  23.609  0.00  0.00    +0.109 A 
ATOM      5  C   UNL     1       9.063  -0.339  23.118  0.00  0.00    +0.135 A 
ATOM      6  C   UNL     1       8.326   0.811  22.846  0.00  0.00    +0.092 A 
ATOM      7  C   UNL     1       6.946   0.813  23.049  0.00  0.00    +0.131 A 
ATOM      8  C   UNL     1       9.187  -2.719  23.849  0.00  0.00    +0.238 A 
ATOM      9  O   UNL     1      10.403  -2.714  23.677  0.00  0.00    -0.283 OA
ATOM     10  C   UNL     1       6.329  -0.332  23.592  0.00  0.00    +0.093 A 
ATOM     11  C   UNL     1       8.442  -3.945  24.260  0.00  0.00    +0.211 A 
ENDROOT
BRANCH   1  14
ATOM     12  C   UNL     1       4.410  -6.471  24.632  0.00  0.00    +0.162 A 
ATOM     13  C   UNL     1       5.339  -5.555  24.125  0.00  0.00    +0.061 A 
ATOM     14  C   UNL     1       6.241  -4.898  24.990  0.00  0.00    +0.025 A 
ATOM     15  C   UNL     1       6.263  -5.249  26.351  0.00  0.00    +0.015 A 
ATOM     16  C   UNL     1       5.352  -6.184  26.854  0.00  0.00    +0.050 A 
ATOM     17  C   UNL     1       4.424  -6.762  26.000  0.00  0.00    +0.158 A 
BRANCH  12  19
ATOM     18  C   UNL     1       2.453  -6.322  23.270  0.00  0.00    +0.277 C 
ATOM     19  O   UNL     1       3.425  -7.120  23.934  0.00  0.00    -0.491 OA
ENDBRANCH  12  19
BRANCH  17  20
ATOM     20  O   UNL     1       3.495  -7.617  26.531  0.00  0.00    -0.503 OA
ATOM     21  H   UNL     1       3.467  -7.404  27.485  0.00  0.00    +0.292 HD
ENDBRANCH  17  20
ENDBRANCH   1  14
BRANCH   5  22
ATOM     22  O   UNL     1      10.405  -0.281  22.850  0.00  0.00    -0.506 OA
ATOM     23  H   UNL     1      10.890  -0.404  23.701  0.00  0.00    +0.292 HD
ENDBRANCH   5  22
BRANCH  11  24
ATOM     24  O   UNL     1       9.259  -5.039  24.356  0.00  0.00    -0.488 OA
ATOM     25  C   UNL     1       9.880  -5.455  25.558  0.00  0.00    +0.277 C 
ENDBRANCH  11  24
BRANCH   7  26
ATOM     26  O   UNL     1       6.305   1.970  22.648  0.00  0.00    -0.461 OA
BRANCH  26  27
ATOM     27  C   UNL     1       5.604   2.666  23.694  0.00  0.00    +0.339 C 
ATOM     28  O   UNL     1       4.226   2.849  23.355  0.00  0.00    -0.331 OA
ATOM     29  C   UNL     1       4.025   3.776  22.270  0.00  0.00    +0.179 C 
ATOM     30  C   UNL     1       4.469   5.179  22.713  0.00  0.00    +0.177 C 
ATOM     31  C   UNL     1       5.959   5.146  23.068  0.00  0.00    +0.180 C 
ATOM     32  C   UNL     1       6.271   4.015  24.066  0.00  0.00    +0.214 C 
BRANCH  30  33
ATOM     33  O   UNL     1       3.703   5.580  23.855  0.00  0.00    -0.386 OA
ATOM     34  H   UNL     1       4.044   5.118  24.640  0.00  0.00    +0.210 HD
ENDBRANCH  30  33
BRANCH  31  35
ATOM     35  O   UNL     1       6.780   5.026  21.896  0.00  0.00    -0.386 OA
ATOM     36  H   UNL     1       6.261   5.293  21.111  0.00  0.00    +0.210 HD
ENDBRANCH  31  35
BRANCH  32  37
ATOM     37  O   UNL     1       7.687   3.895  24.256  0.00  0.00    -0.383 OA
ATOM     38  H   UNL     1       7.843   3.068  24.752  0.00  0.00    +0.210 HD
ENDBRANCH  32  37
BRANCH  29  39
ATOM     39  C   UNL     1       2.544   3.734  21.864  0.00  0.00    +0.190 C 
BRANCH  39  40
ATOM     40  O   UNL     1       1.932   2.492  22.229  0.00  0.00    -0.392 OA
ATOM     41  H   UNL     1       1.154   2.356  21.658  0.00  0.00    +0.210 HD
ENDBRANCH  39  40
ENDBRANCH  29  39
ENDBRANCH  26  27
ENDBRANCH   7  26
TORSDOF 12
ENDMDL
MODEL 9
REMARK VINA RESULT:      -6.7      2.191      3.574
REMARK  Name = 
REMARK  14 active torsions:
REMARK  status: ('A' for Active; 'I' for Inactive)
REMARK    1  A    between atoms: C_1  and  O_2
REMARK    2  A    between atoms: O_2  and  C_3
REMARK    3  A    between atoms: C_4  and  O_38
REMARK    4  A    between atoms: C_7  and  C_9
REMARK    5  A    between atoms: C_10  and  O_36
REMARK    6  A    between atoms: C_14  and  O_35
REMARK    7  A    between atoms: C_16  and  O_20
REMARK    8  A    between atoms: O_20  and  C_21
REMARK    9  A    between atoms: C_23  and  O_34
REMARK   10  A    between atoms: C_24  and  O_33
REMARK   11  A    between atoms: C_26  and  O_32
REMARK   12  A    between atoms: C_28  and  C_30
REMARK   13  A    between atoms: C_30  and  O_31
REMARK   14  A    between atoms: O_36  and  C_37
REMARK                            x       y       z     vdW  Elec       q    Type
REMARK                         _______ _______ _______ _____ _____    ______ ____
ROOT
ATOM      1  C   UNL     1       8.186  -0.305  24.491  0.00  0.00    +0.181 A 
ATOM      2  O   UNL     1       7.358  -1.015  25.370  0.00  0.00    -0.451 OA
ATOM      3  C   UNL     1       7.670  -2.318  25.687  0.00  0.00    +0.147 A 
ATOM      4  C   UNL     1       8.721  -2.995  25.094  0.00  0.00    +0.109 A 
ATOM      5  C   UNL     1       8.999  -4.322  25.448  0.00  0.00    +0.135 A 
ATOM      6  C   UNL     1       8.242  -4.971  26.420  0.00  0.00    +0.092 A 
ATOM      7  C   UNL     1       7.206  -4.290  27.060  0.00  0.00    +0.131 A 
ATOM      8  C   UNL     1       9.541  -2.286  24.114  0.00  0.00    +0.238 A 
ATOM      9  O   UNL     1      10.446  -2.892  23.547  0.00  0.00    -0.283 OA
ATOM     10  C   UNL     1       6.900  -2.973  26.661  0.00  0.00    +0.093 A 
ATOM     11  C   UNL     1       9.267  -0.840  23.866  0.00  0.00    +0.211 A 
ENDROOT
BRANCH   1  14
ATOM     12  C   UNL     1       8.001   3.486  24.678  0.00  0.00    +0.162 A 
ATOM     13  C   UNL     1       8.514   2.184  24.720  0.00  0.00    +0.061 A 
ATOM     14  C   UNL     1       7.727   1.092  24.294  0.00  0.00    +0.025 A 
ATOM     15  C   UNL     1       6.462   1.336  23.732  0.00  0.00    +0.015 A 
ATOM     16  C   UNL     1       5.959   2.640  23.665  0.00  0.00    +0.050 A 
ATOM     17  C   UNL     1       6.718   3.691  24.159  0.00  0.00    +0.158 A 
BRANCH  12  19
ATOM     18  C   UNL     1       9.630   5.196  24.322  0.00  0.00    +0.277 C 
ATOM     19  O   UNL     1       8.609   4.628  25.131  0.00  0.00    -0.491 OA
ENDBRANCH  12  19
BRANCH  17  20
ATOM     20  O   UNL     1       6.173   4.947  24.150  0.00  0.00    -0.503 OA
ATOM     21  H   UNL     1       6.651   5.439  24.847  0.00  0.00    +0.292 HD
ENDBRANCH  17  20
ENDBRANCH   1  14
BRANCH   5  22
ATOM     22  O   UNL     1      10.028  -5.039  24.897  0.00  0.00    -0.506 OA
ATOM     23  H   UNL     1       9.667  -5.906  24.595  0.00  0.00    +0.292 HD
ENDBRANCH   5  22
BRANCH  11  24
ATOM     24  O   UNL     1      10.169  -0.285  22.999  0.00  0.00    -0.488 OA
ATOM     25  C   UNL     1       9.855   0.092  21.672  0.00  0.00    +0.277 C 
ENDBRANCH  11  24
BRANCH   7  26
ATOM     26  O   UNL     1       6.592  -4.996  28.077  0.00  0.00    -0.461 OA
BRANCH  26  27
ATOM     27  C   UNL     1       5.918  -6.195  27.658  0.00  0.00    +0.339 C 
ATOM     28  O   UNL     1       4.833  -5.892  26.775  0.00  0.00    -0.331 OA
ATOM     29  C   UNL     1       3.741  -5.214  27.425  0.00  0.00    +0.179 C 
ATOM     30  C   UNL     1       3.102  -6.157  28.458  0.00  0.00    +0.177 C 
ATOM     31  C   UNL     1       4.150  -6.533  29.511  0.00  0.00    +0.180 C 
ATOM     32  C   UNL     1       5.439  -7.060  28.852  0.00  0.00    +0.214 C 
BRANCH  30  33
ATOM     33  O   UNL     1       2.629  -7.335  27.795  0.00  0.00    -0.386 OA
ATOM     34  H   UNL     1       2.553  -8.053  28.447  0.00  0.00    +0.210 HD
ENDBRANCH  30  33
BRANCH  31  35
ATOM     35  O   UNL     1       4.442  -5.432  30.384  0.00  0.00    -0.386 OA
ATOM     36  H   UNL     1       5.334  -5.552  30.768  0.00  0.00    +0.210 HD
ENDBRANCH  31  35
BRANCH  32  37
ATOM     37  O   UNL     1       6.461  -7.249  29.840  0.00  0.00    -0.383 OA
ATOM     38  H   UNL     1       6.389  -6.509  30.474  0.00  0.00    +0.210 HD
ENDBRANCH  32  37
BRANCH  29  39
ATOM     39  C   UNL     1       2.741  -4.763  26.351  0.00  0.00    +0.190 C 
BRANCH  39  40
ATOM     40  O   UNL     1       2.458  -5.813  25.419  0.00  0.00    -0.392 OA
ATOM     41  H   UNL     1       1.548  -6.124  25.577  0.00  0.00    +0.210 HD
ENDBRANCH  39  40
ENDBRANCH  29  39
ENDBRANCH  26  27
ENDBRANCH   7  26
TORSDOF 12
ENDMDL
