MODEL 1
REMARK VINA RESULT:      -7.6      0.000      0.000
REMARK  Name = 
REMARK  21 active torsions:
REMARK  status: ('A' for Active; 'I' for Inactive)
REMARK    1  A    between atoms: C_2  and  O_59
REMARK    2  A    between atoms: C_3  and  O_58
REMARK    3  A    between atoms: C_5  and  O_45
REMARK    4  A    between atoms: C_6  and  O_9
REMARK    5  A    between atoms: O_9  and  C_10
REMARK    6  A    between atoms: C_10  and  C_11
REMARK    7  A    between atoms: C_12  and  O_44
REMARK    8  A    between atoms: C_14  and  O_43
REMARK    9  A    between atoms: C_16  and  O_42
REMARK   10  A    between atoms: C_17  and  O_20
REMARK   11  A    between atoms: O_20  and  C_21
REMARK   12  A    between atoms: C_22  and  C_34
REMARK   13  A    between atoms: C_26  and  O_33
REMARK   14  A    between atoms: C_28  and  O_32
REMARK   15  A    between atoms: C_36  and  O_41
REMARK   16  A    between atoms: C_37  and  O_40
REMARK   17  A    between atoms: O_45  and  C_46
REMARK   18  A    between atoms: C_46  and  C_48
REMARK   19  A    between atoms: C_49  and  C_50
REMARK   20  A    between atoms: C_52  and  O_57
REMARK   21  A    between atoms: C_53  and  O_56
REMARK                            x       y       z     vdW  Elec       q    Type
REMARK                         _______ _______ _______ _____ _____    ______ ____
ROOT
ATOM      1  C   UNL     1       5.080  -3.453  27.847  0.00  0.00    +0.179 C 
ATOM      2  O   UNL     1       6.492  -3.367  27.501  0.00  0.00    -0.331 OA
ATOM      3  C   UNL     1       6.783  -4.132  26.304  0.00  0.00    +0.340 C 
ATOM      4  C   UNL     1       6.647  -5.629  26.649  0.00  0.00    +0.214 C 
ATOM      5  C   UNL     1       5.179  -5.871  27.058  0.00  0.00    +0.180 C 
ATOM      6  C   UNL     1       4.737  -4.921  28.178  0.00  0.00    +0.177 C 
ENDROOT
BRANCH   4   7
ATOM      7  O   UNL     1       7.548  -5.974  27.722  0.00  0.00    -0.383 OA
ATOM      8  H   UNL     1       7.251  -6.827  28.084  0.00  0.00    +0.210 HD
ENDBRANCH   4   7
BRANCH   6   9
ATOM      9  O   UNL     1       3.350  -5.142  28.447  0.00  0.00    -0.386 OA
ATOM     10  H   UNL     1       3.119  -6.038  28.138  0.00  0.00    +0.210 HD
ENDBRANCH   6   9
BRANCH   5  11
ATOM     11  O   UNL     1       4.967  -7.224  27.475  0.00  0.00    -0.386 OA
ATOM     12  H   UNL     1       4.084  -7.229  27.895  0.00  0.00    +0.210 HD
ENDBRANCH   5  11
BRANCH   3  13
ATOM     13  O   UNL     1       8.073  -3.811  25.778  0.00  0.00    -0.453 OA
BRANCH  13  14
ATOM     14  C   UNL     1       8.108  -2.707  24.916  0.00  0.00    +0.214 A 
ATOM     15  C   UNL     1       9.018  -1.541  25.195  0.00  0.00    +0.238 A 
ATOM     16  O   UNL     1       9.647  -1.464  26.244  0.00  0.00    -0.283 OA
ATOM     17  C   UNL     1       9.118  -0.487  24.178  0.00  0.00    +0.109 A 
ATOM     18  C   UNL     1       8.214  -0.526  23.121  0.00  0.00    +0.147 A 
ATOM     19  C   UNL     1       8.186   0.524  22.190  0.00  0.00    +0.092 A 
ATOM     20  C   UNL     1       9.066   1.593  22.333  0.00  0.00    +0.124 A 
ATOM     21  C   UNL     1      10.001   1.619  23.360  0.00  0.00    +0.091 A 
ATOM     22  O   UNL     1       7.322  -1.553  22.936  0.00  0.00    -0.451 OA
ATOM     23  C   UNL     1      10.038   0.572  24.274  0.00  0.00    +0.135 A 
ATOM     24  C   UNL     1       7.312  -2.626  23.826  0.00  0.00    +0.181 A 
BRANCH  24  25
ATOM     25  C   UNL     1       6.338  -3.697  23.443  0.00  0.00    +0.025 A 
ATOM     26  C   UNL     1       4.957  -3.517  23.665  0.00  0.00    +0.015 A 
ATOM     27  C   UNL     1       4.022  -4.495  23.283  0.00  0.00    +0.050 A 
ATOM     28  C   UNL     1       4.466  -5.656  22.675  0.00  0.00    +0.158 A 
ATOM     29  C   UNL     1       5.822  -5.870  22.475  0.00  0.00    +0.159 A 
ATOM     30  C   UNL     1       6.755  -4.915  22.872  0.00  0.00    +0.060 A 
BRANCH  29  31
ATOM     31  O   UNL     1       6.202  -7.036  21.867  0.00  0.00    -0.503 OA
ATOM     32  H   UNL     1       6.073  -7.764  22.501  0.00  0.00    +0.292 HD
ENDBRANCH  29  31
BRANCH  28  33
ATOM     33  O   UNL     1       3.562  -6.593  22.266  0.00  0.00    -0.503 OA
ATOM     34  H   UNL     1       3.316  -7.071  23.083  0.00  0.00    +0.292 HD
ENDBRANCH  28  33
ENDBRANCH  24  25
BRANCH  23  35
ATOM     35  O   UNL     1      10.998   0.588  25.247  0.00  0.00    -0.506 OA
ATOM     36  H   UNL     1      11.693   1.226  25.019  0.00  0.00    +0.292 HD
ENDBRANCH  23  35
BRANCH  20  37
ATOM     37  O   UNL     1       9.056   2.649  21.477  0.00  0.00    -0.507 OA
ATOM     38  H   UNL     1       8.148   2.805  21.168  0.00  0.00    +0.292 HD
ENDBRANCH  20  37
ENDBRANCH  13  14
ENDBRANCH   3  13
BRANCH   1  39
ATOM     39  C   UNL     1       4.240  -2.787  26.734  0.00  0.00    +0.197 C 
BRANCH  39  40
ATOM     40  O   UNL     1       4.379  -1.382  26.571  0.00  0.00    -0.345 OA
BRANCH  40  43
ATOM     41  C   UNL     1       1.988   0.595  28.457  0.00  0.00    +0.197 C 
ATOM     42  O   UNL     1       2.658  -0.009  27.360  0.00  0.00    -0.345 OA
ATOM     43  C   UNL     1       3.827  -0.745  27.742  0.00  0.00    +0.294 C 
ATOM     44  C   UNL     1       4.864   0.155  28.436  0.00  0.00    +0.263 C 
ATOM     45  C   UNL     1       4.183   0.868  29.615  0.00  0.00    +0.191 C 
ATOM     46  C   UNL     1       2.901   1.585  29.171  0.00  0.00    +0.172 C 
BRANCH  46  47
ATOM     47  O   UNL     1       2.260   2.167  30.311  0.00  0.00    -0.387 OA
ATOM     48  H   UNL     1       1.318   1.924  30.303  0.00  0.00    +0.210 HD
ENDBRANCH  46  47
BRANCH  45  49
ATOM     49  O   UNL     1       5.067   1.798  30.246  0.00  0.00    -0.385 OA
ATOM     50  H   UNL     1       5.723   1.265  30.737  0.00  0.00    +0.210 HD
ENDBRANCH  45  49
BRANCH  44  51
ATOM     51  O   UNL     1       5.342   1.138  27.495  0.00  0.00    -0.450 OA
BRANCH  51  52
ATOM     52  C   UNL     1       6.652   1.039  27.170  0.00  0.00    +0.332 C 
ATOM     53  O   UNL     1       7.543   0.524  27.826  0.00  0.00    -0.246 OA
BRANCH  52  54
ATOM     54  C   UNL     1       6.841   1.702  25.866  0.00  0.00    +0.092 C 
ATOM     55  C   UNL     1       7.200   2.994  25.830  0.00  0.00    +0.015 C 
BRANCH  55  56
ATOM     56  C   UNL     1       7.271   3.789  24.597  0.00  0.00    -0.021 A 
ATOM     57  C   UNL     1       6.271   3.753  23.610  0.00  0.00    +0.012 A 
ATOM     58  C   UNL     1       6.335   4.598  22.499  0.00  0.00    +0.050 A 
ATOM     59  C   UNL     1       7.406   5.468  22.371  0.00  0.00    +0.158 A 
ATOM     60  C   UNL     1       8.429   5.479  23.313  0.00  0.00    +0.159 A 
ATOM     61  C   UNL     1       8.377   4.636  24.419  0.00  0.00    +0.057 A 
BRANCH  60  62
ATOM     62  O   UNL     1       9.462   6.355  23.122  0.00  0.00    -0.503 OA
ATOM     63  H   UNL     1      10.260   5.973  23.524  0.00  0.00    +0.292 HD
ENDBRANCH  60  62
BRANCH  59  64
ATOM     64  O   UNL     1       7.441   6.330  21.314  0.00  0.00    -0.503 OA
ATOM     65  H   UNL     1       7.958   5.856  20.630  0.00  0.00    +0.292 HD
ENDBRANCH  59  64
ENDBRANCH  55  56
ENDBRANCH  52  54
ENDBRANCH  51  52
ENDBRANCH  44  51
ENDBRANCH  40  43
ENDBRANCH  39  40
ENDBRANCH   1  39
TORSDOF 21
ENDMDL
MODEL 2
REMARK VINA RESULT:      -7.5      2.290      8.225
REMARK  Name = 
REMARK  21 active torsions:
REMARK  status: ('A' for Active; 'I' for Inactive)
REMARK    1  A    between atoms: C_2  and  O_59
REMARK    2  A    between atoms: C_3  and  O_58
REMARK    3  A    between atoms: C_5  and  O_45
REMARK    4  A    between atoms: C_6  and  O_9
REMARK    5  A    between atoms: O_9  and  C_10
REMARK    6  A    between atoms: C_10  and  C_11
REMARK    7  A    between atoms: C_12  and  O_44
REMARK    8  A    between atoms: C_14  and  O_43
REMARK    9  A    between atoms: C_16  and  O_42
REMARK   10  A    between atoms: C_17  and  O_20
REMARK   11  A    between atoms: O_20  and  C_21
REMARK   12  A    between atoms: C_22  and  C_34
REMARK   13  A    between atoms: C_26  and  O_33
REMARK   14  A    between atoms: C_28  and  O_32
REMARK   15  A    between atoms: C_36  and  O_41
REMARK   16  A    between atoms: C_37  and  O_40
REMARK   17  A    between atoms: O_45  and  C_46
REMARK   18  A    between atoms: C_46  and  C_48
REMARK   19  A    between atoms: C_49  and  C_50
REMARK   20  A    between atoms: C_52  and  O_57
REMARK   21  A    between atoms: C_53  and  O_56
REMARK                            x       y       z     vdW  Elec       q    Type
REMARK                         _______ _______ _______ _____ _____    ______ ____
ROOT
ATOM      1  C   UNL     1       9.543  -0.762  24.456  0.00  0.00    +0.179 C 
ATOM      2  O   UNL     1       9.647   0.618  24.908  0.00  0.00    -0.331 OA
ATOM      3  C   UNL     1       8.676   1.461  24.238  0.00  0.00    +0.340 C 
ATOM      4  C   UNL     1       9.097   1.594  22.760  0.00  0.00    +0.214 C 
ATOM      5  C   UNL     1       9.050   0.181  22.144  0.00  0.00    +0.180 C 
ATOM      6  C   UNL     1       9.884  -0.821  22.952  0.00  0.00    +0.177 C 
ENDROOT
BRANCH   4   7
ATOM      7  O   UNL     1      10.425   2.154  22.672  0.00  0.00    -0.383 OA
ATOM      8  H   UNL     1      10.998   1.472  22.280  0.00  0.00    +0.210 HD
ENDBRANCH   4   7
BRANCH   6   9
ATOM      9  O   UNL     1       9.728  -2.120  22.377  0.00  0.00    -0.386 OA
ATOM     10  H   UNL     1       8.892  -2.132  21.874  0.00  0.00    +0.210 HD
ENDBRANCH   6   9
BRANCH   5  11
ATOM     11  O   UNL     1       9.503   0.184  20.786  0.00  0.00    -0.386 OA
ATOM     12  H   UNL     1       8.690   0.193  20.242  0.00  0.00    +0.210 HD
ENDBRANCH   5  11
BRANCH   3  13
ATOM     13  O   UNL     1       8.550   2.730  24.883  0.00  0.00    -0.453 OA
BRANCH  13  14
ATOM     14  C   UNL     1       7.639   3.614  24.289  0.00  0.00    +0.214 A 
ATOM     15  C   UNL     1       6.282   3.138  23.847  0.00  0.00    +0.238 A 
ATOM     16  O   UNL     1       5.987   1.948  23.869  0.00  0.00    -0.283 OA
ATOM     17  C   UNL     1       5.322   4.142  23.371  0.00  0.00    +0.109 A 
ATOM     18  C   UNL     1       5.793   5.434  23.161  0.00  0.00    +0.147 A 
ATOM     19  C   UNL     1       4.949   6.399  22.591  0.00  0.00    +0.092 A 
ATOM     20  C   UNL     1       3.647   6.054  22.242  0.00  0.00    +0.124 A 
ATOM     21  C   UNL     1       3.154   4.779  22.487  0.00  0.00    +0.091 A 
ATOM     22  O   UNL     1       7.069   5.826  23.482  0.00  0.00    -0.451 OA
ATOM     23  C   UNL     1       3.985   3.826  23.066  0.00  0.00    +0.135 A 
ATOM     24  C   UNL     1       7.948   4.910  24.058  0.00  0.00    +0.181 A 
BRANCH  24  25
ATOM     25  C   UNL     1       9.270   5.512  24.419  0.00  0.00    +0.025 A 
ATOM     26  C   UNL     1       9.404   6.294  25.585  0.00  0.00    +0.015 A 
ATOM     27  C   UNL     1      10.643   6.842  25.959  0.00  0.00    +0.050 A 
ATOM     28  C   UNL     1      11.754   6.608  25.168  0.00  0.00    +0.158 A 
ATOM     29  C   UNL     1      11.642   5.868  24.000  0.00  0.00    +0.159 A 
ATOM     30  C   UNL     1      10.412   5.343  23.612  0.00  0.00    +0.060 A 
BRANCH  29  31
ATOM     31  O   UNL     1      12.776   5.668  23.260  0.00  0.00    -0.503 OA
ATOM     32  H   UNL     1      12.589   4.972  22.603  0.00  0.00    +0.292 HD
ENDBRANCH  29  31
BRANCH  28  33
ATOM     33  O   UNL     1      12.969   7.103  25.546  0.00  0.00    -0.503 OA
ATOM     34  H   UNL     1      12.784   7.614  26.359  0.00  0.00    +0.292 HD
ENDBRANCH  28  33
ENDBRANCH  24  25
BRANCH  23  35
ATOM     35  O   UNL     1       3.469   2.592  23.348  0.00  0.00    -0.506 OA
ATOM     36  H   UNL     1       2.633   2.464  22.870  0.00  0.00    +0.292 HD
ENDBRANCH  23  35
BRANCH  20  37
ATOM     37  O   UNL     1       2.801   6.944  21.657  0.00  0.00    -0.507 OA
ATOM     38  H   UNL     1       3.303   7.724  21.371  0.00  0.00    +0.292 HD
ENDBRANCH  20  37
ENDBRANCH  13  14
ENDBRANCH   3  13
BRANCH   1  39
ATOM     39  C   UNL     1       8.167  -1.332  24.870  0.00  0.00    +0.197 C 
BRANCH  39  40
ATOM     40  O   UNL     1       8.162  -2.372  25.839  0.00  0.00    -0.345 OA
BRANCH  40  43
ATOM     41  C   UNL     1       7.093  -4.436  23.050  0.00  0.00    +0.197 C 
ATOM     42  O   UNL     1       7.402  -3.287  23.826  0.00  0.00    -0.345 OA
ATOM     43  C   UNL     1       7.792  -3.596  25.170  0.00  0.00    +0.294 C 
ATOM     44  C   UNL     1       6.680  -4.340  25.929  0.00  0.00    +0.263 C 
ATOM     45  C   UNL     1       6.275  -5.578  25.113  0.00  0.00    +0.191 C 
ATOM     46  C   UNL     1       5.931  -5.208  23.664  0.00  0.00    +0.172 C 
BRANCH  46  47
ATOM     47  O   UNL     1       5.638  -6.398  22.925  0.00  0.00    -0.387 OA
ATOM     48  H   UNL     1       6.446  -6.697  22.474  0.00  0.00    +0.210 HD
ENDBRANCH  46  47
BRANCH  45  49
ATOM     49  O   UNL     1       5.174  -6.265  25.715  0.00  0.00    -0.385 OA
ATOM     50  H   UNL     1       4.383  -6.029  25.191  0.00  0.00    +0.210 HD
ENDBRANCH  45  49
BRANCH  44  51
ATOM     51  O   UNL     1       5.540  -3.467  26.070  0.00  0.00    -0.450 OA
BRANCH  51  52
ATOM     52  C   UNL     1       5.060  -3.342  27.329  0.00  0.00    +0.332 C 
ATOM     53  O   UNL     1       4.720  -4.235  28.087  0.00  0.00    -0.246 OA
BRANCH  52  54
ATOM     54  C   UNL     1       4.983  -1.901  27.637  0.00  0.00    +0.092 C 
ATOM     55  C   UNL     1       4.936  -1.015  26.631  0.00  0.00    +0.015 C 
BRANCH  55  56
ATOM     56  C   UNL     1       5.007   0.440  26.820  0.00  0.00    -0.021 A 
ATOM     57  C   UNL     1       3.888   1.280  26.685  0.00  0.00    +0.012 A 
ATOM     58  C   UNL     1       3.984   2.645  26.968  0.00  0.00    +0.050 A 
ATOM     59  C   UNL     1       5.202   3.170  27.371  0.00  0.00    +0.158 A 
ATOM     60  C   UNL     1       6.329   2.361  27.458  0.00  0.00    +0.159 A 
ATOM     61  C   UNL     1       6.245   1.002  27.172  0.00  0.00    +0.057 A 
BRANCH  60  62
ATOM     62  O   UNL     1       7.503   2.943  27.852  0.00  0.00    -0.503 OA
ATOM     63  H   UNL     1       7.293   3.805  28.252  0.00  0.00    +0.292 HD
ENDBRANCH  60  62
BRANCH  59  64
ATOM     64  O   UNL     1       5.283   4.492  27.698  0.00  0.00    -0.503 OA
ATOM     65  H   UNL     1       4.377   4.729  27.984  0.00  0.00    +0.292 HD
ENDBRANCH  59  64
ENDBRANCH  55  56
ENDBRANCH  52  54
ENDBRANCH  51  52
ENDBRANCH  44  51
ENDBRANCH  40  43
ENDBRANCH  39  40
ENDBRANCH   1  39
TORSDOF 21
ENDMDL
MODEL 3
REMARK VINA RESULT:      -7.5      2.016      4.639
REMARK  Name = 
REMARK  21 active torsions:
REMARK  status: ('A' for Active; 'I' for Inactive)
REMARK    1  A    between atoms: C_2  and  O_59
REMARK    2  A    between atoms: C_3  and  O_58
REMARK    3  A    between atoms: C_5  and  O_45
REMARK    4  A    between atoms: C_6  and  O_9
REMARK    5  A    between atoms: O_9  and  C_10
REMARK    6  A    between atoms: C_10  and  C_11
REMARK    7  A    between atoms: C_12  and  O_44
REMARK    8  A    between atoms: C_14  and  O_43
REMARK    9  A    between atoms: C_16  and  O_42
REMARK   10  A    between atoms: C_17  and  O_20
REMARK   11  A    between atoms: O_20  and  C_21
REMARK   12  A    between atoms: C_22  and  C_34
REMARK   13  A    between atoms: C_26  and  O_33
REMARK   14  A    between atoms: C_28  and  O_32
REMARK   15  A    between atoms: C_36  and  O_41
REMARK   16  A    between atoms: C_37  and  O_40
REMARK   17  A    between atoms: O_45  and  C_46
REMARK   18  A    between atoms: C_46  and  C_48
REMARK   19  A    between atoms: C_49  and  C_50
REMARK   20  A    between atoms: C_52  and  O_57
REMARK   21  A    between atoms: C_53  and  O_56
REMARK                            x       y       z     vdW  Elec       q    Type
REMARK                         _______ _______ _______ _____ _____    ______ ____
ROOT
ATOM      1  C   UNL     1       8.164  -3.540  26.776  0.00  0.00    +0.179 C 
ATOM      2  O   UNL     1       8.952  -2.778  25.818  0.00  0.00    -0.331 OA
ATOM      3  C   UNL     1       8.806  -3.313  24.479  0.00  0.00    +0.340 C 
ATOM      4  C   UNL     1       9.515  -4.683  24.432  0.00  0.00    +0.214 C 
ATOM      5  C   UNL     1       8.786  -5.608  25.427  0.00  0.00    +0.180 C 
ATOM      6  C   UNL     1       8.704  -4.985  26.827  0.00  0.00    +0.177 C 
ENDROOT
BRANCH   4   7
ATOM      7  O   UNL     1      10.906  -4.532  24.786  0.00  0.00    -0.383 OA
ATOM      8  H   UNL     1      10.974  -4.677  25.747  0.00  0.00    +0.210 HD
ENDBRANCH   4   7
BRANCH   6   9
ATOM      9  O   UNL     1       7.946  -5.853  27.673  0.00  0.00    -0.386 OA
ATOM     10  H   UNL     1       8.546  -6.542  28.018  0.00  0.00    +0.210 HD
ENDBRANCH   6   9
BRANCH   5  11
ATOM     11  O   UNL     1       9.421  -6.887  25.517  0.00  0.00    -0.386 OA
ATOM     12  H   UNL     1       9.825  -7.037  24.639  0.00  0.00    +0.210 HD
ENDBRANCH   5  11
BRANCH   3  13
ATOM     13  O   UNL     1       9.309  -2.408  23.494  0.00  0.00    -0.453 OA
BRANCH  13  14
ATOM     14  C   UNL     1       8.551  -1.243  23.311  0.00  0.00    +0.214 A 
ATOM     15  C   UNL     1       9.162   0.115  23.526  0.00  0.00    +0.238 A 
ATOM     16  O   UNL     1      10.288   0.237  23.994  0.00  0.00    -0.283 OA
ATOM     17  C   UNL     1       8.361   1.293  23.174  0.00  0.00    +0.109 A 
ATOM     18  C   UNL     1       7.020   1.090  22.862  0.00  0.00    +0.147 A 
ATOM     19  C   UNL     1       6.182   2.193  22.639  0.00  0.00    +0.092 A 
ATOM     20  C   UNL     1       6.702   3.481  22.729  0.00  0.00    +0.124 A 
ATOM     21  C   UNL     1       8.048   3.693  22.997  0.00  0.00    +0.091 A 
ATOM     22  O   UNL     1       6.456  -0.158  22.765  0.00  0.00    -0.451 OA
ATOM     23  C   UNL     1       8.883   2.600  23.204  0.00  0.00    +0.135 A 
ATOM     24  C   UNL     1       7.244  -1.289  22.969  0.00  0.00    +0.181 A 
BRANCH  24  25
ATOM     25  C   UNL     1       6.499  -2.570  22.752  0.00  0.00    +0.025 A 
ATOM     26  C   UNL     1       7.004  -3.547  21.868  0.00  0.00    +0.015 A 
ATOM     27  C   UNL     1       6.338  -4.769  21.674  0.00  0.00    +0.050 A 
ATOM     28  C   UNL     1       5.165  -5.020  22.365  0.00  0.00    +0.158 A 
ATOM     29  C   UNL     1       4.632  -4.062  23.216  0.00  0.00    +0.159 A 
ATOM     30  C   UNL     1       5.275  -2.839  23.394  0.00  0.00    +0.060 A 
BRANCH  29  31
ATOM     31  O   UNL     1       3.472  -4.367  23.874  0.00  0.00    -0.503 OA
ATOM     32  H   UNL     1       3.324  -5.327  23.798  0.00  0.00    +0.292 HD
ENDBRANCH  29  31
BRANCH  28  33
ATOM     33  O   UNL     1       4.534  -6.220  22.213  0.00  0.00    -0.503 OA
ATOM     34  H   UNL     1       5.235  -6.886  22.357  0.00  0.00    +0.292 HD
ENDBRANCH  28  33
ENDBRANCH  24  25
BRANCH  23  35
ATOM     35  O   UNL     1      10.214   2.824  23.414  0.00  0.00    -0.506 OA
ATOM     36  H   UNL     1      10.744   2.250  22.837  0.00  0.00    +0.292 HD
ENDBRANCH  23  35
BRANCH  20  37
ATOM     37  O   UNL     1       5.924   4.583  22.554  0.00  0.00    -0.507 OA
ATOM     38  H   UNL     1       5.280   4.412  21.846  0.00  0.00    +0.292 HD
ENDBRANCH  20  37
ENDBRANCH  13  14
ENDBRANCH   3  13
BRANCH   1  39
ATOM     39  C   UNL     1       6.662  -3.381  26.444  0.00  0.00    +0.197 C 
BRANCH  39  40
ATOM     40  O   UNL     1       5.753  -3.389  27.536  0.00  0.00    -0.345 OA
BRANCH  40  43
ATOM     41  C   UNL     1       4.741  -6.598  26.172  0.00  0.00    +0.197 C 
ATOM     42  O   UNL     1       5.333  -5.311  26.271  0.00  0.00    -0.345 OA
ATOM     43  C   UNL     1       5.039  -4.643  27.505  0.00  0.00    +0.294 C 
ATOM     44  C   UNL     1       3.526  -4.436  27.693  0.00  0.00    +0.263 C 
ATOM     45  C   UNL     1       2.825  -5.796  27.556  0.00  0.00    +0.191 C 
ATOM     46  C   UNL     1       3.222  -6.503  26.253  0.00  0.00    +0.172 C 
BRANCH  46  47
ATOM     47  O   UNL     1       2.609  -7.796  26.206  0.00  0.00    -0.387 OA
ATOM     48  H   UNL     1       2.551  -8.084  25.278  0.00  0.00    +0.210 HD
ENDBRANCH  46  47
BRANCH  45  49
ATOM     49  O   UNL     1       1.402  -5.661  27.623  0.00  0.00    -0.385 OA
ATOM     50  H   UNL     1       1.208  -5.207  28.466  0.00  0.00    +0.210 HD
ENDBRANCH  45  49
BRANCH  44  51
ATOM     51  O   UNL     1       3.041  -3.543  26.669  0.00  0.00    -0.450 OA
BRANCH  51  52
ATOM     52  C   UNL     1       2.308  -2.496  27.114  0.00  0.00    +0.332 C 
ATOM     53  O   UNL     1       1.110  -2.474  27.347  0.00  0.00    -0.246 OA
BRANCH  52  54
ATOM     54  C   UNL     1       3.214  -1.340  27.248  0.00  0.00    +0.092 C 
ATOM     55  C   UNL     1       3.879  -0.896  26.171  0.00  0.00    +0.015 C 
BRANCH  55  56
ATOM     56  C   UNL     1       4.913   0.146  26.220  0.00  0.00    -0.021 A 
ATOM     57  C   UNL     1       4.614   1.517  26.143  0.00  0.00    +0.012 A 
ATOM     58  C   UNL     1       5.620   2.475  26.291  0.00  0.00    +0.050 A 
ATOM     59  C   UNL     1       6.925   2.060  26.502  0.00  0.00    +0.158 A 
ATOM     60  C   UNL     1       7.244   0.707  26.528  0.00  0.00    +0.159 A 
ATOM     61  C   UNL     1       6.250  -0.254  26.376  0.00  0.00    +0.057 A 
BRANCH  60  62
ATOM     62  O   UNL     1       8.553   0.365  26.730  0.00  0.00    -0.503 OA
ATOM     63  H   UNL     1       8.793  -0.313  26.075  0.00  0.00    +0.292 HD
ENDBRANCH  60  62
BRANCH  59  64
ATOM     64  O   UNL     1       7.899   2.995  26.699  0.00  0.00    -0.503 OA
ATOM     65  H   UNL     1       7.521   3.821  26.334  0.00  0.00    +0.292 HD
ENDBRANCH  59  64
ENDBRANCH  55  56
ENDBRANCH  52  54
ENDBRANCH  51  52
ENDBRANCH  44  51
ENDBRANCH  40  43
ENDBRANCH  39  40
ENDBRANCH   1  39
TORSDOF 21
ENDMDL
MODEL 4
REMARK VINA RESULT:      -7.4      2.556      6.335
REMARK  Name = 
REMARK  21 active torsions:
REMARK  status: ('A' for Active; 'I' for Inactive)
REMARK    1  A    between atoms: C_2  and  O_59
REMARK    2  A    between atoms: C_3  and  O_58
REMARK    3  A    between atoms: C_5  and  O_45
REMARK    4  A    between atoms: C_6  and  O_9
REMARK    5  A    between atoms: O_9  and  C_10
REMARK    6  A    between atoms: C_10  and  C_11
REMARK    7  A    between atoms: C_12  and  O_44
REMARK    8  A    between atoms: C_14  and  O_43
REMARK    9  A    between atoms: C_16  and  O_42
REMARK   10  A    between atoms: C_17  and  O_20
REMARK   11  A    between atoms: O_20  and  C_21
REMARK   12  A    between atoms: C_22  and  C_34
REMARK   13  A    between atoms: C_26  and  O_33
REMARK   14  A    between atoms: C_28  and  O_32
REMARK   15  A    between atoms: C_36  and  O_41
REMARK   16  A    between atoms: C_37  and  O_40
REMARK   17  A    between atoms: O_45  and  C_46
REMARK   18  A    between atoms: C_46  and  C_48
REMARK   19  A    between atoms: C_49  and  C_50
REMARK   20  A    between atoms: C_52  and  O_57
REMARK   21  A    between atoms: C_53  and  O_56
REMARK                            x       y       z     vdW  Elec       q    Type
REMARK                         _______ _______ _______ _____ _____    ______ ____
ROOT
ATOM      1  C   UNL     1       6.906   2.382  26.225  0.00  0.00    +0.179 C 
ATOM      2  O   UNL     1       7.946   1.363  26.245  0.00  0.00    -0.331 OA
ATOM      3  C   UNL     1       7.421   0.091  26.702  0.00  0.00    +0.340 C 
ATOM      4  C   UNL     1       7.095   0.221  28.204  0.00  0.00    +0.214 C 
ATOM      5  C   UNL     1       6.000   1.298  28.342  0.00  0.00    +0.180 C 
ATOM      6  C   UNL     1       6.407   2.614  27.667  0.00  0.00    +0.177 C 
ENDROOT
BRANCH   4   7
ATOM      7  O   UNL     1       8.282   0.591  28.938  0.00  0.00    -0.383 OA
ATOM      8  H   UNL     1       8.039   1.330  29.523  0.00  0.00    +0.210 HD
ENDBRANCH   4   7
BRANCH   6   9
ATOM      9  O   UNL     1       5.318   3.535  27.759  0.00  0.00    -0.386 OA
ATOM     10  H   UNL     1       4.861   3.552  26.897  0.00  0.00    +0.210 HD
ENDBRANCH   6   9
BRANCH   5  11
ATOM     11  O   UNL     1       5.681   1.551  29.714  0.00  0.00    -0.386 OA
ATOM     12  H   UNL     1       5.745   0.682  30.159  0.00  0.00    +0.210 HD
ENDBRANCH   5  11
BRANCH   3  13
ATOM     13  O   UNL     1       8.331  -0.978  26.434  0.00  0.00    -0.453 OA
BRANCH  13  14
ATOM     14  C   UNL     1       7.933  -1.860  25.421  0.00  0.00    +0.214 A 
ATOM     15  C   UNL     1       7.243  -3.155  25.753  0.00  0.00    +0.238 A 
ATOM     16  O   UNL     1       7.131  -3.535  26.914  0.00  0.00    -0.283 OA
ATOM     17  C   UNL     1       6.720  -3.961  24.644  0.00  0.00    +0.109 A 
ATOM     18  C   UNL     1       7.076  -3.586  23.353  0.00  0.00    +0.147 A 
ATOM     19  C   UNL     1       6.706  -4.393  22.266  0.00  0.00    +0.092 A 
ATOM     20  C   UNL     1       5.983  -5.560  22.492  0.00  0.00    +0.124 A 
ATOM     21  C   UNL     1       5.585  -5.921  23.772  0.00  0.00    +0.091 A 
ATOM     22  O   UNL     1       7.792  -2.448  23.075  0.00  0.00    -0.451 OA
ATOM     23  C   UNL     1       5.940  -5.114  24.848  0.00  0.00    +0.135 A 
ATOM     24  C   UNL     1       8.180  -1.606  24.116  0.00  0.00    +0.181 A 
BRANCH  24  25
ATOM     25  C   UNL     1       8.883  -0.372  23.641  0.00  0.00    +0.025 A 
ATOM     26  C   UNL     1      10.212  -0.113  24.037  0.00  0.00    +0.015 A 
ATOM     27  C   UNL     1      10.903   1.022  23.577  0.00  0.00    +0.050 A 
ATOM     28  C   UNL     1      10.266   1.900  22.717  0.00  0.00    +0.158 A 
ATOM     29  C   UNL     1       8.950   1.683  22.339  0.00  0.00    +0.159 A 
ATOM     30  C   UNL     1       8.253   0.574  22.810  0.00  0.00    +0.060 A 
BRANCH  29  31
ATOM     31  O   UNL     1       8.374   2.585  21.485  0.00  0.00    -0.503 OA
ATOM     32  H   UNL     1       7.837   3.203  22.014  0.00  0.00    +0.292 HD
ENDBRANCH  29  31
BRANCH  28  33
ATOM     33  O   UNL     1      10.943   2.983  22.235  0.00  0.00    -0.503 OA
ATOM     34  H   UNL     1      11.297   3.426  23.032  0.00  0.00    +0.292 HD
ENDBRANCH  28  33
ENDBRANCH  24  25
BRANCH  23  35
ATOM     35  O   UNL     1       5.496  -5.455  26.095  0.00  0.00    -0.506 OA
ATOM     36  H   UNL     1       4.825  -4.821  26.395  0.00  0.00    +0.292 HD
ENDBRANCH  23  35
BRANCH  20  37
ATOM     37  O   UNL     1       5.628  -6.392  21.475  0.00  0.00    -0.507 OA
ATOM     38  H   UNL     1       5.094  -7.122  21.829  0.00  0.00    +0.292 HD
ENDBRANCH  20  37
ENDBRANCH  13  14
ENDBRANCH   3  13
BRANCH   1  39
ATOM     39  C   UNL     1       5.833   1.996  25.182  0.00  0.00    +0.197 C 
BRANCH  39  40
ATOM     40  O   UNL     1       5.828   2.720  23.959  0.00  0.00    -0.345 OA
BRANCH  40  43
ATOM     41  C   UNL     1       3.056   3.587  21.780  0.00  0.00    +0.197 C 
ATOM     42  O   UNL     1       4.382   3.358  22.235  0.00  0.00    -0.345 OA
ATOM     43  C   UNL     1       4.455   3.010  23.624  0.00  0.00    +0.294 C 
ATOM     44  C   UNL     1       3.879   4.122  24.519  0.00  0.00    +0.263 C 
ATOM     45  C   UNL     1       2.452   4.441  24.046  0.00  0.00    +0.191 C 
ATOM     46  C   UNL     1       2.414   4.740  22.541  0.00  0.00    +0.172 C 
BRANCH  46  47
ATOM     47  O   UNL     1       1.059   4.954  22.132  0.00  0.00    -0.387 OA
ATOM     48  H   UNL     1       0.504   4.238  22.489  0.00  0.00    +0.210 HD
ENDBRANCH  46  47
BRANCH  45  49
ATOM     49  O   UNL     1       1.892   5.537  24.775  0.00  0.00    -0.385 OA
ATOM     50  H   UNL     1       1.336   5.145  25.478  0.00  0.00    +0.210 HD
ENDBRANCH  45  49
BRANCH  44  51
ATOM     51  O   UNL     1       4.699   5.301  24.393  0.00  0.00    -0.450 OA
BRANCH  51  52
ATOM     52  C   UNL     1       4.962   5.949  25.552  0.00  0.00    +0.332 C 
ATOM     53  O   UNL     1       4.213   6.106  26.502  0.00  0.00    -0.246 OA
BRANCH  52  54
ATOM     54  C   UNL     1       6.337   6.477  25.467  0.00  0.00    +0.092 C 
ATOM     55  C   UNL     1       7.294   5.733  24.893  0.00  0.00    +0.015 C 
BRANCH  55  56
ATOM     56  C   UNL     1       8.718   6.094  24.887  0.00  0.00    -0.021 A 
ATOM     57  C   UNL     1       9.340   6.751  25.962  0.00  0.00    +0.012 A 
ATOM     58  C   UNL     1      10.717   6.989  25.951  0.00  0.00    +0.050 A 
ATOM     59  C   UNL     1      11.466   6.581  24.860  0.00  0.00    +0.158 A 
ATOM     60  C   UNL     1      10.857   5.977  23.766  0.00  0.00    +0.159 A 
ATOM     61  C   UNL     1       9.485   5.742  23.764  0.00  0.00    +0.057 A 
BRANCH  60  62
ATOM     62  O   UNL     1      11.652   5.608  22.716  0.00  0.00    -0.503 OA
ATOM     63  H   UNL     1      11.114   5.633  21.906  0.00  0.00    +0.292 HD
ENDBRANCH  60  62
BRANCH  59  64
ATOM     64  O   UNL     1      12.818   6.766  24.872  0.00  0.00    -0.503 OA
ATOM     65  H   UNL     1      13.032   6.936  25.812  0.00  0.00    +0.292 HD
ENDBRANCH  59  64
ENDBRANCH  55  56
ENDBRANCH  52  54
ENDBRANCH  51  52
ENDBRANCH  44  51
ENDBRANCH  40  43
ENDBRANCH  39  40
ENDBRANCH   1  39
TORSDOF 21
ENDMDL
MODEL 5
REMARK VINA RESULT:      -7.4      2.464      6.637
REMARK  Name = 
REMARK  21 active torsions:
REMARK  status: ('A' for Active; 'I' for Inactive)
REMARK    1  A    between atoms: C_2  and  O_59
REMARK    2  A    between atoms: C_3  and  O_58
REMARK    3  A    between atoms: C_5  and  O_45
REMARK    4  A    between atoms: C_6  and  O_9
REMARK    5  A    between atoms: O_9  and  C_10
REMARK    6  A    between atoms: C_10  and  C_11
REMARK    7  A    between atoms: C_12  and  O_44
REMARK    8  A    between atoms: C_14  and  O_43
REMARK    9  A    between atoms: C_16  and  O_42
REMARK   10  A    between atoms: C_17  and  O_20
REMARK   11  A    between atoms: O_20  and  C_21
REMARK   12  A    between atoms: C_22  and  C_34
REMARK   13  A    between atoms: C_26  and  O_33
REMARK   14  A    between atoms: C_28  and  O_32
REMARK   15  A    between atoms: C_36  and  O_41
REMARK   16  A    between atoms: C_37  and  O_40
REMARK   17  A    between atoms: O_45  and  C_46
REMARK   18  A    between atoms: C_46  and  C_48
REMARK   19  A    between atoms: C_49  and  C_50
REMARK   20  A    between atoms: C_52  and  O_57
REMARK   21  A    between atoms: C_53  and  O_56
REMARK                            x       y       z     vdW  Elec       q    Type
REMARK                         _______ _______ _______ _____ _____    ______ ____
ROOT
ATOM      1  C   UNL     1       6.858   1.339  22.610  0.00  0.00    +0.179 C 
ATOM      2  O   UNL     1       7.268  -0.007  22.984  0.00  0.00    -0.331 OA
ATOM      3  C   UNL     1       8.471   0.020  23.793  0.00  0.00    +0.340 C 
ATOM      4  C   UNL     1       9.645   0.455  22.890  0.00  0.00    +0.214 C 
ATOM      5  C   UNL     1       9.335   1.883  22.397  0.00  0.00    +0.180 C 
ATOM      6  C   UNL     1       7.957   1.969  21.729  0.00  0.00    +0.177 C 
ENDROOT
BRANCH   4   7
ATOM      7  O   UNL     1       9.780  -0.459  21.782  0.00  0.00    -0.383 OA
ATOM      8  H   UNL     1      10.479  -0.106  21.203  0.00  0.00    +0.210 HD
ENDBRANCH   4   7
BRANCH   6   9
ATOM      9  O   UNL     1       7.702   3.329  21.373  0.00  0.00    -0.386 OA
ATOM     10  H   UNL     1       8.497   3.854  21.586  0.00  0.00    +0.210 HD
ENDBRANCH   6   9
BRANCH   5  11
ATOM     11  O   UNL     1      10.333   2.350  21.483  0.00  0.00    -0.386 OA
ATOM     12  H   UNL     1      10.471   1.615  20.853  0.00  0.00    +0.210 HD
ENDBRANCH   5  11
BRANCH   3  13
ATOM     13  O   UNL     1       8.709  -1.240  24.423  0.00  0.00    -0.453 OA
BRANCH  13  14
ATOM     14  C   UNL     1       7.646  -2.150  24.358  0.00  0.00    +0.214 A 
ATOM     15  C   UNL     1       7.623  -3.236  23.318  0.00  0.00    +0.238 A 
ATOM     16  O   UNL     1       8.457  -3.272  22.420  0.00  0.00    -0.283 OA
ATOM     17  C   UNL     1       6.559  -4.244  23.398  0.00  0.00    +0.109 A 
ATOM     18  C   UNL     1       5.524  -4.017  24.298  0.00  0.00    +0.147 A 
ATOM     19  C   UNL     1       4.422  -4.886  24.327  0.00  0.00    +0.092 A 
ATOM     20  C   UNL     1       4.378  -5.968  23.454  0.00  0.00    +0.124 A 
ATOM     21  C   UNL     1       5.426  -6.229  22.581  0.00  0.00    +0.091 A 
ATOM     22  O   UNL     1       5.515  -2.962  25.177  0.00  0.00    -0.451 OA
ATOM     23  C   UNL     1       6.525  -5.376  22.562  0.00  0.00    +0.135 A 
ATOM     24  C   UNL     1       6.588  -2.073  25.198  0.00  0.00    +0.181 A 
BRANCH  24  25
ATOM     25  C   UNL     1       6.463  -1.027  26.262  0.00  0.00    +0.025 A 
ATOM     26  C   UNL     1       5.247  -0.336  26.443  0.00  0.00    +0.015 A 
ATOM     27  C   UNL     1       5.097   0.626  27.457  0.00  0.00    +0.050 A 
ATOM     28  C   UNL     1       6.164   0.899  28.295  0.00  0.00    +0.158 A 
ATOM     29  C   UNL     1       7.380   0.255  28.118  0.00  0.00    +0.159 A 
ATOM     30  C   UNL     1       7.541  -0.682  27.100  0.00  0.00    +0.060 A 
BRANCH  29  31
ATOM     31  O   UNL     1       8.398   0.564  28.979  0.00  0.00    -0.503 OA
ATOM     32  H   UNL     1       9.230   0.573  28.472  0.00  0.00    +0.292 HD
ENDBRANCH  29  31
BRANCH  28  33
ATOM     33  O   UNL     1       6.014   1.802  29.307  0.00  0.00    -0.503 OA
ATOM     34  H   UNL     1       5.107   2.149  29.194  0.00  0.00    +0.292 HD
ENDBRANCH  28  33
ENDBRANCH  24  25
BRANCH  23  35
ATOM     35  O   UNL     1       7.571  -5.676  21.735  0.00  0.00    -0.506 OA
ATOM     36  H   UNL     1       7.307  -6.360  21.099  0.00  0.00    +0.292 HD
ENDBRANCH  23  35
BRANCH  20  37
ATOM     37  O   UNL     1       3.318  -6.820  23.420  0.00  0.00    -0.507 OA
ATOM     38  H   UNL     1       3.205  -7.228  24.295  0.00  0.00    +0.292 HD
ENDBRANCH  20  37
ENDBRANCH  13  14
ENDBRANCH   3  13
BRANCH   1  39
ATOM     39  C   UNL     1       6.466   2.125  23.882  0.00  0.00    +0.197 C 
BRANCH  39  40
ATOM     40  O   UNL     1       6.238   3.521  23.737  0.00  0.00    -0.345 OA
BRANCH  40  43
ATOM     41  C   UNL     1       3.059   5.169  23.140  0.00  0.00    +0.197 C 
ATOM     42  O   UNL     1       4.453   4.896  23.114  0.00  0.00    -0.345 OA
ATOM     43  C   UNL     1       4.824   3.756  23.900  0.00  0.00    +0.294 C 
ATOM     44  C   UNL     1       4.448   3.939  25.381  0.00  0.00    +0.263 C 
ATOM     45  C   UNL     1       2.952   4.276  25.468  0.00  0.00    +0.191 C 
ATOM     46  C   UNL     1       2.590   5.459  24.561  0.00  0.00    +0.172 C 
BRANCH  46  47
ATOM     47  O   UNL     1       1.177   5.687  24.614  0.00  0.00    -0.387 OA
ATOM     48  H   UNL     1       0.716   4.835  24.525  0.00  0.00    +0.210 HD
ENDBRANCH  46  47
BRANCH  45  49
ATOM     49  O   UNL     1       2.556   4.556  26.814  0.00  0.00    -0.385 OA
ATOM     50  H   UNL     1       2.270   5.491  26.829  0.00  0.00    +0.210 HD
ENDBRANCH  45  49
BRANCH  44  51
ATOM     51  O   UNL     1       5.217   5.028  25.931  0.00  0.00    -0.450 OA
BRANCH  51  52
ATOM     52  C   UNL     1       5.908   4.737  27.058  0.00  0.00    +0.332 C 
ATOM     53  O   UNL     1       5.459   4.358  28.128  0.00  0.00    -0.246 OA
BRANCH  52  54
ATOM     54  C   UNL     1       7.335   4.988  26.786  0.00  0.00    +0.092 C 
ATOM     55  C   UNL     1       7.679   5.823  25.793  0.00  0.00    +0.015 C 
BRANCH  55  56
ATOM     56  C   UNL     1       9.061   6.030  25.341  0.00  0.00    -0.021 A 
ATOM     57  C   UNL     1       9.943   6.922  25.975  0.00  0.00    +0.012 A 
ATOM     58  C   UNL     1      11.277   7.014  25.568  0.00  0.00    +0.050 A 
ATOM     59  C   UNL     1      11.722   6.225  24.520  0.00  0.00    +0.158 A 
ATOM     60  C   UNL     1      10.848   5.377  23.849  0.00  0.00    +0.159 A 
ATOM     61  C   UNL     1       9.517   5.283  24.242  0.00  0.00    +0.057 A 
BRANCH  60  62
ATOM     62  O   UNL     1      11.349   4.633  22.817  0.00  0.00    -0.503 OA
ATOM     63  H   UNL     1      10.917   4.925  21.996  0.00  0.00    +0.292 HD
ENDBRANCH  60  62
BRANCH  59  64
ATOM     64  O   UNL     1      13.036   6.277  24.158  0.00  0.00    -0.503 OA
ATOM     65  H   UNL     1      13.302   5.338  24.072  0.00  0.00    +0.292 HD
ENDBRANCH  59  64
ENDBRANCH  55  56
ENDBRANCH  52  54
ENDBRANCH  51  52
ENDBRANCH  44  51
ENDBRANCH  40  43
ENDBRANCH  39  40
ENDBRANCH   1  39
TORSDOF 21
ENDMDL
MODEL 6
REMARK VINA RESULT:      -7.3      2.090      7.992
REMARK  Name = 
REMARK  21 active torsions:
REMARK  status: ('A' for Active; 'I' for Inactive)
REMARK    1  A    between atoms: C_2  and  O_59
REMARK    2  A    between atoms: C_3  and  O_58
REMARK    3  A    between atoms: C_5  and  O_45
REMARK    4  A    between atoms: C_6  and  O_9
REMARK    5  A    between atoms: O_9  and  C_10
REMARK    6  A    between atoms: C_10  and  C_11
REMARK    7  A    between atoms: C_12  and  O_44
REMARK    8  A    between atoms: C_14  and  O_43
REMARK    9  A    between atoms: C_16  and  O_42
REMARK   10  A    between atoms: C_17  and  O_20
REMARK   11  A    between atoms: O_20  and  C_21
REMARK   12  A    between atoms: C_22  and  C_34
REMARK   13  A    between atoms: C_26  and  O_33
REMARK   14  A    between atoms: C_28  and  O_32
REMARK   15  A    between atoms: C_36  and  O_41
REMARK   16  A    between atoms: C_37  and  O_40
REMARK   17  A    between atoms: O_45  and  C_46
REMARK   18  A    between atoms: C_46  and  C_48
REMARK   19  A    between atoms: C_49  and  C_50
REMARK   20  A    between atoms: C_52  and  O_57
REMARK   21  A    between atoms: C_53  and  O_56
REMARK                            x       y       z     vdW  Elec       q    Type
REMARK                         _______ _______ _______ _____ _____    ______ ____
ROOT
ATOM      1  C   UNL     1       5.506   0.494  26.848  0.00  0.00    +0.179 C 
ATOM      2  O   UNL     1       5.781  -0.645  27.712  0.00  0.00    -0.331 OA
ATOM      3  C   UNL     1       4.794  -1.690  27.526  0.00  0.00    +0.340 C 
ATOM      4  C   UNL     1       3.453  -1.190  28.102  0.00  0.00    +0.214 C 
ATOM      5  C   UNL     1       3.038   0.048  27.281  0.00  0.00    +0.180 C 
ATOM      6  C   UNL     1       4.148   1.107  27.248  0.00  0.00    +0.177 C 
ENDROOT
BRANCH   4   7
ATOM      7  O   UNL     1       3.607  -0.858  29.499  0.00  0.00    -0.383 OA
ATOM      8  H   UNL     1       2.715  -0.709  29.858  0.00  0.00    +0.210 HD
ENDBRANCH   4   7
BRANCH   6   9
ATOM      9  O   UNL     1       3.731   2.184  26.405  0.00  0.00    -0.386 OA
ATOM     10  H   UNL     1       4.317   2.203  25.624  0.00  0.00    +0.210 HD
ENDBRANCH   6   9
BRANCH   5  11
ATOM     11  O   UNL     1       1.838   0.638  27.790  0.00  0.00    -0.386 OA
ATOM     12  H   UNL     1       2.056   1.580  27.939  0.00  0.00    +0.210 HD
ENDBRANCH   5  11
BRANCH   3  13
ATOM     13  O   UNL     1       5.214  -2.920  28.121  0.00  0.00    -0.453 OA
BRANCH  13  14
ATOM     14  C   UNL     1       4.585  -4.069  27.624  0.00  0.00    +0.214 A 
ATOM     15  C   UNL     1       3.225  -4.478  28.119  0.00  0.00    +0.238 A 
ATOM     16  O   UNL     1       2.692  -3.899  29.060  0.00  0.00    -0.283 OA
ATOM     17  C   UNL     1       2.558  -5.603  27.453  0.00  0.00    +0.109 A 
ATOM     18  C   UNL     1       3.307  -6.351  26.550  0.00  0.00    +0.147 A 
ATOM     19  C   UNL     1       2.757  -7.508  25.979  0.00  0.00    +0.092 A 
ATOM     20  C   UNL     1       1.465  -7.896  26.321  0.00  0.00    +0.124 A 
ATOM     21  C   UNL     1       0.693  -7.133  27.188  0.00  0.00    +0.091 A 
ATOM     22  O   UNL     1       4.587  -6.016  26.182  0.00  0.00    -0.451 OA
ATOM     23  C   UNL     1       1.233  -5.978  27.743  0.00  0.00    +0.135 A 
ATOM     24  C   UNL     1       5.180  -4.871  26.712  0.00  0.00    +0.181 A 
BRANCH  24  25
ATOM     25  C   UNL     1       6.543  -4.604  26.152  0.00  0.00    +0.025 A 
ATOM     26  C   UNL     1       7.315  -5.659  25.624  0.00  0.00    +0.015 A 
ATOM     27  C   UNL     1       8.583  -5.426  25.064  0.00  0.00    +0.050 A 
ATOM     28  C   UNL     1       9.083  -4.136  25.030  0.00  0.00    +0.158 A 
ATOM     29  C   UNL     1       8.355  -3.086  25.572  0.00  0.00    +0.159 A 
ATOM     30  C   UNL     1       7.108  -3.315  26.148  0.00  0.00    +0.060 A 
BRANCH  29  31
ATOM     31  O   UNL     1       8.899  -1.832  25.507  0.00  0.00    -0.503 OA
ATOM     32  H   UNL     1       9.869  -1.922  25.520  0.00  0.00    +0.292 HD
ENDBRANCH  29  31
BRANCH  28  33
ATOM     33  O   UNL     1      10.296  -3.896  24.452  0.00  0.00    -0.503 OA
ATOM     34  H   UNL     1      10.569  -4.760  24.085  0.00  0.00    +0.292 HD
ENDBRANCH  28  33
ENDBRANCH  24  25
BRANCH  23  35
ATOM     35  O   UNL     1       0.443  -5.210  28.553  0.00  0.00    -0.506 OA
ATOM     36  H   UNL     1       0.882  -5.068  29.407  0.00  0.00    +0.292 HD
ENDBRANCH  23  35
BRANCH  20  37
ATOM     37  O   UNL     1       0.899  -9.027  25.821  0.00  0.00    -0.507 OA
ATOM     38  H   UNL     1       1.542  -9.753  25.860  0.00  0.00    +0.292 HD
ENDBRANCH  20  37
ENDBRANCH  13  14
ENDBRANCH   3  13
BRANCH   1  39
ATOM     39  C   UNL     1       5.656   0.063  25.371  0.00  0.00    +0.197 C 
BRANCH  39  40
ATOM     40  O   UNL     1       6.977  -0.030  24.854  0.00  0.00    -0.345 OA
BRANCH  40  43
ATOM     41  C   UNL     1       6.446   3.190  23.263  0.00  0.00    +0.197 C 
ATOM     42  O   UNL     1       6.210   1.865  23.720  0.00  0.00    -0.345 OA
ATOM     43  C   UNL     1       7.349   1.273  24.359  0.00  0.00    +0.294 C 
ATOM     44  C   UNL     1       8.556   1.192  23.408  0.00  0.00    +0.263 C 
ATOM     45  C   UNL     1       8.835   2.596  22.850  0.00  0.00    +0.191 C 
ATOM     46  C   UNL     1       7.572   3.217  22.237  0.00  0.00    +0.172 C 
BRANCH  46  47
ATOM     47  O   UNL     1       7.859   4.550  21.803  0.00  0.00    -0.387 OA
ATOM     48  H   UNL     1       7.448   5.179  22.421  0.00  0.00    +0.210 HD
ENDBRANCH  46  47
BRANCH  45  49
ATOM     49  O   UNL     1       9.887   2.575  21.881  0.00  0.00    -0.385 OA
ATOM     50  H   UNL     1      10.503   1.869  22.158  0.00  0.00    +0.210 HD
ENDBRANCH  45  49
BRANCH  44  51
ATOM     51  O   UNL     1       8.241   0.299  22.320  0.00  0.00    -0.450 OA
BRANCH  51  52
ATOM     52  C   UNL     1       9.179  -0.639  22.051  0.00  0.00    +0.332 C 
ATOM     53  O   UNL     1      10.370  -0.463  21.854  0.00  0.00    -0.246 OA
BRANCH  52  54
ATOM     54  C   UNL     1       8.502  -1.949  22.004  0.00  0.00    +0.092 C 
ATOM     55  C   UNL     1       7.178  -2.013  22.216  0.00  0.00    +0.015 C 
BRANCH  55  56
ATOM     56  C   UNL     1       6.431  -3.272  22.339  0.00  0.00    -0.021 A 
ATOM     57  C   UNL     1       6.946  -4.507  21.910  0.00  0.00    +0.012 A 
ATOM     58  C   UNL     1       6.238  -5.691  22.135  0.00  0.00    +0.050 A 
ATOM     59  C   UNL     1       5.011  -5.635  22.775  0.00  0.00    +0.158 A 
ATOM     60  C   UNL     1       4.465  -4.416  23.159  0.00  0.00    +0.159 A 
ATOM     61  C   UNL     1       5.159  -3.231  22.934  0.00  0.00    +0.057 A 
BRANCH  60  62
ATOM     62  O   UNL     1       3.245  -4.430  23.778  0.00  0.00    -0.503 OA
ATOM     63  H   UNL     1       3.066  -3.534  24.112  0.00  0.00    +0.292 HD
ENDBRANCH  60  62
BRANCH  59  64
ATOM     64  O   UNL     1       4.345  -6.796  23.042  0.00  0.00    -0.503 OA
ATOM     65  H   UNL     1       4.704  -7.090  23.904  0.00  0.00    +0.292 HD
ENDBRANCH  59  64
ENDBRANCH  55  56
ENDBRANCH  52  54
ENDBRANCH  51  52
ENDBRANCH  44  51
ENDBRANCH  40  43
ENDBRANCH  39  40
ENDBRANCH   1  39
TORSDOF 21
ENDMDL
MODEL 7
REMARK VINA RESULT:      -7.2      1.978      6.285
REMARK  Name = 
REMARK  21 active torsions:
REMARK  status: ('A' for Active; 'I' for Inactive)
REMARK    1  A    between atoms: C_2  and  O_59
REMARK    2  A    between atoms: C_3  and  O_58
REMARK    3  A    between atoms: C_5  and  O_45
REMARK    4  A    between atoms: C_6  and  O_9
REMARK    5  A    between atoms: O_9  and  C_10
REMARK    6  A    between atoms: C_10  and  C_11
REMARK    7  A    between atoms: C_12  and  O_44
REMARK    8  A    between atoms: C_14  and  O_43
REMARK    9  A    between atoms: C_16  and  O_42
REMARK   10  A    between atoms: C_17  and  O_20
REMARK   11  A    between atoms: O_20  and  C_21
REMARK   12  A    between atoms: C_22  and  C_34
REMARK   13  A    between atoms: C_26  and  O_33
REMARK   14  A    between atoms: C_28  and  O_32
REMARK   15  A    between atoms: C_36  and  O_41
REMARK   16  A    between atoms: C_37  and  O_40
REMARK   17  A    between atoms: O_45  and  C_46
REMARK   18  A    between atoms: C_46  and  C_48
REMARK   19  A    between atoms: C_49  and  C_50
REMARK   20  A    between atoms: C_52  and  O_57
REMARK   21  A    between atoms: C_53  and  O_56
REMARK                            x       y       z     vdW  Elec       q    Type
REMARK                         _______ _______ _______ _____ _____    ______ ____
ROOT
ATOM      1  C   UNL     1       3.240  -4.517  23.641  0.00  0.00    +0.179 C 
ATOM      2  O   UNL     1       2.408  -4.050  24.740  0.00  0.00    -0.331 OA
ATOM      3  C   UNL     1       2.695  -4.781  25.959  0.00  0.00    +0.340 C 
ATOM      4  C   UNL     1       2.181  -6.225  25.783  0.00  0.00    +0.214 C 
ATOM      5  C   UNL     1       2.975  -6.852  24.619  0.00  0.00    +0.180 C 
ATOM      6  C   UNL     1       2.898  -5.994  23.350  0.00  0.00    +0.177 C 
ENDROOT
BRANCH   4   7
ATOM      7  O   UNL     1       0.765  -6.215  25.501  0.00  0.00    -0.383 OA
ATOM      8  H   UNL     1       0.323  -6.677  26.235  0.00  0.00    +0.210 HD
ENDBRANCH   4   7
BRANCH   6   9
ATOM      9  O   UNL     1       3.720  -6.588  22.342  0.00  0.00    -0.386 OA
ATOM     10  H   UNL     1       4.210  -7.328  22.747  0.00  0.00    +0.210 HD
ENDBRANCH   6   9
BRANCH   5  11
ATOM     11  O   UNL     1       2.514  -8.175  24.323  0.00  0.00    -0.386 OA
ATOM     12  H   UNL     1       1.538  -8.113  24.312  0.00  0.00    +0.210 HD
ENDBRANCH   5  11
BRANCH   3  13
ATOM     13  O   UNL     1       2.127  -4.138  27.103  0.00  0.00    -0.453 OA
BRANCH  13  14
ATOM     14  C   UNL     1       2.723  -2.922  27.462  0.00  0.00    +0.214 A 
ATOM     15  C   UNL     1       2.062  -1.613  27.129  0.00  0.00    +0.238 A 
ATOM     16  O   UNL     1       1.061  -1.568  26.423  0.00  0.00    -0.283 OA
ATOM     17  C   UNL     1       2.661  -0.384  27.663  0.00  0.00    +0.109 A 
ATOM     18  C   UNL     1       3.912  -0.486  28.263  0.00  0.00    +0.147 A 
ATOM     19  C   UNL     1       4.582   0.674  28.679  0.00  0.00    +0.092 A 
ATOM     20  C   UNL     1       3.987   1.917  28.488  0.00  0.00    +0.124 A 
ATOM     21  C   UNL     1       2.721   2.028  27.929  0.00  0.00    +0.091 A 
ATOM     22  O   UNL     1       4.545  -1.686  28.472  0.00  0.00    -0.451 OA
ATOM     23  C   UNL     1       2.050   0.877  27.530  0.00  0.00    +0.135 A 
ATOM     24  C   UNL     1       3.922  -2.872  28.086  0.00  0.00    +0.181 A 
BRANCH  24  25
ATOM     25  C   UNL     1       4.706  -4.093  28.452  0.00  0.00    +0.025 A 
ATOM     26  C   UNL     1       4.296  -4.909  29.527  0.00  0.00    +0.015 A 
ATOM     27  C   UNL     1       4.999  -6.077  29.867  0.00  0.00    +0.050 A 
ATOM     28  C   UNL     1       6.115  -6.436  29.130  0.00  0.00    +0.158 A 
ATOM     29  C   UNL     1       6.556  -5.634  28.087  0.00  0.00    +0.159 A 
ATOM     30  C   UNL     1       5.877  -4.463  27.761  0.00  0.00    +0.060 A 
BRANCH  29  31
ATOM     31  O   UNL     1       7.663  -6.041  27.393  0.00  0.00    -0.503 OA
ATOM     32  H   UNL     1       7.713  -7.013  27.447  0.00  0.00    +0.292 HD
ENDBRANCH  29  31
BRANCH  28  33
ATOM     33  O   UNL     1       6.779  -7.590  29.428  0.00  0.00    -0.503 OA
ATOM     34  H   UNL     1       7.360  -7.352  30.178  0.00  0.00    +0.292 HD
ENDBRANCH  28  33
ENDBRANCH  24  25
BRANCH  23  35
ATOM     35  O   UNL     1       0.783   0.998  27.030  0.00  0.00    -0.506 OA
ATOM     36  H   UNL     1       0.764   0.719  26.100  0.00  0.00    +0.292 HD
ENDBRANCH  23  35
BRANCH  20  37
ATOM     37  O   UNL     1       4.610   3.073  28.843  0.00  0.00    -0.507 OA
ATOM     38  H   UNL     1       4.133   3.827  28.460  0.00  0.00    +0.292 HD
ENDBRANCH  20  37
ENDBRANCH  13  14
ENDBRANCH   3  13
BRANCH   1  39
ATOM     39  C   UNL     1       4.721  -4.205  23.953  0.00  0.00    +0.197 C 
BRANCH  39  40
ATOM     40  O   UNL     1       5.435  -3.431  22.998  0.00  0.00    -0.345 OA
BRANCH  40  43
ATOM     41  C   UNL     1       8.305  -5.325  24.163  0.00  0.00    +0.197 C 
ATOM     42  O   UNL     1       6.969  -4.860  24.034  0.00  0.00    -0.345 OA
ATOM     43  C   UNL     1       6.833  -3.768  23.115  0.00  0.00    +0.294 C 
ATOM     44  C   UNL     1       7.672  -2.553  23.548  0.00  0.00    +0.263 C 
ATOM     45  C   UNL     1       9.127  -3.007  23.741  0.00  0.00    +0.191 C 
ATOM     46  C   UNL     1       9.217  -4.219  24.679  0.00  0.00    +0.172 C 
BRANCH  46  47
ATOM     47  O   UNL     1      10.578  -4.654  24.767  0.00  0.00    -0.387 OA
ATOM     48  H   UNL     1      10.751  -5.297  24.057  0.00  0.00    +0.210 HD
ENDBRANCH  46  47
BRANCH  45  49
ATOM     49  O   UNL     1       9.946  -1.945  24.239  0.00  0.00    -0.385 OA
ATOM     50  H   UNL     1      10.817  -2.339  24.442  0.00  0.00    +0.210 HD
ENDBRANCH  45  49
BRANCH  44  51
ATOM     51  O   UNL     1       7.160  -2.046  24.797  0.00  0.00    -0.450 OA
BRANCH  51  52
ATOM     52  C   UNL     1       6.452  -0.895  24.708  0.00  0.00    +0.332 C 
ATOM     53  O   UNL     1       5.275  -0.724  24.979  0.00  0.00    -0.246 OA
BRANCH  52  54
ATOM     54  C   UNL     1       7.356   0.146  24.185  0.00  0.00    +0.092 C 
ATOM     55  C   UNL     1       7.995   0.955  25.044  0.00  0.00    +0.015 C 
BRANCH  55  56
ATOM     56  C   UNL     1       8.798   2.114  24.633  0.00  0.00    -0.021 A 
ATOM     57  C   UNL     1       9.993   1.991  23.904  0.00  0.00    +0.012 A 
ATOM     58  C   UNL     1      10.672   3.126  23.452  0.00  0.00    +0.050 A 
ATOM     59  C   UNL     1      10.162   4.381  23.743  0.00  0.00    +0.158 A 
ATOM     60  C   UNL     1       9.009   4.520  24.508  0.00  0.00    +0.159 A 
ATOM     61  C   UNL     1       8.329   3.396  24.967  0.00  0.00    +0.057 A 
BRANCH  60  62
ATOM     62  O   UNL     1       8.564   5.787  24.766  0.00  0.00    -0.503 OA
ATOM     63  H   UNL     1       8.257   5.817  25.689  0.00  0.00    +0.292 HD
ENDBRANCH  60  62
BRANCH  59  64
ATOM     64  O   UNL     1      10.796   5.487  23.257  0.00  0.00    -0.503 OA
ATOM     65  H   UNL     1      11.606   5.563  23.802  0.00  0.00    +0.292 HD
ENDBRANCH  59  64
ENDBRANCH  55  56
ENDBRANCH  52  54
ENDBRANCH  51  52
ENDBRANCH  44  51
ENDBRANCH  40  43
ENDBRANCH  39  40
ENDBRANCH   1  39
TORSDOF 21
ENDMDL
MODEL 8
REMARK VINA RESULT:      -7.1      2.330      5.839
REMARK  Name = 
REMARK  21 active torsions:
REMARK  status: ('A' for Active; 'I' for Inactive)
REMARK    1  A    between atoms: C_2  and  O_59
REMARK    2  A    between atoms: C_3  and  O_58
REMARK    3  A    between atoms: C_5  and  O_45
REMARK    4  A    between atoms: C_6  and  O_9
REMARK    5  A    between atoms: O_9  and  C_10
REMARK    6  A    between atoms: C_10  and  C_11
REMARK    7  A    between atoms: C_12  and  O_44
REMARK    8  A    between atoms: C_14  and  O_43
REMARK    9  A    between atoms: C_16  and  O_42
REMARK   10  A    between atoms: C_17  and  O_20
REMARK   11  A    between atoms: O_20  and  C_21
REMARK   12  A    between atoms: C_22  and  C_34
REMARK   13  A    between atoms: C_26  and  O_33
REMARK   14  A    between atoms: C_28  and  O_32
REMARK   15  A    between atoms: C_36  and  O_41
REMARK   16  A    between atoms: C_37  and  O_40
REMARK   17  A    between atoms: O_45  and  C_46
REMARK   18  A    between atoms: C_46  and  C_48
REMARK   19  A    between atoms: C_49  and  C_50
REMARK   20  A    between atoms: C_52  and  O_57
REMARK   21  A    between atoms: C_53  and  O_56
REMARK                            x       y       z     vdW  Elec       q    Type
REMARK                         _______ _______ _______ _____ _____    ______ ____
ROOT
ATOM      1  C   UNL     1       7.627   0.802  22.533  0.00  0.00    +0.179 C 
ATOM      2  O   UNL     1       7.594  -0.523  23.135  0.00  0.00    -0.331 OA
ATOM      3  C   UNL     1       8.155  -0.503  24.472  0.00  0.00    +0.340 C 
ATOM      4  C   UNL     1       9.674  -0.264  24.349  0.00  0.00    +0.214 C 
ATOM      5  C   UNL     1       9.867   1.121  23.700  0.00  0.00    +0.180 C 
ATOM      6  C   UNL     1       9.098   1.242  22.377  0.00  0.00    +0.177 C 
ENDROOT
BRANCH   4   7
ATOM      7  O   UNL     1      10.274  -1.302  23.546  0.00  0.00    -0.383 OA
ATOM      8  H   UNL     1      10.911  -1.772  24.113  0.00  0.00    +0.210 HD
ENDBRANCH   4   7
BRANCH   6   9
ATOM      9  O   UNL     1       9.252   2.571  21.876  0.00  0.00    -0.386 OA
ATOM     10  H   UNL     1       9.433   3.163  22.631  0.00  0.00    +0.210 HD
ENDBRANCH   6   9
BRANCH   5  11
ATOM     11  O   UNL     1      11.251   1.405  23.469  0.00  0.00    -0.386 OA
ATOM     12  H   UNL     1      11.664   1.415  24.355  0.00  0.00    +0.210 HD
ENDBRANCH   5  11
BRANCH   3  13
ATOM     13  O   UNL     1       7.849  -1.702  25.187  0.00  0.00    -0.453 OA
BRANCH  13  14
ATOM     14  C   UNL     1       6.659  -1.670  25.926  0.00  0.00    +0.214 A 
ATOM     15  C   UNL     1       6.498  -0.725  27.085  0.00  0.00    +0.238 A 
ATOM     16  O   UNL     1       7.441  -0.059  27.497  0.00  0.00    -0.283 OA
ATOM     17  C   UNL     1       5.178  -0.635  27.722  0.00  0.00    +0.109 A 
ATOM     18  C   UNL     1       4.221  -1.575  27.353  0.00  0.00    +0.147 A 
ATOM     19  C   UNL     1       2.986  -1.610  28.018  0.00  0.00    +0.092 A 
ATOM     20  C   UNL     1       2.731  -0.702  29.041  0.00  0.00    +0.124 A 
ATOM     21  C   UNL     1       3.663   0.268  29.388  0.00  0.00    +0.091 A 
ATOM     22  O   UNL     1       4.423  -2.496  26.355  0.00  0.00    -0.451 OA
ATOM     23  C   UNL     1       4.881   0.313  28.718  0.00  0.00    +0.135 A 
ATOM     24  C   UNL     1       5.628  -2.501  25.654  0.00  0.00    +0.181 A 
BRANCH  24  25
ATOM     25  C   UNL     1       5.660  -3.512  24.550  0.00  0.00    +0.025 A 
ATOM     26  C   UNL     1       5.709  -4.890  24.847  0.00  0.00    +0.015 A 
ATOM     27  C   UNL     1       5.707  -5.857  23.826  0.00  0.00    +0.050 A 
ATOM     28  C   UNL     1       5.654  -5.448  22.505  0.00  0.00    +0.158 A 
ATOM     29  C   UNL     1       5.638  -4.098  22.187  0.00  0.00    +0.159 A 
ATOM     30  C   UNL     1       5.663  -3.135  23.193  0.00  0.00    +0.060 A 
BRANCH  29  31
ATOM     31  O   UNL     1       5.583  -3.754  20.864  0.00  0.00    -0.503 OA
ATOM     32  H   UNL     1       5.306  -4.540  20.358  0.00  0.00    +0.292 HD
ENDBRANCH  29  31
BRANCH  28  33
ATOM     33  O   UNL     1       5.612  -6.381  21.510  0.00  0.00    -0.503 OA
ATOM     34  H   UNL     1       6.549  -6.611  21.349  0.00  0.00    +0.292 HD
ENDBRANCH  28  33
ENDBRANCH  24  25
BRANCH  23  35
ATOM     35  O   UNL     1       5.766   1.305  29.035  0.00  0.00    -0.506 OA
ATOM     36  H   UNL     1       6.173   1.658  28.228  0.00  0.00    +0.292 HD
ENDBRANCH  23  35
BRANCH  20  37
ATOM     37  O   UNL     1       1.563  -0.716  29.739  0.00  0.00    -0.507 OA
ATOM     38  H   UNL     1       1.703  -1.162  30.590  0.00  0.00    +0.292 HD
ENDBRANCH  20  37
ENDBRANCH  13  14
ENDBRANCH   3  13
BRANCH   1  39
ATOM     39  C   UNL     1       6.709   1.751  23.336  0.00  0.00    +0.197 C 
BRANCH  39  40
ATOM     40  O   UNL     1       6.275   2.938  22.685  0.00  0.00    -0.345 OA
BRANCH  40  43
ATOM     41  C   UNL     1       2.965   4.352  22.210  0.00  0.00    +0.197 C 
ATOM     42  O   UNL     1       4.376   4.195  22.155  0.00  0.00    -0.345 OA
ATOM     43  C   UNL     1       4.849   3.049  22.875  0.00  0.00    +0.294 C 
ATOM     44  C   UNL     1       4.482   3.122  24.367  0.00  0.00    +0.263 C 
ATOM     45  C   UNL     1       2.965   3.332  24.488  0.00  0.00    +0.191 C 
ATOM     46  C   UNL     1       2.495   4.528  23.649  0.00  0.00    +0.172 C 
BRANCH  46  47
ATOM     47  O   UNL     1       1.070   4.637  23.730  0.00  0.00    -0.387 OA
ATOM     48  H   UNL     1       0.705   4.680  22.829  0.00  0.00    +0.210 HD
ENDBRANCH  46  47
BRANCH  45  49
ATOM     49  O   UNL     1       2.567   3.507  25.851  0.00  0.00    -0.385 OA
ATOM     50  H   UNL     1       1.713   3.981  25.830  0.00  0.00    +0.210 HD
ENDBRANCH  45  49
BRANCH  44  51
ATOM     51  O   UNL     1       5.169   4.240  24.967  0.00  0.00    -0.450 OA
BRANCH  51  52
ATOM     52  C   UNL     1       5.816   3.967  26.124  0.00  0.00    +0.332 C 
ATOM     53  O   UNL     1       5.326   3.617  27.185  0.00  0.00    -0.246 OA
BRANCH  52  54
ATOM     54  C   UNL     1       7.255   4.196  25.896  0.00  0.00    +0.092 C 
ATOM     55  C   UNL     1       7.672   5.402  25.479  0.00  0.00    +0.015 C 
BRANCH  55  56
ATOM     56  C   UNL     1       9.055   5.697  25.081  0.00  0.00    -0.021 A 
ATOM     57  C   UNL     1       9.814   6.722  25.670  0.00  0.00    +0.012 A 
ATOM     58  C   UNL     1      11.156   6.903  25.326  0.00  0.00    +0.050 A 
ATOM     59  C   UNL     1      11.732   6.067  24.383  0.00  0.00    +0.158 A 
ATOM     60  C   UNL     1      10.980   5.082  23.753  0.00  0.00    +0.159 A 
ATOM     61  C   UNL     1       9.641   4.898  24.085  0.00  0.00    +0.057 A 
BRANCH  60  62
ATOM     62  O   UNL     1      11.606   4.297  22.825  0.00  0.00    -0.503 OA
ATOM     63  H   UNL     1      11.341   4.604  21.941  0.00  0.00    +0.292 HD
ENDBRANCH  60  62
BRANCH  59  64
ATOM     64  O   UNL     1      13.056   6.210  24.086  0.00  0.00    -0.503 OA
ATOM     65  H   UNL     1      13.090   6.988  23.493  0.00  0.00    +0.292 HD
ENDBRANCH  59  64
ENDBRANCH  55  56
ENDBRANCH  52  54
ENDBRANCH  51  52
ENDBRANCH  44  51
ENDBRANCH  40  43
ENDBRANCH  39  40
ENDBRANCH   1  39
TORSDOF 21
ENDMDL
MODEL 9
REMARK VINA RESULT:      -6.9      2.654      7.241
REMARK  Name = 
REMARK  21 active torsions:
REMARK  status: ('A' for Active; 'I' for Inactive)
REMARK    1  A    between atoms: C_2  and  O_59
REMARK    2  A    between atoms: C_3  and  O_58
REMARK    3  A    between atoms: C_5  and  O_45
REMARK    4  A    between atoms: C_6  and  O_9
REMARK    5  A    between atoms: O_9  and  C_10
REMARK    6  A    between atoms: C_10  and  C_11
REMARK    7  A    between atoms: C_12  and  O_44
REMARK    8  A    between atoms: C_14  and  O_43
REMARK    9  A    between atoms: C_16  and  O_42
REMARK   10  A    between atoms: C_17  and  O_20
REMARK   11  A    between atoms: O_20  and  C_21
REMARK   12  A    between atoms: C_22  and  C_34
REMARK   13  A    between atoms: C_26  and  O_33
REMARK   14  A    between atoms: C_28  and  O_32
REMARK   15  A    between atoms: C_36  and  O_41
REMARK   16  A    between atoms: C_37  and  O_40
REMARK   17  A    between atoms: O_45  and  C_46
REMARK   18  A    between atoms: C_46  and  C_48
REMARK   19  A    between atoms: C_49  and  C_50
REMARK   20  A    between atoms: C_52  and  O_57
REMARK   21  A    between atoms: C_53  and  O_56
REMARK                            x       y       z     vdW  Elec       q    Type
REMARK                         _______ _______ _______ _____ _____    ______ ____
ROOT
ATOM      1  C   UNL     1       7.752   2.364  22.066  0.00  0.00    +0.179 C 
ATOM      2  O   UNL     1       6.695   1.376  22.233  0.00  0.00    -0.331 OA
ATOM      3  C   UNL     1       6.853   0.648  23.477  0.00  0.00    +0.340 C 
ATOM      4  C   UNL     1       8.096  -0.256  23.346  0.00  0.00    +0.214 C 
ATOM      5  C   UNL     1       9.314   0.668  23.144  0.00  0.00    +0.180 C 
ATOM      6  C   UNL     1       9.107   1.633  21.969  0.00  0.00    +0.177 C 
ENDROOT
BRANCH   4   7
ATOM      7  O   UNL     1       7.937  -1.157  22.230  0.00  0.00    -0.383 OA
ATOM      8  H   UNL     1       7.438  -1.928  22.552  0.00  0.00    +0.210 HD
ENDBRANCH   4   7
BRANCH   6   9
ATOM      9  O   UNL     1      10.232   2.512  21.893  0.00  0.00    -0.386 OA
ATOM     10  H   UNL     1      11.035   1.997  22.098  0.00  0.00    +0.210 HD
ENDBRANCH   6   9
BRANCH   5  11
ATOM     11  O   UNL     1      10.514  -0.082  22.933  0.00  0.00    -0.386 OA
ATOM     12  H   UNL     1      11.227   0.584  22.862  0.00  0.00    +0.210 HD
ENDBRANCH   5  11
BRANCH   3  13
ATOM     13  O   UNL     1       5.676  -0.092  23.805  0.00  0.00    -0.453 OA
BRANCH  13  14
ATOM     14  C   UNL     1       5.854  -1.108  24.753  0.00  0.00    +0.214 A 
ATOM     15  C   UNL     1       6.061  -2.535  24.322  0.00  0.00    +0.238 A 
ATOM     16  O   UNL     1       5.945  -2.867  23.147  0.00  0.00    -0.283 OA
ATOM     17  C   UNL     1       6.390  -3.525  25.355  0.00  0.00    +0.109 A 
ATOM     18  C   UNL     1       6.284  -3.127  26.684  0.00  0.00    +0.147 A 
ATOM     19  C   UNL     1       6.468  -4.068  27.709  0.00  0.00    +0.092 A 
ATOM     20  C   UNL     1       6.756  -5.390  27.385  0.00  0.00    +0.124 A 
ATOM     21  C   UNL     1       6.905  -5.788  26.063  0.00  0.00    +0.091 A 
ATOM     22  O   UNL     1       5.998  -1.838  27.058  0.00  0.00    -0.451 OA
ATOM     23  C   UNL     1       6.738  -4.853  25.047  0.00  0.00    +0.135 A 
ATOM     24  C   UNL     1       5.815  -0.860  26.081  0.00  0.00    +0.181 A 
BRANCH  24  25
ATOM     25  C   UNL     1       5.587   0.505  26.653  0.00  0.00    +0.025 A 
ATOM     26  C   UNL     1       4.280   1.022  26.765  0.00  0.00    +0.015 A 
ATOM     27  C   UNL     1       4.041   2.287  27.328  0.00  0.00    +0.050 A 
ATOM     28  C   UNL     1       5.110   3.040  27.784  0.00  0.00    +0.158 A 
ATOM     29  C   UNL     1       6.408   2.566  27.655  0.00  0.00    +0.159 A 
ATOM     30  C   UNL     1       6.652   1.323  27.077  0.00  0.00    +0.060 A 
BRANCH  29  31
ATOM     31  O   UNL     1       7.424   3.352  28.126  0.00  0.00    -0.503 OA
ATOM     32  H   UNL     1       8.097   2.771  28.525  0.00  0.00    +0.292 HD
ENDBRANCH  29  31
BRANCH  28  33
ATOM     33  O   UNL     1       4.884   4.252  28.368  0.00  0.00    -0.503 OA
ATOM     34  H   UNL     1       4.024   4.148  28.824  0.00  0.00    +0.292 HD
ENDBRANCH  28  33
ENDBRANCH  24  25
BRANCH  23  35
ATOM     35  O   UNL     1       6.940  -5.249  23.754  0.00  0.00    -0.506 OA
ATOM     36  H   UNL     1       6.117  -5.160  23.246  0.00  0.00    +0.292 HD
ENDBRANCH  23  35
BRANCH  20  37
ATOM     37  O   UNL     1       6.910  -6.346  28.341  0.00  0.00    -0.507 OA
ATOM     38  H   UNL     1       6.176  -6.979  28.283  0.00  0.00    +0.292 HD
ENDBRANCH  20  37
ENDBRANCH  13  14
ENDBRANCH   3  13
BRANCH   1  39
ATOM     39  C   UNL     1       7.628   3.435  23.174  0.00  0.00    +0.197 C 
BRANCH  39  40
ATOM     40  O   UNL     1       7.220   4.737  22.774  0.00  0.00    -0.345 OA
BRANCH  40  43
ATOM     41  C   UNL     1       3.866   6.066  22.364  0.00  0.00    +0.197 C 
ATOM     42  O   UNL     1       5.272   5.913  22.233  0.00  0.00    -0.345 OA
ATOM     43  C   UNL     1       5.808   4.859  23.044  0.00  0.00    +0.294 C 
ATOM     44  C   UNL     1       5.538   5.098  24.540  0.00  0.00    +0.263 C 
ATOM     45  C   UNL     1       4.029   5.310  24.737  0.00  0.00    +0.191 C 
ATOM     46  C   UNL     1       3.488   6.400  23.802  0.00  0.00    +0.172 C 
BRANCH  46  47
ATOM     47  O   UNL     1       2.070   6.508  23.964  0.00  0.00    -0.387 OA
ATOM     48  H   UNL     1       1.659   5.661  23.719  0.00  0.00    +0.210 HD
ENDBRANCH  46  47
BRANCH  45  49
ATOM     49  O   UNL     1       3.719   5.636  26.095  0.00  0.00    -0.385 OA
ATOM     50  H   UNL     1       2.804   5.329  26.250  0.00  0.00    +0.210 HD
ENDBRANCH  45  49
BRANCH  44  51
ATOM     51  O   UNL     1       6.246   6.282  24.963  0.00  0.00    -0.450 OA
BRANCH  51  52
ATOM     52  C   UNL     1       6.862   6.188  26.165  0.00  0.00    +0.332 C 
ATOM     53  O   UNL     1       6.356   6.301  27.270  0.00  0.00    -0.246 OA
BRANCH  52  54
ATOM     54  C   UNL     1       8.296   5.949  25.916  0.00  0.00    +0.092 C 
ATOM     55  C   UNL     1       8.934   6.682  24.990  0.00  0.00    +0.015 C 
BRANCH  55  56
ATOM     56  C   UNL     1      10.315   6.430  24.558  0.00  0.00    -0.021 A 
ATOM     57  C   UNL     1      11.432   6.896  25.271  0.00  0.00    +0.012 A 
ATOM     58  C   UNL     1      12.727   6.550  24.875  0.00  0.00    +0.050 A 
ATOM     59  C   UNL     1      12.901   5.751  23.757  0.00  0.00    +0.158 A 
ATOM     60  C   UNL     1      11.809   5.325  23.010  0.00  0.00    +0.159 A 
ATOM     61  C   UNL     1      10.516   5.669  23.394  0.00  0.00    +0.057 A 
BRANCH  60  62
ATOM     62  O   UNL     1      12.051   4.546  21.913  0.00  0.00    -0.503 OA
ATOM     63  H   UNL     1      12.997   4.614  21.696  0.00  0.00    +0.292 HD
ENDBRANCH  60  62
BRANCH  59  64
ATOM     64  O   UNL     1      14.162   5.370  23.400  0.00  0.00    -0.503 OA
ATOM     65  H   UNL     1      14.254   5.669  22.472  0.00  0.00    +0.292 HD
ENDBRANCH  59  64
ENDBRANCH  55  56
ENDBRANCH  52  54
ENDBRANCH  51  52
ENDBRANCH  44  51
ENDBRANCH  40  43
ENDBRANCH  39  40
ENDBRANCH   1  39
TORSDOF 21
ENDMDL
