MODEL 1
REMARK VINA RESULT:      -6.9      0.000      0.000
REMARK  Name = 
REMARK  12 active torsions:
REMARK  status: ('A' for Active; 'I' for Inactive)
REMARK    1  A    between atoms: C_1  and  O_2
REMARK    2  A    between atoms: O_2  and  C_3
REMARK    3  A    between atoms: C_4  and  O_30
REMARK    4  A    between atoms: C_6  and  C_9
REMARK    5  A    between atoms: C_10  and  O_28
REMARK    6  A    between atoms: C_16  and  C_24
REMARK    7  A    between atoms: C_17  and  O_22
REMARK    8  A    between atoms: C_19  and  O_20
REMARK    9  A    between atoms: O_20  and  C_21
REMARK   10  A    between atoms: O_22  and  C_23
REMARK   11  A    between atoms: O_28  and  C_29
REMARK   12  A    between atoms: O_30  and  C_31
REMARK                            x       y       z     vdW  Elec       q    Type
REMARK                         _______ _______ _______ _____ _____    ______ ____
ROOT
ATOM      1  C   UNL     1       6.819  -0.414  24.086  0.00  0.00    +0.181 A 
ATOM      2  O   UNL     1       7.842   0.365  23.577  0.00  0.00    -0.450 OA
ATOM      3  C   UNL     1       8.068   1.637  24.059  0.00  0.00    +0.158 A 
ATOM      4  C   UNL     1       9.140   2.347  23.463  0.00  0.00    +0.139 A 
ATOM      5  C   UNL     1       9.462   3.618  23.955  0.00  0.00    +0.139 A 
ATOM      6  C   UNL     1       8.726   4.141  25.015  0.00  0.00    +0.092 A 
ATOM      7  C   UNL     1       7.644   3.460  25.605  0.00  0.00    +0.138 A 
ATOM      8  C   UNL     1       7.298   2.190  25.107  0.00  0.00    +0.110 A 
ATOM      9  C   UNL     1       6.162   1.365  25.578  0.00  0.00    +0.238 A 
ATOM     10  O   UNL     1       5.411   1.718  26.478  0.00  0.00    -0.283 OA
ATOM     11  C   UNL     1       5.919   0.017  24.994  0.00  0.00    +0.211 A 
ENDROOT
BRANCH   1  15
ATOM     12  C   UNL     1       7.162  -4.418  22.642  0.00  0.00    +0.162 A 
ATOM     13  C   UNL     1       6.186  -3.546  22.162  0.00  0.00    +0.050 A 
ATOM     14  C   UNL     1       6.068  -2.267  22.696  0.00  0.00    +0.015 A 
ATOM     15  C   UNL     1       6.952  -1.822  23.686  0.00  0.00    +0.025 A 
ATOM     16  C   UNL     1       7.915  -2.700  24.201  0.00  0.00    +0.061 A 
ATOM     17  C   UNL     1       8.013  -4.002  23.684  0.00  0.00    +0.162 A 
BRANCH  12  19
ATOM     18  C   UNL     1       6.443  -6.089  21.123  0.00  0.00    +0.277 C 
ATOM     19  O   UNL     1       7.361  -5.678  22.131  0.00  0.00    -0.491 OA
ENDBRANCH  12  19
BRANCH  17  20
ATOM     20  O   UNL     1       8.957  -4.904  24.110  0.00  0.00    -0.491 OA
ATOM     21  C   UNL     1       8.873  -5.269  25.483  0.00  0.00    +0.277 C 
ENDBRANCH  17  20
ENDBRANCH   1  15
BRANCH   4  22
ATOM     22  C   UNL     1       9.944   1.803  22.303  0.00  0.00    +0.424 C 
ATOM     23  F   UNL     1       9.182   1.551  21.200  0.00  0.00    -0.166 F 
ATOM     24  F   UNL     1      10.568   0.628  22.608  0.00  0.00    -0.166 F 
ATOM     25  F   UNL     1      10.943   2.618  21.857  0.00  0.00    -0.166 F 
ENDBRANCH   4  22
BRANCH   5  26
ATOM     26  O   UNL     1      10.500   4.278  23.353  0.00  0.00    -0.494 OA
ATOM     27  C   UNL     1      10.737   5.632  23.735  0.00  0.00    +0.277 C 
ENDBRANCH   5  26
BRANCH   7  28
ATOM     28  O   UNL     1       7.155   4.265  26.592  0.00  0.00    -0.494 OA
ATOM     29  C   UNL     1       7.518   5.614  26.793  0.00  0.00    +0.277 C 
ENDBRANCH   7  28
BRANCH  11  30
ATOM     30  O   UNL     1       4.840  -0.600  25.568  0.00  0.00    -0.488 OA
ATOM     31  C   UNL     1       4.860  -1.649  26.507  0.00  0.00    +0.277 C 
ENDBRANCH  11  30
TORSDOF 7
ENDMDL
MODEL 2
REMARK VINA RESULT:      -6.9      2.569      3.894
REMARK  Name = 
REMARK  12 active torsions:
REMARK  status: ('A' for Active; 'I' for Inactive)
REMARK    1  A    between atoms: C_1  and  O_2
REMARK    2  A    between atoms: O_2  and  C_3
REMARK    3  A    between atoms: C_4  and  O_30
REMARK    4  A    between atoms: C_6  and  C_9
REMARK    5  A    between atoms: C_10  and  O_28
REMARK    6  A    between atoms: C_16  and  C_24
REMARK    7  A    between atoms: C_17  and  O_22
REMARK    8  A    between atoms: C_19  and  O_20
REMARK    9  A    between atoms: O_20  and  C_21
REMARK   10  A    between atoms: O_22  and  C_23
REMARK   11  A    between atoms: O_28  and  C_29
REMARK   12  A    between atoms: O_30  and  C_31
REMARK                            x       y       z     vdW  Elec       q    Type
REMARK                         _______ _______ _______ _____ _____    ______ ____
ROOT
ATOM      1  C   UNL     1       7.646  -0.844  23.828  0.00  0.00    +0.181 A 
ATOM      2  O   UNL     1       7.035   0.391  23.712  0.00  0.00    -0.450 OA
ATOM      3  C   UNL     1       7.784   1.548  23.650  0.00  0.00    +0.158 A 
ATOM      4  C   UNL     1       7.054   2.757  23.536  0.00  0.00    +0.139 A 
ATOM      5  C   UNL     1       7.760   3.959  23.401  0.00  0.00    +0.139 A 
ATOM      6  C   UNL     1       9.151   3.929  23.376  0.00  0.00    +0.092 A 
ATOM      7  C   UNL     1       9.894   2.741  23.509  0.00  0.00    +0.138 A 
ATOM      8  C   UNL     1       9.198   1.528  23.666  0.00  0.00    +0.110 A 
ATOM      9  C   UNL     1       9.822   0.201  23.868  0.00  0.00    +0.238 A 
ATOM     10  O   UNL     1      11.034   0.034  23.904  0.00  0.00    -0.283 OA
ATOM     11  C   UNL     1       8.975  -1.019  23.984  0.00  0.00    +0.211 A 
ENDROOT
BRANCH   1  15
ATOM     12  C   UNL     1       4.717  -3.869  23.119  0.00  0.00    +0.162 A 
ATOM     13  C   UNL     1       4.719  -3.109  24.288  0.00  0.00    +0.050 A 
ATOM     14  C   UNL     1       5.722  -2.171  24.510  0.00  0.00    +0.015 A 
ATOM     15  C   UNL     1       6.714  -1.944  23.548  0.00  0.00    +0.025 A 
ATOM     16  C   UNL     1       6.742  -2.725  22.385  0.00  0.00    +0.061 A 
ATOM     17  C   UNL     1       5.748  -3.695  22.176  0.00  0.00    +0.162 A 
BRANCH  12  19
ATOM     18  C   UNL     1       3.716  -5.958  23.618  0.00  0.00    +0.277 C 
ATOM     19  O   UNL     1       3.735  -4.781  22.818  0.00  0.00    -0.491 OA
ENDBRANCH  12  19
BRANCH  17  20
ATOM     20  O   UNL     1       5.688  -4.469  21.043  0.00  0.00    -0.491 OA
ATOM     21  C   UNL     1       6.478  -5.653  21.073  0.00  0.00    +0.277 C 
ENDBRANCH  17  20
ENDBRANCH   1  15
BRANCH   4  22
ATOM     22  C   UNL     1       5.543   2.814  23.573  0.00  0.00    +0.424 C 
ATOM     23  F   UNL     1       4.988   2.999  22.341  0.00  0.00    -0.166 F 
ATOM     24  F   UNL     1       5.079   3.833  24.353  0.00  0.00    -0.166 F 
ATOM     25  F   UNL     1       4.932   1.698  24.065  0.00  0.00    -0.166 F 
ENDBRANCH   4  22
BRANCH   5  26
ATOM     26  O   UNL     1       7.023   5.109  23.298  0.00  0.00    -0.494 OA
ATOM     27  C   UNL     1       7.244   5.940  22.160  0.00  0.00    +0.277 C 
ENDBRANCH   5  26
BRANCH   7  28
ATOM     28  O   UNL     1      11.213   3.084  23.454  0.00  0.00    -0.494 OA
ATOM     29  C   UNL     1      11.705   4.405  23.387  0.00  0.00    +0.277 C 
ENDBRANCH   7  28
BRANCH  11  30
ATOM     30  O   UNL     1       9.729  -2.150  24.148  0.00  0.00    -0.488 OA
ATOM     31  C   UNL     1       9.383  -3.306  24.874  0.00  0.00    +0.277 C 
ENDBRANCH  11  30
TORSDOF 7
ENDMDL
MODEL 3
REMARK VINA RESULT:      -6.6      1.870      7.229
REMARK  Name = 
REMARK  12 active torsions:
REMARK  status: ('A' for Active; 'I' for Inactive)
REMARK    1  A    between atoms: C_1  and  O_2
REMARK    2  A    between atoms: O_2  and  C_3
REMARK    3  A    between atoms: C_4  and  O_30
REMARK    4  A    between atoms: C_6  and  C_9
REMARK    5  A    between atoms: C_10  and  O_28
REMARK    6  A    between atoms: C_16  and  C_24
REMARK    7  A    between atoms: C_17  and  O_22
REMARK    8  A    between atoms: C_19  and  O_20
REMARK    9  A    between atoms: O_20  and  C_21
REMARK   10  A    between atoms: O_22  and  C_23
REMARK   11  A    between atoms: O_28  and  C_29
REMARK   12  A    between atoms: O_30  and  C_31
REMARK                            x       y       z     vdW  Elec       q    Type
REMARK                         _______ _______ _______ _____ _____    ______ ____
ROOT
ATOM      1  C   UNL     1       7.866   1.377  24.961  0.00  0.00    +0.181 A 
ATOM      2  O   UNL     1       8.373   0.159  24.547  0.00  0.00    -0.450 OA
ATOM      3  C   UNL     1       7.576  -0.966  24.520  0.00  0.00    +0.158 A 
ATOM      4  C   UNL     1       8.201  -2.161  24.083  0.00  0.00    +0.139 A 
ATOM      5  C   UNL     1       7.426  -3.322  23.969  0.00  0.00    +0.139 A 
ATOM      6  C   UNL     1       6.071  -3.266  24.280  0.00  0.00    +0.092 A 
ATOM      7  C   UNL     1       5.438  -2.095  24.737  0.00  0.00    +0.138 A 
ATOM      8  C   UNL     1       6.208  -0.925  24.875  0.00  0.00    +0.110 A 
ATOM      9  C   UNL     1       5.713   0.373  25.386  0.00  0.00    +0.238 A 
ATOM     10  O   UNL     1       4.552   0.553  25.731  0.00  0.00    -0.283 OA
ATOM     11  C   UNL     1       6.621   1.552  25.451  0.00  0.00    +0.211 A 
ENDROOT
BRANCH   1  15
ATOM     12  C   UNL     1      10.538   4.457  23.692  0.00  0.00    +0.162 A 
ATOM     13  C   UNL     1      10.882   3.108  23.613  0.00  0.00    +0.050 A 
ATOM     14  C   UNL     1      10.009   2.135  24.088  0.00  0.00    +0.015 A 
ATOM     15  C   UNL     1       8.758   2.490  24.608  0.00  0.00    +0.025 A 
ATOM     16  C   UNL     1       8.415   3.843  24.724  0.00  0.00    +0.061 A 
ATOM     17  C   UNL     1       9.311   4.828  24.274  0.00  0.00    +0.162 A 
BRANCH  12  19
ATOM     18  C   UNL     1      12.737   5.236  23.276  0.00  0.00    +0.277 C 
ATOM     19  O   UNL     1      11.334   5.465  23.204  0.00  0.00    -0.491 OA
ENDBRANCH  12  19
BRANCH  17  20
ATOM     20  O   UNL     1       9.027   6.171  24.318  0.00  0.00    -0.491 OA
ATOM     21  C   UNL     1       8.045   6.615  23.388  0.00  0.00    +0.277 C 
ENDBRANCH  17  20
ENDBRANCH   1  15
BRANCH   4  22
ATOM     22  C   UNL     1       9.674  -2.246  23.751  0.00  0.00    +0.424 C 
ATOM     23  F   UNL     1       9.916  -2.249  22.408  0.00  0.00    -0.166 F 
ATOM     24  F   UNL     1      10.253  -3.381  24.241  0.00  0.00    -0.166 F 
ATOM     25  F   UNL     1      10.440  -1.230  24.240  0.00  0.00    -0.166 F 
ENDBRANCH   4  22
BRANCH   5  26
ATOM     26  O   UNL     1       8.063  -4.460  23.549  0.00  0.00    -0.494 OA
ATOM     27  C   UNL     1       7.314  -5.389  22.766  0.00  0.00    +0.277 C 
ENDBRANCH   5  26
BRANCH   7  28
ATOM     28  O   UNL     1       4.127  -2.406  24.955  0.00  0.00    -0.494 OA
ATOM     29  C   UNL     1       3.568  -3.695  24.826  0.00  0.00    +0.277 C 
ENDBRANCH   7  28
BRANCH  11  30
ATOM     30  O   UNL     1       5.981   2.662  25.931  0.00  0.00    -0.488 OA
ATOM     31  C   UNL     1       5.999   3.150  27.252  0.00  0.00    +0.277 C 
ENDBRANCH  11  30
TORSDOF 7
ENDMDL
MODEL 4
REMARK VINA RESULT:      -6.6      2.687      3.799
REMARK  Name = 
REMARK  12 active torsions:
REMARK  status: ('A' for Active; 'I' for Inactive)
REMARK    1  A    between atoms: C_1  and  O_2
REMARK    2  A    between atoms: O_2  and  C_3
REMARK    3  A    between atoms: C_4  and  O_30
REMARK    4  A    between atoms: C_6  and  C_9
REMARK    5  A    between atoms: C_10  and  O_28
REMARK    6  A    between atoms: C_16  and  C_24
REMARK    7  A    between atoms: C_17  and  O_22
REMARK    8  A    between atoms: C_19  and  O_20
REMARK    9  A    between atoms: O_20  and  C_21
REMARK   10  A    between atoms: O_22  and  C_23
REMARK   11  A    between atoms: O_28  and  C_29
REMARK   12  A    between atoms: O_30  and  C_31
REMARK                            x       y       z     vdW  Elec       q    Type
REMARK                         _______ _______ _______ _____ _____    ______ ____
ROOT
ATOM      1  C   UNL     1       7.517  -0.289  24.122  0.00  0.00    +0.181 A 
ATOM      2  O   UNL     1       6.972   0.956  23.864  0.00  0.00    -0.450 OA
ATOM      3  C   UNL     1       7.773   2.076  23.786  0.00  0.00    +0.158 A 
ATOM      4  C   UNL     1       7.108   3.299  23.521  0.00  0.00    +0.139 A 
ATOM      5  C   UNL     1       7.874   4.461  23.364  0.00  0.00    +0.139 A 
ATOM      6  C   UNL     1       9.260   4.378  23.465  0.00  0.00    +0.092 A 
ATOM      7  C   UNL     1       9.937   3.177  23.749  0.00  0.00    +0.138 A 
ATOM      8  C   UNL     1       9.178   2.005  23.929  0.00  0.00    +0.110 A 
ATOM      9  C   UNL     1       9.724   0.675  24.281  0.00  0.00    +0.238 A 
ATOM     10  O   UNL     1      10.921   0.467  24.437  0.00  0.00    -0.283 OA
ATOM     11  C   UNL     1       8.818  -0.501  24.408  0.00  0.00    +0.211 A 
ENDROOT
BRANCH   1  15
ATOM     12  C   UNL     1       4.968  -3.573  23.145  0.00  0.00    +0.162 A 
ATOM     13  C   UNL     1       5.828  -3.006  22.205  0.00  0.00    +0.050 A 
ATOM     14  C   UNL     1       6.603  -1.902  22.543  0.00  0.00    +0.015 A 
ATOM     15  C   UNL     1       6.566  -1.372  23.839  0.00  0.00    +0.025 A 
ATOM     16  C   UNL     1       5.681  -1.911  24.781  0.00  0.00    +0.061 A 
ATOM     17  C   UNL     1       4.875  -3.006  24.431  0.00  0.00    +0.162 A 
BRANCH  12  19
ATOM     18  C   UNL     1       4.924  -5.915  22.783  0.00  0.00    +0.277 C 
ATOM     19  O   UNL     1       4.208  -4.689  22.891  0.00  0.00    -0.491 OA
ENDBRANCH  12  19
BRANCH  17  20
ATOM     20  O   UNL     1       4.014  -3.612  25.313  0.00  0.00    -0.491 OA
ATOM     21  C   UNL     1       4.637  -4.309  26.387  0.00  0.00    +0.277 C 
ENDBRANCH  17  20
ENDBRANCH   1  15
BRANCH   4  22
ATOM     22  C   UNL     1       5.604   3.414  23.419  0.00  0.00    +0.424 C 
ATOM     23  F   UNL     1       5.173   3.627  22.142  0.00  0.00    -0.166 F 
ATOM     24  F   UNL     1       5.109   4.447  24.162  0.00  0.00    -0.166 F 
ATOM     25  F   UNL     1       4.908   2.320  23.842  0.00  0.00    -0.166 F 
ENDBRANCH   4  22
BRANCH   5  26
ATOM     26  O   UNL     1       7.200   5.627  23.114  0.00  0.00    -0.494 OA
ATOM     27  C   UNL     1       7.403   6.253  21.848  0.00  0.00    +0.277 C 
ENDBRANCH   5  26
BRANCH   7  28
ATOM     28  O   UNL     1      11.270   3.466  23.788  0.00  0.00    -0.494 OA
ATOM     29  C   UNL     1      11.842   4.699  23.410  0.00  0.00    +0.277 C 
ENDBRANCH   7  28
BRANCH  11  30
ATOM     30  O   UNL     1       9.506  -1.643  24.719  0.00  0.00    -0.488 OA
ATOM     31  C   UNL     1       9.852  -2.691  23.845  0.00  0.00    +0.277 C 
ENDBRANCH  11  30
TORSDOF 7
ENDMDL
MODEL 5
REMARK VINA RESULT:      -6.3      1.114      2.045
REMARK  Name = 
REMARK  12 active torsions:
REMARK  status: ('A' for Active; 'I' for Inactive)
REMARK    1  A    between atoms: C_1  and  O_2
REMARK    2  A    between atoms: O_2  and  C_3
REMARK    3  A    between atoms: C_4  and  O_30
REMARK    4  A    between atoms: C_6  and  C_9
REMARK    5  A    between atoms: C_10  and  O_28
REMARK    6  A    between atoms: C_16  and  C_24
REMARK    7  A    between atoms: C_17  and  O_22
REMARK    8  A    between atoms: C_19  and  O_20
REMARK    9  A    between atoms: O_20  and  C_21
REMARK   10  A    between atoms: O_22  and  C_23
REMARK   11  A    between atoms: O_28  and  C_29
REMARK   12  A    between atoms: O_30  and  C_31
REMARK                            x       y       z     vdW  Elec       q    Type
REMARK                         _______ _______ _______ _____ _____    ______ ____
ROOT
ATOM      1  C   UNL     1       7.298   0.312  24.287  0.00  0.00    +0.181 A 
ATOM      2  O   UNL     1       8.339   1.172  23.987  0.00  0.00    -0.450 OA
ATOM      3  C   UNL     1       8.278   2.505  24.336  0.00  0.00    +0.158 A 
ATOM      4  C   UNL     1       9.399   3.294  23.976  0.00  0.00    +0.139 A 
ATOM      5  C   UNL     1       9.425   4.641  24.362  0.00  0.00    +0.139 A 
ATOM      6  C   UNL     1       8.357   5.158  25.090  0.00  0.00    +0.092 A 
ATOM      7  C   UNL     1       7.225   4.396  25.437  0.00  0.00    +0.138 A 
ATOM      8  C   UNL     1       7.177   3.047  25.038  0.00  0.00    +0.110 A 
ATOM      9  C   UNL     1       6.045   2.122  25.276  0.00  0.00    +0.238 A 
ATOM     10  O   UNL     1       5.027   2.455  25.870  0.00  0.00    -0.283 OA
ATOM     11  C   UNL     1       6.129   0.702  24.836  0.00  0.00    +0.211 A 
ENDROOT
BRANCH   1  15
ATOM     12  C   UNL     1       8.558  -3.764  24.122  0.00  0.00    +0.162 A 
ATOM     13  C   UNL     1       9.379  -2.763  24.637  0.00  0.00    +0.050 A 
ATOM     14  C   UNL     1       8.958  -1.437  24.623  0.00  0.00    +0.015 A 
ATOM     15  C   UNL     1       7.690  -1.095  24.136  0.00  0.00    +0.025 A 
ATOM     16  C   UNL     1       6.870  -2.088  23.584  0.00  0.00    +0.061 A 
ATOM     17  C   UNL     1       7.309  -3.422  23.569  0.00  0.00    +0.162 A 
BRANCH  12  19
ATOM     18  C   UNL     1       9.416  -5.584  25.375  0.00  0.00    +0.277 C 
ATOM     19  O   UNL     1       8.894  -5.096  24.143  0.00  0.00    -0.491 OA
ENDBRANCH  12  19
BRANCH  17  20
ATOM     20  O   UNL     1       6.544  -4.454  23.082  0.00  0.00    -0.491 OA
ATOM     21  C   UNL     1       6.307  -4.424  21.678  0.00  0.00    +0.277 C 
ENDBRANCH  17  20
ENDBRANCH   1  15
BRANCH   4  22
ATOM     22  C   UNL     1      10.563   2.756  23.177  0.00  0.00    +0.424 C 
ATOM     23  F   UNL     1      10.191   2.270  21.957  0.00  0.00    -0.166 F 
ATOM     24  F   UNL     1      11.201   1.730  23.813  0.00  0.00    -0.166 F 
ATOM     25  F   UNL     1      11.548   3.659  22.905  0.00  0.00    -0.166 F 
ENDBRANCH   4  22
BRANCH   5  26
ATOM     26  O   UNL     1      10.521   5.376  23.995  0.00  0.00    -0.494 OA
ATOM     27  C   UNL     1      10.881   6.486  24.815  0.00  0.00    +0.277 C 
ENDBRANCH   5  26
BRANCH   7  28
ATOM     28  O   UNL     1       6.383   5.219  26.126  0.00  0.00    -0.494 OA
ATOM     29  C   UNL     1       6.403   5.412  27.524  0.00  0.00    +0.277 C 
ENDBRANCH   7  28
BRANCH  11  30
ATOM     30  O   UNL     1       4.998   0.001  25.159  0.00  0.00    -0.488 OA
ATOM     31  C   UNL     1       4.786  -0.789  26.305  0.00  0.00    +0.277 C 
ENDBRANCH  11  30
TORSDOF 7
ENDMDL
MODEL 6
REMARK VINA RESULT:      -6.2      3.387      4.947
REMARK  Name = 
REMARK  12 active torsions:
REMARK  status: ('A' for Active; 'I' for Inactive)
REMARK    1  A    between atoms: C_1  and  O_2
REMARK    2  A    between atoms: O_2  and  C_3
REMARK    3  A    between atoms: C_4  and  O_30
REMARK    4  A    between atoms: C_6  and  C_9
REMARK    5  A    between atoms: C_10  and  O_28
REMARK    6  A    between atoms: C_16  and  C_24
REMARK    7  A    between atoms: C_17  and  O_22
REMARK    8  A    between atoms: C_19  and  O_20
REMARK    9  A    between atoms: O_20  and  C_21
REMARK   10  A    between atoms: O_22  and  C_23
REMARK   11  A    between atoms: O_28  and  C_29
REMARK   12  A    between atoms: O_30  and  C_31
REMARK                            x       y       z     vdW  Elec       q    Type
REMARK                         _______ _______ _______ _____ _____    ______ ____
ROOT
ATOM      1  C   UNL     1       7.288  -3.181  25.146  0.00  0.00    +0.181 A 
ATOM      2  O   UNL     1       6.673  -1.975  25.428  0.00  0.00    -0.450 OA
ATOM      3  C   UNL     1       7.277  -0.779  25.100  0.00  0.00    +0.158 A 
ATOM      4  C   UNL     1       6.559   0.395  25.439  0.00  0.00    +0.139 A 
ATOM      5  C   UNL     1       7.089   1.638  25.071  0.00  0.00    +0.139 A 
ATOM      6  C   UNL     1       8.297   1.682  24.380  0.00  0.00    +0.092 A 
ATOM      7  C   UNL     1       9.035   0.528  24.054  0.00  0.00    +0.138 A 
ATOM      8  C   UNL     1       8.524  -0.726  24.436  0.00  0.00    +0.110 A 
ATOM      9  C   UNL     1       9.194  -2.028  24.216  0.00  0.00    +0.238 A 
ATOM     10  O   UNL     1      10.277  -2.133  23.655  0.00  0.00    -0.283 OA
ATOM     11  C   UNL     1       8.531  -3.295  24.634  0.00  0.00    +0.211 A 
ENDROOT
BRANCH   1  15
ATOM     12  C   UNL     1       4.647  -6.535  25.214  0.00  0.00    +0.162 A 
ATOM     13  C   UNL     1       4.710  -5.673  24.120  0.00  0.00    +0.050 A 
ATOM     14  C   UNL     1       5.541  -4.558  24.156  0.00  0.00    +0.015 A 
ATOM     15  C   UNL     1       6.358  -4.311  25.267  0.00  0.00    +0.025 A 
ATOM     16  C   UNL     1       6.278  -5.151  26.385  0.00  0.00    +0.061 A 
ATOM     17  C   UNL     1       5.414  -6.259  26.361  0.00  0.00    +0.162 A 
BRANCH  12  19
ATOM     18  C   UNL     1       2.719  -7.651  24.404  0.00  0.00    +0.277 C 
ATOM     19  O   UNL     1       3.881  -7.676  25.227  0.00  0.00    -0.491 OA
ENDBRANCH  12  19
BRANCH  17  20
ATOM     20  O   UNL     1       5.312  -7.148  27.403  0.00  0.00    -0.491 OA
ATOM     21  C   UNL     1       4.682  -6.641  28.575  0.00  0.00    +0.277 C 
ENDBRANCH  17  20
ENDBRANCH   1  15
BRANCH   4  22
ATOM     22  C   UNL     1       5.252   0.370  26.199  0.00  0.00    +0.424 C 
ATOM     23  F   UNL     1       5.401   0.667  27.522  0.00  0.00    -0.166 F 
ATOM     24  F   UNL     1       4.645  -0.852  26.152  0.00  0.00    -0.166 F 
ATOM     25  F   UNL     1       4.304   1.243  25.752  0.00  0.00    -0.166 F 
ENDBRANCH   4  22
BRANCH   5  26
ATOM     26  O   UNL     1       6.372   2.752  25.418  0.00  0.00    -0.494 OA
ATOM     27  C   UNL     1       7.001   3.710  26.267  0.00  0.00    +0.277 C 
ENDBRANCH   5  26
BRANCH   7  28
ATOM     28  O   UNL     1      10.158   0.943  23.400  0.00  0.00    -0.494 OA
ATOM     29  C   UNL     1      10.170   1.742  22.237  0.00  0.00    +0.277 C 
ENDBRANCH   7  28
BRANCH  11  30
ATOM     30  O   UNL     1       9.293  -4.392  24.333  0.00  0.00    -0.488 OA
ATOM     31  C   UNL     1       9.852  -5.314  25.239  0.00  0.00    +0.277 C 
ENDBRANCH  11  30
TORSDOF 7
ENDMDL
MODEL 7
REMARK VINA RESULT:      -6.0      2.580      4.068
REMARK  Name = 
REMARK  12 active torsions:
REMARK  status: ('A' for Active; 'I' for Inactive)
REMARK    1  A    between atoms: C_1  and  O_2
REMARK    2  A    between atoms: O_2  and  C_3
REMARK    3  A    between atoms: C_4  and  O_30
REMARK    4  A    between atoms: C_6  and  C_9
REMARK    5  A    between atoms: C_10  and  O_28
REMARK    6  A    between atoms: C_16  and  C_24
REMARK    7  A    between atoms: C_17  and  O_22
REMARK    8  A    between atoms: C_19  and  O_20
REMARK    9  A    between atoms: O_20  and  C_21
REMARK   10  A    between atoms: O_22  and  C_23
REMARK   11  A    between atoms: O_28  and  C_29
REMARK   12  A    between atoms: O_30  and  C_31
REMARK                            x       y       z     vdW  Elec       q    Type
REMARK                         _______ _______ _______ _____ _____    ______ ____
ROOT
ATOM      1  C   UNL     1       8.482  -0.140  24.277  0.00  0.00    +0.181 A 
ATOM      2  O   UNL     1       7.822   0.540  25.285  0.00  0.00    -0.450 OA
ATOM      3  C   UNL     1       7.966   1.903  25.430  0.00  0.00    +0.158 A 
ATOM      4  C   UNL     1       7.247   2.495  26.499  0.00  0.00    +0.139 A 
ATOM      5  C   UNL     1       7.299   3.886  26.656  0.00  0.00    +0.139 A 
ATOM      6  C   UNL     1       8.047   4.642  25.758  0.00  0.00    +0.092 A 
ATOM      7  C   UNL     1       8.786   4.071  24.704  0.00  0.00    +0.138 A 
ATOM      8  C   UNL     1       8.758   2.672  24.546  0.00  0.00    +0.110 A 
ATOM      9  C   UNL     1       9.512   1.910  23.526  0.00  0.00    +0.238 A 
ATOM     10  O   UNL     1      10.238   2.444  22.697  0.00  0.00    -0.283 OA
ATOM     11  C   UNL     1       9.371   0.429  23.437  0.00  0.00    +0.211 A 
ENDROOT
BRANCH   1  15
ATOM     12  C   UNL     1       6.801  -3.984  23.483  0.00  0.00    +0.162 A 
ATOM     13  C   UNL     1       6.070  -2.811  23.297  0.00  0.00    +0.050 A 
ATOM     14  C   UNL     1       6.632  -1.580  23.619  0.00  0.00    +0.015 A 
ATOM     15  C   UNL     1       7.948  -1.495  24.091  0.00  0.00    +0.025 A 
ATOM     16  C   UNL     1       8.679  -2.669  24.314  0.00  0.00    +0.061 A 
ATOM     17  C   UNL     1       8.101  -3.915  24.019  0.00  0.00    +0.162 A 
BRANCH  12  19
ATOM     18  C   UNL     1       6.223  -5.495  21.751  0.00  0.00    +0.277 C 
ATOM     19  O   UNL     1       6.323  -5.227  23.146  0.00  0.00    -0.491 OA
ENDBRANCH  12  19
BRANCH  17  20
ATOM     20  O   UNL     1       8.770  -5.104  24.174  0.00  0.00    -0.491 OA
ATOM     21  C   UNL     1       9.518  -5.227  25.380  0.00  0.00    +0.277 C 
ENDBRANCH  17  20
ENDBRANCH   1  15
BRANCH   4  22
ATOM     22  C   UNL     1       6.438   1.692  27.492  0.00  0.00    +0.424 C 
ATOM     23  F   UNL     1       6.956   1.732  28.754  0.00  0.00    -0.166 F 
ATOM     24  F   UNL     1       6.365   0.371  27.156  0.00  0.00    -0.166 F 
ATOM     25  F   UNL     1       5.140   2.083  27.636  0.00  0.00    -0.166 F 
ENDBRANCH   4  22
BRANCH   5  26
ATOM     26  O   UNL     1       6.597   4.424  27.702  0.00  0.00    -0.494 OA
ATOM     27  C   UNL     1       5.634   5.434  27.405  0.00  0.00    +0.277 C 
ENDBRANCH   5  26
BRANCH   7  28
ATOM     28  O   UNL     1       9.400   5.094  24.044  0.00  0.00    -0.494 OA
ATOM     29  C   UNL     1       8.739   6.204  23.474  0.00  0.00    +0.277 C 
ENDBRANCH   7  28
BRANCH  11  30
ATOM     30  O   UNL     1      10.129  -0.095  22.425  0.00  0.00    -0.488 OA
ATOM     31  C   UNL     1       9.666  -0.743  21.263  0.00  0.00    +0.277 C 
ENDBRANCH  11  30
TORSDOF 7
ENDMDL
MODEL 8
REMARK VINA RESULT:      -6.0      2.174      7.028
REMARK  Name = 
REMARK  12 active torsions:
REMARK  status: ('A' for Active; 'I' for Inactive)
REMARK    1  A    between atoms: C_1  and  O_2
REMARK    2  A    between atoms: O_2  and  C_3
REMARK    3  A    between atoms: C_4  and  O_30
REMARK    4  A    between atoms: C_6  and  C_9
REMARK    5  A    between atoms: C_10  and  O_28
REMARK    6  A    between atoms: C_16  and  C_24
REMARK    7  A    between atoms: C_17  and  O_22
REMARK    8  A    between atoms: C_19  and  O_20
REMARK    9  A    between atoms: O_20  and  C_21
REMARK   10  A    between atoms: O_22  and  C_23
REMARK   11  A    between atoms: O_28  and  C_29
REMARK   12  A    between atoms: O_30  and  C_31
REMARK                            x       y       z     vdW  Elec       q    Type
REMARK                         _______ _______ _______ _____ _____    ______ ____
ROOT
ATOM      1  C   UNL     1       7.560   1.374  25.099  0.00  0.00    +0.181 A 
ATOM      2  O   UNL     1       8.163   0.255  24.555  0.00  0.00    -0.450 OA
ATOM      3  C   UNL     1       7.903  -1.003  25.057  0.00  0.00    +0.158 A 
ATOM      4  C   UNL     1       8.579  -2.077  24.426  0.00  0.00    +0.139 A 
ATOM      5  C   UNL     1       8.305  -3.385  24.847  0.00  0.00    +0.139 A 
ATOM      6  C   UNL     1       7.376  -3.589  25.863  0.00  0.00    +0.092 A 
ATOM      7  C   UNL     1       6.711  -2.534  26.517  0.00  0.00    +0.138 A 
ATOM      8  C   UNL     1       6.992  -1.214  26.117  0.00  0.00    +0.110 A 
ATOM      9  C   UNL     1       6.421   0.007  26.730  0.00  0.00    +0.238 A 
ATOM     10  O   UNL     1       5.621  -0.025  27.656  0.00  0.00    -0.283 OA
ATOM     11  C   UNL     1       6.770   1.352  26.192  0.00  0.00    +0.211 A 
ENDROOT
BRANCH   1  15
ATOM     12  C   UNL     1       7.682   4.815  22.574  0.00  0.00    +0.162 A 
ATOM     13  C   UNL     1       6.751   3.796  22.380  0.00  0.00    +0.050 A 
ATOM     14  C   UNL     1       6.777   2.663  23.187  0.00  0.00    +0.015 A 
ATOM     15  C   UNL     1       7.704   2.550  24.231  0.00  0.00    +0.025 A 
ATOM     16  C   UNL     1       8.667   3.552  24.413  0.00  0.00    +0.061 A 
ATOM     17  C   UNL     1       8.661   4.681  23.577  0.00  0.00    +0.162 A 
BRANCH  12  19
ATOM     18  C   UNL     1       6.630   6.890  22.122  0.00  0.00    +0.277 C 
ATOM     19  O   UNL     1       7.686   5.978  21.841  0.00  0.00    -0.491 OA
ENDBRANCH  12  19
BRANCH  17  20
ATOM     20  O   UNL     1       9.546   5.720  23.721  0.00  0.00    -0.491 OA
ATOM     21  C   UNL     1       9.447   6.437  24.948  0.00  0.00    +0.277 C 
ENDBRANCH  17  20
ENDBRANCH   1  15
BRANCH   4  22
ATOM     22  C   UNL     1       9.600  -1.877  23.328  0.00  0.00    +0.424 C 
ATOM     23  F   UNL     1       9.119  -2.196  22.092  0.00  0.00    -0.166 F 
ATOM     24  F   UNL     1      10.715  -2.643  23.509  0.00  0.00    -0.166 F 
ATOM     25  F   UNL     1      10.072  -0.604  23.200  0.00  0.00    -0.166 F 
ENDBRANCH   4  22
BRANCH   5  26
ATOM     26  O   UNL     1       8.979  -4.399  24.218  0.00  0.00    -0.494 OA
ATOM     27  C   UNL     1       9.336  -5.540  24.996  0.00  0.00    +0.277 C 
ENDBRANCH   5  26
BRANCH   7  28
ATOM     28  O   UNL     1       5.896  -3.095  27.456  0.00  0.00    -0.494 OA
ATOM     29  C   UNL     1       5.845  -4.469  27.769  0.00  0.00    +0.277 C 
ENDBRANCH   7  28
BRANCH  11  30
ATOM     30  O   UNL     1       6.133   2.353  26.874  0.00  0.00    -0.488 OA
ATOM     31  C   UNL     1       6.718   3.303  27.733  0.00  0.00    +0.277 C 
ENDBRANCH  11  30
TORSDOF 7
ENDMDL
MODEL 9
REMARK VINA RESULT:      -5.9      3.101      4.576
REMARK  Name = 
REMARK  12 active torsions:
REMARK  status: ('A' for Active; 'I' for Inactive)
REMARK    1  A    between atoms: C_1  and  O_2
REMARK    2  A    between atoms: O_2  and  C_3
REMARK    3  A    between atoms: C_4  and  O_30
REMARK    4  A    between atoms: C_6  and  C_9
REMARK    5  A    between atoms: C_10  and  O_28
REMARK    6  A    between atoms: C_16  and  C_24
REMARK    7  A    between atoms: C_17  and  O_22
REMARK    8  A    between atoms: C_19  and  O_20
REMARK    9  A    between atoms: O_20  and  C_21
REMARK   10  A    between atoms: O_22  and  C_23
REMARK   11  A    between atoms: O_28  and  C_29
REMARK   12  A    between atoms: O_30  and  C_31
REMARK                            x       y       z     vdW  Elec       q    Type
REMARK                         _______ _______ _______ _____ _____    ______ ____
ROOT
ATOM      1  C   UNL     1       7.133  -0.697  23.528  0.00  0.00    +0.181 A 
ATOM      2  O   UNL     1       6.300   0.108  24.283  0.00  0.00    -0.450 OA
ATOM      3  C   UNL     1       6.279   1.475  24.099  0.00  0.00    +0.158 A 
ATOM      4  C   UNL     1       5.391   2.202  24.930  0.00  0.00    +0.139 A 
ATOM      5  C   UNL     1       5.276   3.585  24.744  0.00  0.00    +0.139 A 
ATOM      6  C   UNL     1       6.029   4.201  23.748  0.00  0.00    +0.092 A 
ATOM      7  C   UNL     1       6.933   3.499  22.928  0.00  0.00    +0.138 A 
ATOM      8  C   UNL     1       7.073   2.111  23.117  0.00  0.00    +0.110 A 
ATOM      9  C   UNL     1       8.011   1.236  22.378  0.00  0.00    +0.238 A 
ATOM     10  O   UNL     1       8.759   1.650  21.502  0.00  0.00    -0.283 OA
ATOM     11  C   UNL     1       8.040  -0.230  22.645  0.00  0.00    +0.211 A 
ENDROOT
BRANCH   1  15
ATOM     12  C   UNL     1       5.961  -4.760  24.118  0.00  0.00    +0.162 A 
ATOM     13  C   UNL     1       6.514  -3.999  25.147  0.00  0.00    +0.050 A 
ATOM     14  C   UNL     1       6.936  -2.696  24.903  0.00  0.00    +0.015 A 
ATOM     15  C   UNL     1       6.771  -2.116  23.639  0.00  0.00    +0.025 A 
ATOM     16  C   UNL     1       6.248  -2.882  22.589  0.00  0.00    +0.061 A 
ATOM     17  C   UNL     1       5.852  -4.208  22.827  0.00  0.00    +0.162 A 
BRANCH  12  19
ATOM     18  C   UNL     1       5.097  -6.369  25.629  0.00  0.00    +0.277 C 
ATOM     19  O   UNL     1       5.485  -6.036  24.300  0.00  0.00    -0.491 OA
ENDBRANCH  12  19
BRANCH  17  20
ATOM     20  O   UNL     1       5.294  -5.005  21.858  0.00  0.00    -0.491 OA
ATOM     21  C   UNL     1       6.221  -5.621  20.971  0.00  0.00    +0.277 C 
ENDBRANCH  17  20
ENDBRANCH   1  15
BRANCH   4  22
ATOM     22  C   UNL     1       4.572   1.556  26.025  0.00  0.00    +0.424 C 
ATOM     23  F   UNL     1       3.255   1.909  25.981  0.00  0.00    -0.166 F 
ATOM     24  F   UNL     1       5.013   1.893  27.272  0.00  0.00    -0.166 F 
ATOM     25  F   UNL     1       4.566   0.192  26.018  0.00  0.00    -0.166 F 
ENDBRANCH   4  22
BRANCH   5  26
ATOM     26  O   UNL     1       4.412   4.258  25.567  0.00  0.00    -0.494 OA
ATOM     27  C   UNL     1       4.962   5.221  26.464  0.00  0.00    +0.277 C 
ENDBRANCH   5  26
BRANCH   7  28
ATOM     28  O   UNL     1       7.501   4.410  22.086  0.00  0.00    -0.494 OA
ATOM     29  C   UNL     1       7.212   5.791  22.072  0.00  0.00    +0.277 C 
ENDBRANCH   7  28
BRANCH  11  30
ATOM     30  O   UNL     1       8.954  -0.873  21.854  0.00  0.00    -0.488 OA
ATOM     31  C   UNL     1      10.150  -1.491  22.267  0.00  0.00    +0.277 C 
ENDBRANCH  11  30
TORSDOF 7
ENDMDL
