MODEL 1
REMARK VINA RESULT:      -7.5      0.000      0.000
REMARK  Name = 
REMARK  17 active torsions:
REMARK  status: ('A' for Active; 'I' for Inactive)
REMARK    1  A    between atoms: C_1  and  C_2
REMARK    2  A    between atoms: C_4  and  O_53
REMARK    3  A    between atoms: C_6  and  O_52
REMARK    4  A    between atoms: C_8  and  O_51
REMARK    5  A    between atoms: C_10  and  O_13
REMARK    6  A    between atoms: O_13  and  C_14
REMARK    7  A    between atoms: C_14  and  C_15
REMARK    8  A    between atoms: C_17  and  O_50
REMARK    9  A    between atoms: C_19  and  O_49
REMARK   10  A    between atoms: C_21  and  O_48
REMARK   11  A    between atoms: C_23  and  O_26
REMARK   12  A    between atoms: O_26  and  C_27
REMARK   13  A    between atoms: C_28  and  C_40
REMARK   14  A    between atoms: C_32  and  O_39
REMARK   15  A    between atoms: C_34  and  O_38
REMARK   16  A    between atoms: C_42  and  O_47
REMARK   17  A    between atoms: C_43  and  O_46
REMARK                            x       y       z     vdW  Elec       q    Type
REMARK                         _______ _______ _______ _____ _____    ______ ____
ROOT
ATOM      1  C   UNL     1       5.642  -1.552  25.795  0.00  0.00    +0.179 C 
ATOM      2  O   UNL     1       5.542  -0.586  24.735  0.00  0.00    -0.331 OA
ATOM      3  C   UNL     1       6.020   0.691  25.164  0.00  0.00    +0.340 C 
ATOM      4  C   UNL     1       4.962   1.262  26.142  0.00  0.00    +0.214 C 
ATOM      5  C   UNL     1       4.873   0.247  27.325  0.00  0.00    +0.180 C 
ATOM      6  C   UNL     1       4.596  -1.196  26.852  0.00  0.00    +0.177 C 
ENDROOT
BRANCH   6   7
ATOM      7  O   UNL     1       4.672  -2.066  27.991  0.00  0.00    -0.386 OA
ATOM      8  H   UNL     1       4.184  -2.876  27.750  0.00  0.00    +0.210 HD
ENDBRANCH   6   7
BRANCH   5   9
ATOM      9  O   UNL     1       3.893   0.626  28.298  0.00  0.00    -0.386 OA
ATOM     10  H   UNL     1       3.085   0.131  28.051  0.00  0.00    +0.210 HD
ENDBRANCH   5   9
BRANCH   4  11
ATOM     11  O   UNL     1       5.358   2.561  26.608  0.00  0.00    -0.383 OA
ATOM     12  H   UNL     1       5.979   2.936  25.961  0.00  0.00    +0.210 HD
ENDBRANCH   4  11
BRANCH   3  13
ATOM     13  O   UNL     1       6.356   1.512  24.015  0.00  0.00    -0.453 OA
BRANCH  13  14
ATOM     14  C   UNL     1       7.702   1.952  24.014  0.00  0.00    +0.214 A 
ATOM     15  C   UNL     1       8.050   3.336  24.501  0.00  0.00    +0.238 A 
ATOM     16  O   UNL     1       7.426   3.933  25.364  0.00  0.00    -0.283 OA
ATOM     17  C   UNL     1       9.264   3.958  24.015  0.00  0.00    +0.109 A 
ATOM     18  C   UNL     1      10.279   3.096  23.656  0.00  0.00    +0.147 A 
ATOM     19  C   UNL     1      11.539   3.612  23.365  0.00  0.00    +0.092 A 
ATOM     20  C   UNL     1      11.752   4.989  23.470  0.00  0.00    +0.124 A 
ATOM     21  C   UNL     1      10.728   5.861  23.818  0.00  0.00    +0.091 A 
ATOM     22  O   UNL     1      10.082   1.741  23.611  0.00  0.00    -0.451 OA
ATOM     23  C   UNL     1       9.469   5.344  24.079  0.00  0.00    +0.135 A 
ATOM     24  C   UNL     1       8.785   1.187  23.705  0.00  0.00    +0.181 A 
BRANCH  24  25
ATOM     25  C   UNL     1       8.857  -0.319  23.540  0.00  0.00    +0.025 A 
ATOM     26  C   UNL     1       9.630  -1.063  24.476  0.00  0.00    +0.015 A 
ATOM     27  C   UNL     1       9.575  -2.459  24.569  0.00  0.00    +0.050 A 
ATOM     28  C   UNL     1       8.764  -3.153  23.701  0.00  0.00    +0.158 A 
ATOM     29  C   UNL     1       8.090  -2.478  22.690  0.00  0.00    +0.159 A 
ATOM     30  C   UNL     1       8.120  -1.072  22.608  0.00  0.00    +0.060 A 
BRANCH  29  31
ATOM     31  O   UNL     1       7.385  -3.238  21.800  0.00  0.00    -0.503 OA
ATOM     32  H   UNL     1       7.928  -4.019  21.594  0.00  0.00    +0.292 HD
ENDBRANCH  29  31
BRANCH  28  33
ATOM     33  O   UNL     1       8.625  -4.502  23.849  0.00  0.00    -0.503 OA
ATOM     34  H   UNL     1       8.018  -4.607  24.608  0.00  0.00    +0.292 HD
ENDBRANCH  28  33
ENDBRANCH  24  25
BRANCH  23  35
ATOM     35  O   UNL     1       8.446   6.201  24.378  0.00  0.00    -0.506 OA
ATOM     36  H   UNL     1       8.712   7.109  24.161  0.00  0.00    +0.292 HD
ENDBRANCH  23  35
BRANCH  20  37
ATOM     37  O   UNL     1      12.973   5.549  23.240  0.00  0.00    -0.507 OA
ATOM     38  H   UNL     1      12.901   6.521  23.287  0.00  0.00    +0.292 HD
ENDBRANCH  20  37
ENDBRANCH  13  14
ENDBRANCH   3  13
BRANCH   1  39
ATOM     39  C   UNL     1       5.504  -2.957  25.210  0.00  0.00    +0.197 C 
BRANCH  39  40
ATOM     40  O   UNL     1       6.324  -3.849  25.954  0.00  0.00    -0.346 OA
BRANCH  40  44
ATOM     41  C   UNL     1       3.217  -6.888  26.434  0.00  0.00    +0.041 C 
ATOM     42  C   UNL     1       3.410  -5.626  27.268  0.00  0.00    +0.149 C 
ATOM     43  O   UNL     1       4.218  -4.650  26.602  0.00  0.00    -0.343 OA
ATOM     44  C   UNL     1       5.604  -4.961  26.492  0.00  0.00    +0.282 C 
ATOM     45  C   UNL     1       6.264  -5.256  27.856  0.00  0.00    +0.201 C 
ATOM     46  C   UNL     1       5.432  -6.223  28.704  0.00  0.00    +0.179 C 
ATOM     47  C   UNL     1       3.947  -5.844  28.689  0.00  0.00    +0.174 C 
BRANCH  47  48
ATOM     48  O   UNL     1       3.786  -4.614  29.417  0.00  0.00    -0.387 OA
ATOM     49  H   UNL     1       4.595  -4.079  29.282  0.00  0.00    +0.210 HD
ENDBRANCH  47  48
BRANCH  46  50
ATOM     50  O   UNL     1       5.650  -7.580  28.291  0.00  0.00    -0.386 OA
ATOM     51  H   UNL     1       4.882  -7.900  27.788  0.00  0.00    +0.210 HD
ENDBRANCH  46  50
BRANCH  45  52
ATOM     52  O   UNL     1       7.588  -5.790  27.653  0.00  0.00    -0.384 OA
ATOM     53  H   UNL     1       7.805  -6.346  28.424  0.00  0.00    +0.210 HD
ENDBRANCH  45  52
ENDBRANCH  40  44
ENDBRANCH  39  40
ENDBRANCH   1  39
TORSDOF 16
ENDMDL
MODEL 2
REMARK VINA RESULT:      -7.3      2.118      5.561
REMARK  Name = 
REMARK  17 active torsions:
REMARK  status: ('A' for Active; 'I' for Inactive)
REMARK    1  A    between atoms: C_1  and  C_2
REMARK    2  A    between atoms: C_4  and  O_53
REMARK    3  A    between atoms: C_6  and  O_52
REMARK    4  A    between atoms: C_8  and  O_51
REMARK    5  A    between atoms: C_10  and  O_13
REMARK    6  A    between atoms: O_13  and  C_14
REMARK    7  A    between atoms: C_14  and  C_15
REMARK    8  A    between atoms: C_17  and  O_50
REMARK    9  A    between atoms: C_19  and  O_49
REMARK   10  A    between atoms: C_21  and  O_48
REMARK   11  A    between atoms: C_23  and  O_26
REMARK   12  A    between atoms: O_26  and  C_27
REMARK   13  A    between atoms: C_28  and  C_40
REMARK   14  A    between atoms: C_32  and  O_39
REMARK   15  A    between atoms: C_34  and  O_38
REMARK   16  A    between atoms: C_42  and  O_47
REMARK   17  A    between atoms: C_43  and  O_46
REMARK                            x       y       z     vdW  Elec       q    Type
REMARK                         _______ _______ _______ _____ _____    ______ ____
ROOT
ATOM      1  C   UNL     1       6.265  -3.080  26.426  0.00  0.00    +0.179 C 
ATOM      2  O   UNL     1       7.545  -2.539  26.057  0.00  0.00    -0.331 OA
ATOM      3  C   UNL     1       8.301  -3.493  25.307  0.00  0.00    +0.340 C 
ATOM      4  C   UNL     1       8.755  -4.590  26.302  0.00  0.00    +0.214 C 
ATOM      5  C   UNL     1       7.448  -5.214  26.884  0.00  0.00    +0.180 C 
ATOM      6  C   UNL     1       6.499  -4.156  27.487  0.00  0.00    +0.177 C 
ENDROOT
BRANCH   6   7
ATOM      7  O   UNL     1       5.278  -4.808  27.864  0.00  0.00    -0.386 OA
ATOM      8  H   UNL     1       4.593  -4.484  27.248  0.00  0.00    +0.210 HD
ENDBRANCH   6   7
BRANCH   5   9
ATOM      9  O   UNL     1       7.714  -6.226  27.862  0.00  0.00    -0.386 OA
ATOM     10  H   UNL     1       7.862  -7.045  27.347  0.00  0.00    +0.210 HD
ENDBRANCH   5   9
BRANCH   4  11
ATOM     11  O   UNL     1       9.544  -5.583  25.629  0.00  0.00    -0.383 OA
ATOM     12  H   UNL     1       9.213  -6.459  25.892  0.00  0.00    +0.210 HD
ENDBRANCH   4  11
BRANCH   3  13
ATOM     13  O   UNL     1       9.346  -2.822  24.554  0.00  0.00    -0.453 OA
BRANCH  13  14
ATOM     14  C   UNL     1       8.868  -1.746  23.767  0.00  0.00    +0.214 A 
ATOM     15  C   UNL     1       9.700  -0.499  23.599  0.00  0.00    +0.238 A 
ATOM     16  O   UNL     1      10.920  -0.486  23.610  0.00  0.00    -0.283 OA
ATOM     17  C   UNL     1       9.030   0.745  23.281  0.00  0.00    +0.109 A 
ATOM     18  C   UNL     1       7.844   0.628  22.587  0.00  0.00    +0.147 A 
ATOM     19  C   UNL     1       7.240   1.774  22.075  0.00  0.00    +0.092 A 
ATOM     20  C   UNL     1       7.863   3.011  22.255  0.00  0.00    +0.124 A 
ATOM     21  C   UNL     1       9.050   3.134  22.966  0.00  0.00    +0.091 A 
ATOM     22  O   UNL     1       7.266  -0.593  22.362  0.00  0.00    -0.451 OA
ATOM     23  C   UNL     1       9.633   1.993  23.496  0.00  0.00    +0.135 A 
ATOM     24  C   UNL     1       7.730  -1.754  23.021  0.00  0.00    +0.181 A 
BRANCH  24  25
ATOM     25  C   UNL     1       6.855  -2.938  22.651  0.00  0.00    +0.025 A 
ATOM     26  C   UNL     1       7.472  -4.065  22.037  0.00  0.00    +0.015 A 
ATOM     27  C   UNL     1       6.821  -5.294  21.876  0.00  0.00    +0.050 A 
ATOM     28  C   UNL     1       5.518  -5.418  22.298  0.00  0.00    +0.158 A 
ATOM     29  C   UNL     1       4.838  -4.309  22.786  0.00  0.00    +0.159 A 
ATOM     30  C   UNL     1       5.494  -3.077  22.976  0.00  0.00    +0.060 A 
BRANCH  29  31
ATOM     31  O   UNL     1       3.516  -4.477  23.091  0.00  0.00    -0.503 OA
ATOM     32  H   UNL     1       3.336  -5.433  23.076  0.00  0.00    +0.292 HD
ENDBRANCH  29  31
BRANCH  28  33
ATOM     33  O   UNL     1       4.909  -6.637  22.239  0.00  0.00    -0.503 OA
ATOM     34  H   UNL     1       4.135  -6.500  21.658  0.00  0.00    +0.292 HD
ENDBRANCH  28  33
ENDBRANCH  24  25
BRANCH  23  35
ATOM     35  O   UNL     1      10.777   2.111  24.235  0.00  0.00    -0.506 OA
ATOM     36  H   UNL     1      11.527   2.284  23.642  0.00  0.00    +0.292 HD
ENDBRANCH  23  35
BRANCH  20  37
ATOM     37  O   UNL     1       7.343   4.161  21.742  0.00  0.00    -0.507 OA
ATOM     38  H   UNL     1       6.602   4.463  22.301  0.00  0.00    +0.292 HD
ENDBRANCH  20  37
ENDBRANCH  13  14
ENDBRANCH   3  13
BRANCH   1  39
ATOM     39  C   UNL     1       5.346  -1.941  26.867  0.00  0.00    +0.197 C 
BRANCH  39  40
ATOM     40  O   UNL     1       6.014  -1.162  27.849  0.00  0.00    -0.346 OA
BRANCH  40  44
ATOM     41  C   UNL     1       4.625   2.981  27.997  0.00  0.00    +0.041 C 
ATOM     42  C   UNL     1       4.445   1.988  26.854  0.00  0.00    +0.149 C 
ATOM     43  O   UNL     1       4.617   0.632  27.278  0.00  0.00    -0.343 OA
ATOM     44  C   UNL     1       5.951   0.244  27.595  0.00  0.00    +0.282 C 
ATOM     45  C   UNL     1       6.942   0.496  26.438  0.00  0.00    +0.201 C 
ATOM     46  C   UNL     1       6.782   1.896  25.836  0.00  0.00    +0.179 C 
ATOM     47  C   UNL     1       5.307   2.244  25.610  0.00  0.00    +0.174 C 
BRANCH  47  48
ATOM     48  O   UNL     1       4.804   1.415  24.546  0.00  0.00    -0.387 OA
ATOM     49  H   UNL     1       5.538   0.843  24.241  0.00  0.00    +0.210 HD
ENDBRANCH  47  48
BRANCH  46  50
ATOM     50  O   UNL     1       7.454   2.876  26.641  0.00  0.00    -0.386 OA
ATOM     51  H   UNL     1       6.811   3.331  27.212  0.00  0.00    +0.210 HD
ENDBRANCH  46  50
BRANCH  45  52
ATOM     52  O   UNL     1       8.293   0.308  26.902  0.00  0.00    -0.384 OA
ATOM     53  H   UNL     1       8.252  -0.164  27.753  0.00  0.00    +0.210 HD
ENDBRANCH  45  52
ENDBRANCH  40  44
ENDBRANCH  39  40
ENDBRANCH   1  39
TORSDOF 16
ENDMDL
MODEL 3
REMARK VINA RESULT:      -7.3      1.882      2.750
REMARK  Name = 
REMARK  17 active torsions:
REMARK  status: ('A' for Active; 'I' for Inactive)
REMARK    1  A    between atoms: C_1  and  C_2
REMARK    2  A    between atoms: C_4  and  O_53
REMARK    3  A    between atoms: C_6  and  O_52
REMARK    4  A    between atoms: C_8  and  O_51
REMARK    5  A    between atoms: C_10  and  O_13
REMARK    6  A    between atoms: O_13  and  C_14
REMARK    7  A    between atoms: C_14  and  C_15
REMARK    8  A    between atoms: C_17  and  O_50
REMARK    9  A    between atoms: C_19  and  O_49
REMARK   10  A    between atoms: C_21  and  O_48
REMARK   11  A    between atoms: C_23  and  O_26
REMARK   12  A    between atoms: O_26  and  C_27
REMARK   13  A    between atoms: C_28  and  C_40
REMARK   14  A    between atoms: C_32  and  O_39
REMARK   15  A    between atoms: C_34  and  O_38
REMARK   16  A    between atoms: C_42  and  O_47
REMARK   17  A    between atoms: C_43  and  O_46
REMARK                            x       y       z     vdW  Elec       q    Type
REMARK                         _______ _______ _______ _____ _____    ______ ____
ROOT
ATOM      1  C   UNL     1       5.259  -0.295  26.190  0.00  0.00    +0.179 C 
ATOM      2  O   UNL     1       5.450   0.254  24.875  0.00  0.00    -0.331 OA
ATOM      3  C   UNL     1       5.891   1.612  24.951  0.00  0.00    +0.340 C 
ATOM      4  C   UNL     1       4.677   2.454  25.416  0.00  0.00    +0.214 C 
ATOM      5  C   UNL     1       4.272   1.895  26.815  0.00  0.00    +0.180 C 
ATOM      6  C   UNL     1       4.027   0.371  26.801  0.00  0.00    +0.177 C 
ENDROOT
BRANCH   6   7
ATOM      7  O   UNL     1       3.800  -0.062  28.150  0.00  0.00    -0.386 OA
ATOM      8  H   UNL     1       4.654  -0.407  28.474  0.00  0.00    +0.210 HD
ENDBRANCH   6   7
BRANCH   5   9
ATOM      9  O   UNL     1       3.122   2.557  27.357  0.00  0.00    -0.386 OA
ATOM     10  H   UNL     1       2.459   2.545  26.637  0.00  0.00    +0.210 HD
ENDBRANCH   5   9
BRANCH   4  11
ATOM     11  O   UNL     1       5.030   3.843  25.499  0.00  0.00    -0.383 OA
ATOM     12  H   UNL     1       4.211   4.365  25.456  0.00  0.00    +0.210 HD
ENDBRANCH   4  11
BRANCH   3  13
ATOM     13  O   UNL     1       6.518   2.005  23.702  0.00  0.00    -0.453 OA
BRANCH  13  14
ATOM     14  C   UNL     1       7.873   2.393  23.852  0.00  0.00    +0.214 A 
ATOM     15  C   UNL     1       8.225   3.834  24.124  0.00  0.00    +0.238 A 
ATOM     16  O   UNL     1       7.508   4.608  24.740  0.00  0.00    -0.283 OA
ATOM     17  C   UNL     1       9.540   4.310  23.748  0.00  0.00    +0.109 A 
ATOM     18  C   UNL     1      10.542   3.362  23.739  0.00  0.00    +0.147 A 
ATOM     19  C   UNL     1      11.864   3.771  23.580  0.00  0.00    +0.092 A 
ATOM     20  C   UNL     1      12.145   5.134  23.460  0.00  0.00    +0.124 A 
ATOM     21  C   UNL     1      11.137   6.090  23.456  0.00  0.00    +0.091 A 
ATOM     22  O   UNL     1      10.267   2.032  23.915  0.00  0.00    -0.451 OA
ATOM     23  C   UNL     1       9.821   5.675  23.587  0.00  0.00    +0.135 A 
ATOM     24  C   UNL     1       8.940   1.549  23.884  0.00  0.00    +0.181 A 
BRANCH  24  25
ATOM     25  C   UNL     1       8.940   0.037  24.018  0.00  0.00    +0.025 A 
ATOM     26  C   UNL     1       9.395  -0.736  22.913  0.00  0.00    +0.015 A 
ATOM     27  C   UNL     1       9.667  -2.107  23.005  0.00  0.00    +0.050 A 
ATOM     28  C   UNL     1       9.459  -2.748  24.203  0.00  0.00    +0.158 A 
ATOM     29  C   UNL     1       8.897  -2.060  25.271  0.00  0.00    +0.159 A 
ATOM     30  C   UNL     1       8.646  -0.676  25.194  0.00  0.00    +0.060 A 
BRANCH  29  31
ATOM     31  O   UNL     1       8.621  -2.781  26.399  0.00  0.00    -0.503 OA
ATOM     32  H   UNL     1       9.199  -3.565  26.388  0.00  0.00    +0.292 HD
ENDBRANCH  29  31
BRANCH  28  33
ATOM     33  O   UNL     1       9.817  -4.058  24.332  0.00  0.00    -0.503 OA
ATOM     34  H   UNL     1      10.737  -4.098  24.003  0.00  0.00    +0.292 HD
ENDBRANCH  28  33
ENDBRANCH  24  25
BRANCH  23  35
ATOM     35  O   UNL     1       8.821   6.605  23.539  0.00  0.00    -0.506 OA
ATOM     36  H   UNL     1       8.799   7.099  24.375  0.00  0.00    +0.292 HD
ENDBRANCH  23  35
BRANCH  20  37
ATOM     37  O   UNL     1      13.421   5.599  23.344  0.00  0.00    -0.507 OA
ATOM     38  H   UNL     1      13.426   6.410  22.802  0.00  0.00    +0.292 HD
ENDBRANCH  20  37
ENDBRANCH  13  14
ENDBRANCH   3  13
BRANCH   1  39
ATOM     39  C   UNL     1       5.178  -1.818  26.091  0.00  0.00    +0.197 C 
BRANCH  39  40
ATOM     40  O   UNL     1       4.130  -2.168  25.198  0.00  0.00    -0.346 OA
BRANCH  40  44
ATOM     41  C   UNL     1       3.860  -6.240  23.627  0.00  0.00    +0.041 C 
ATOM     42  C   UNL     1       4.901  -5.692  24.598  0.00  0.00    +0.149 C 
ATOM     43  O   UNL     1       4.469  -4.487  25.239  0.00  0.00    -0.343 OA
ATOM     44  C   UNL     1       4.421  -3.327  24.412  0.00  0.00    +0.282 C 
ATOM     45  C   UNL     1       5.768  -3.027  23.719  0.00  0.00    +0.201 C 
ATOM     46  C   UNL     1       6.378  -4.275  23.076  0.00  0.00    +0.179 C 
ATOM     47  C   UNL     1       6.306  -5.483  24.017  0.00  0.00    +0.174 C 
BRANCH  47  48
ATOM     48  O   UNL     1       7.209  -5.256  25.115  0.00  0.00    -0.387 OA
ATOM     49  H   UNL     1       6.680  -5.245  25.939  0.00  0.00    +0.210 HD
ENDBRANCH  47  48
BRANCH  46  50
ATOM     50  O   UNL     1       5.770  -4.542  21.804  0.00  0.00    -0.386 OA
ATOM     51  H   UNL     1       4.814  -4.370  21.852  0.00  0.00    +0.210 HD
ENDBRANCH  46  50
BRANCH  45  52
ATOM     52  O   UNL     1       5.588  -1.997  22.727  0.00  0.00    -0.384 OA
ATOM     53  H   UNL     1       6.174  -1.254  22.961  0.00  0.00    +0.210 HD
ENDBRANCH  45  52
ENDBRANCH  40  44
ENDBRANCH  39  40
ENDBRANCH   1  39
TORSDOF 16
ENDMDL
MODEL 4
REMARK VINA RESULT:      -7.2      2.512      5.998
REMARK  Name = 
REMARK  17 active torsions:
REMARK  status: ('A' for Active; 'I' for Inactive)
REMARK    1  A    between atoms: C_1  and  C_2
REMARK    2  A    between atoms: C_4  and  O_53
REMARK    3  A    between atoms: C_6  and  O_52
REMARK    4  A    between atoms: C_8  and  O_51
REMARK    5  A    between atoms: C_10  and  O_13
REMARK    6  A    between atoms: O_13  and  C_14
REMARK    7  A    between atoms: C_14  and  C_15
REMARK    8  A    between atoms: C_17  and  O_50
REMARK    9  A    between atoms: C_19  and  O_49
REMARK   10  A    between atoms: C_21  and  O_48
REMARK   11  A    between atoms: C_23  and  O_26
REMARK   12  A    between atoms: O_26  and  C_27
REMARK   13  A    between atoms: C_28  and  C_40
REMARK   14  A    between atoms: C_32  and  O_39
REMARK   15  A    between atoms: C_34  and  O_38
REMARK   16  A    between atoms: C_42  and  O_47
REMARK   17  A    between atoms: C_43  and  O_46
REMARK                            x       y       z     vdW  Elec       q    Type
REMARK                         _______ _______ _______ _____ _____    ______ ____
ROOT
ATOM      1  C   UNL     1       7.799  -0.841  24.166  0.00  0.00    +0.179 C 
ATOM      2  O   UNL     1       8.469   0.280  24.767  0.00  0.00    -0.331 OA
ATOM      3  C   UNL     1       8.501   1.394  23.872  0.00  0.00    +0.340 C 
ATOM      4  C   UNL     1       9.518   1.044  22.756  0.00  0.00    +0.214 C 
ATOM      5  C   UNL     1       8.976  -0.244  22.063  0.00  0.00    +0.180 C 
ATOM      6  C   UNL     1       8.702  -1.389  23.061  0.00  0.00    +0.177 C 
ENDROOT
BRANCH   6   7
ATOM      7  O   UNL     1       8.080  -2.469  22.350  0.00  0.00    -0.386 OA
ATOM      8  H   UNL     1       8.698  -3.222  22.401  0.00  0.00    +0.210 HD
ENDBRANCH   6   7
BRANCH   5   9
ATOM      9  O   UNL     1       9.845  -0.715  21.026  0.00  0.00    -0.386 OA
ATOM     10  H   UNL     1       9.747  -0.068  20.298  0.00  0.00    +0.210 HD
ENDBRANCH   5   9
BRANCH   4  11
ATOM     11  O   UNL     1       9.628   2.127  21.819  0.00  0.00    -0.383 OA
ATOM     12  H   UNL     1       9.691   2.956  22.323  0.00  0.00    +0.210 HD
ENDBRANCH   4  11
BRANCH   3  13
ATOM     13  O   UNL     1       8.737   2.622  24.608  0.00  0.00    -0.453 OA
BRANCH  13  14
ATOM     14  C   UNL     1       7.840   3.663  24.265  0.00  0.00    +0.214 A 
ATOM     15  C   UNL     1       6.353   3.409  24.246  0.00  0.00    +0.238 A 
ATOM     16  O   UNL     1       5.788   2.606  24.970  0.00  0.00    -0.283 OA
ATOM     17  C   UNL     1       5.517   4.248  23.412  0.00  0.00    +0.109 A 
ATOM     18  C   UNL     1       5.985   5.525  23.183  0.00  0.00    +0.147 A 
ATOM     19  C   UNL     1       5.155   6.452  22.558  0.00  0.00    +0.092 A 
ATOM     20  C   UNL     1       3.858   6.074  22.202  0.00  0.00    +0.124 A 
ATOM     21  C   UNL     1       3.388   4.785  22.419  0.00  0.00    +0.091 A 
ATOM     22  O   UNL     1       7.237   5.909  23.586  0.00  0.00    -0.451 OA
ATOM     23  C   UNL     1       4.229   3.858  23.017  0.00  0.00    +0.135 A 
ATOM     24  C   UNL     1       8.181   4.961  24.043  0.00  0.00    +0.181 A 
BRANCH  24  25
ATOM     25  C   UNL     1       9.500   5.652  24.338  0.00  0.00    +0.025 A 
ATOM     26  C   UNL     1       9.549   6.575  25.421  0.00  0.00    +0.015 A 
ATOM     27  C   UNL     1      10.750   7.081  25.934  0.00  0.00    +0.050 A 
ATOM     28  C   UNL     1      11.936   6.701  25.352  0.00  0.00    +0.158 A 
ATOM     29  C   UNL     1      11.927   5.903  24.214  0.00  0.00    +0.159 A 
ATOM     30  C   UNL     1      10.725   5.368  23.709  0.00  0.00    +0.060 A 
BRANCH  29  31
ATOM     31  O   UNL     1      13.133   5.647  23.626  0.00  0.00    -0.503 OA
ATOM     32  H   UNL     1      13.093   6.000  22.719  0.00  0.00    +0.292 HD
ENDBRANCH  29  31
BRANCH  28  33
ATOM     33  O   UNL     1      13.114   7.108  25.906  0.00  0.00    -0.503 OA
ATOM     34  H   UNL     1      13.557   6.281  26.183  0.00  0.00    +0.292 HD
ENDBRANCH  28  33
ENDBRANCH  24  25
BRANCH  23  35
ATOM     35  O   UNL     1       3.789   2.576  23.193  0.00  0.00    -0.506 OA
ATOM     36  H   UNL     1       4.209   1.998  22.535  0.00  0.00    +0.292 HD
ENDBRANCH  23  35
BRANCH  20  37
ATOM     37  O   UNL     1       2.985   6.948  21.627  0.00  0.00    -0.507 OA
ATOM     38  H   UNL     1       2.297   6.453  21.144  0.00  0.00    +0.292 HD
ENDBRANCH  20  37
ENDBRANCH  13  14
ENDBRANCH   3  13
BRANCH   1  39
ATOM     39  C   UNL     1       7.435  -1.852  25.252  0.00  0.00    +0.197 C 
BRANCH  39  40
ATOM     40  O   UNL     1       8.041  -3.099  24.944  0.00  0.00    -0.346 OA
BRANCH  40  44
ATOM     41  C   UNL     1       5.380  -6.303  23.612  0.00  0.00    +0.041 C 
ATOM     42  C   UNL     1       4.978  -4.946  24.181  0.00  0.00    +0.149 C 
ATOM     43  O   UNL     1       6.039  -3.988  24.108  0.00  0.00    -0.343 OA
ATOM     44  C   UNL     1       7.130  -4.200  25.001  0.00  0.00    +0.282 C 
ATOM     45  C   UNL     1       6.688  -4.291  26.478  0.00  0.00    +0.201 C 
ATOM     46  C   UNL     1       5.486  -5.222  26.666  0.00  0.00    +0.179 C 
ATOM     47  C   UNL     1       4.409  -4.966  25.606  0.00  0.00    +0.174 C 
BRANCH  47  48
ATOM     48  O   UNL     1       3.817  -3.679  25.863  0.00  0.00    -0.387 OA
ATOM     49  H   UNL     1       3.732  -3.579  26.834  0.00  0.00    +0.210 HD
ENDBRANCH  47  48
BRANCH  46  50
ATOM     50  O   UNL     1       5.904  -6.594  26.693  0.00  0.00    -0.386 OA
ATOM     51  H   UNL     1       6.583  -6.747  26.013  0.00  0.00    +0.210 HD
ENDBRANCH  46  50
BRANCH  45  52
ATOM     52  O   UNL     1       7.791  -4.738  27.291  0.00  0.00    -0.384 OA
ATOM     53  H   UNL     1       7.512  -4.687  28.224  0.00  0.00    +0.210 HD
ENDBRANCH  45  52
ENDBRANCH  40  44
ENDBRANCH  39  40
ENDBRANCH   1  39
TORSDOF 16
ENDMDL
MODEL 5
REMARK VINA RESULT:      -7.1      1.486      1.773
REMARK  Name = 
REMARK  17 active torsions:
REMARK  status: ('A' for Active; 'I' for Inactive)
REMARK    1  A    between atoms: C_1  and  C_2
REMARK    2  A    between atoms: C_4  and  O_53
REMARK    3  A    between atoms: C_6  and  O_52
REMARK    4  A    between atoms: C_8  and  O_51
REMARK    5  A    between atoms: C_10  and  O_13
REMARK    6  A    between atoms: O_13  and  C_14
REMARK    7  A    between atoms: C_14  and  C_15
REMARK    8  A    between atoms: C_17  and  O_50
REMARK    9  A    between atoms: C_19  and  O_49
REMARK   10  A    between atoms: C_21  and  O_48
REMARK   11  A    between atoms: C_23  and  O_26
REMARK   12  A    between atoms: O_26  and  C_27
REMARK   13  A    between atoms: C_28  and  C_40
REMARK   14  A    between atoms: C_32  and  O_39
REMARK   15  A    between atoms: C_34  and  O_38
REMARK   16  A    between atoms: C_42  and  O_47
REMARK   17  A    between atoms: C_43  and  O_46
REMARK                            x       y       z     vdW  Elec       q    Type
REMARK                         _______ _______ _______ _____ _____    ______ ____
ROOT
ATOM      1  C   UNL     1       5.718  -1.217  25.848  0.00  0.00    +0.179 C 
ATOM      2  O   UNL     1       5.703  -0.429  24.646  0.00  0.00    -0.331 OA
ATOM      3  C   UNL     1       5.972   0.945  24.936  0.00  0.00    +0.340 C 
ATOM      4  C   UNL     1       4.712   1.511  25.638  0.00  0.00    +0.214 C 
ATOM      5  C   UNL     1       4.526   0.668  26.938  0.00  0.00    +0.180 C 
ATOM      6  C   UNL     1       4.478  -0.850  26.664  0.00  0.00    +0.177 C 
ENDROOT
BRANCH   6   7
ATOM      7  O   UNL     1       4.446  -1.535  27.923  0.00  0.00    -0.386 OA
ATOM      8  H   UNL     1       4.661  -2.468  27.733  0.00  0.00    +0.210 HD
ENDBRANCH   6   7
BRANCH   5   9
ATOM      9  O   UNL     1       3.361   1.055  27.678  0.00  0.00    -0.386 OA
ATOM     10  H   UNL     1       2.643   0.481  27.341  0.00  0.00    +0.210 HD
ENDBRANCH   5   9
BRANCH   4  11
ATOM     11  O   UNL     1       4.892   2.902  25.947  0.00  0.00    -0.383 OA
ATOM     12  H   UNL     1       4.299   3.125  26.685  0.00  0.00    +0.210 HD
ENDBRANCH   4  11
BRANCH   3  13
ATOM     13  O   UNL     1       6.415   1.632  23.736  0.00  0.00    -0.453 OA
BRANCH  13  14
ATOM     14  C   UNL     1       7.751   2.097  23.816  0.00  0.00    +0.214 A 
ATOM     15  C   UNL     1       8.040   3.499  24.292  0.00  0.00    +0.238 A 
ATOM     16  O   UNL     1       7.349   4.103  25.096  0.00  0.00    -0.283 OA
ATOM     17  C   UNL     1       9.274   4.132  23.875  0.00  0.00    +0.109 A 
ATOM     18  C   UNL     1      10.326   3.281  23.608  0.00  0.00    +0.147 A 
ATOM     19  C   UNL     1      11.594   3.814  23.392  0.00  0.00    +0.092 A 
ATOM     20  C   UNL     1      11.775   5.197  23.477  0.00  0.00    +0.124 A 
ATOM     21  C   UNL     1      10.715   6.057  23.733  0.00  0.00    +0.091 A 
ATOM     22  O   UNL     1      10.155   1.922  23.583  0.00  0.00    -0.451 OA
ATOM     23  C   UNL     1       9.450   5.523  23.920  0.00  0.00    +0.135 A 
ATOM     24  C   UNL     1       8.865   1.346  23.601  0.00  0.00    +0.181 A 
BRANCH  24  25
ATOM     25  C   UNL     1       8.974  -0.162  23.477  0.00  0.00    +0.025 A 
ATOM     26  C   UNL     1       9.820  -0.853  24.391  0.00  0.00    +0.015 A 
ATOM     27  C   UNL     1       9.812  -2.247  24.529  0.00  0.00    +0.050 A 
ATOM     28  C   UNL     1       8.977  -2.991  23.729  0.00  0.00    +0.158 A 
ATOM     29  C   UNL     1       8.229  -2.368  22.737  0.00  0.00    +0.159 A 
ATOM     30  C   UNL     1       8.211  -0.965  22.611  0.00  0.00    +0.060 A 
BRANCH  29  31
ATOM     31  O   UNL     1       7.499  -3.176  21.911  0.00  0.00    -0.503 OA
ATOM     32  H   UNL     1       6.970  -3.765  22.477  0.00  0.00    +0.292 HD
ENDBRANCH  29  31
BRANCH  28  33
ATOM     33  O   UNL     1       8.888  -4.337  23.925  0.00  0.00    -0.503 OA
ATOM     34  H   UNL     1       9.531  -4.723  23.297  0.00  0.00    +0.292 HD
ENDBRANCH  28  33
ENDBRANCH  24  25
BRANCH  23  35
ATOM     35  O   UNL     1       8.395   6.366  24.128  0.00  0.00    -0.506 OA
ATOM     36  H   UNL     1       8.727   7.246  24.370  0.00  0.00    +0.292 HD
ENDBRANCH  23  35
BRANCH  20  37
ATOM     37  O   UNL     1      12.999   5.773  23.317  0.00  0.00    -0.507 OA
ATOM     38  H   UNL     1      13.686   5.081  23.290  0.00  0.00    +0.292 HD
ENDBRANCH  20  37
ENDBRANCH  13  14
ENDBRANCH   3  13
BRANCH   1  39
ATOM     39  C   UNL     1       5.822  -2.696  25.479  0.00  0.00    +0.197 C 
BRANCH  39  40
ATOM     40  O   UNL     1       5.332  -2.878  24.158  0.00  0.00    -0.346 OA
BRANCH  40  44
ATOM     41  C   UNL     1       1.764  -5.316  23.494  0.00  0.00    +0.041 C 
ATOM     42  C   UNL     1       2.444  -5.020  24.826  0.00  0.00    +0.149 C 
ATOM     43  O   UNL     1       3.296  -3.871  24.760  0.00  0.00    -0.343 OA
ATOM     44  C   UNL     1       4.501  -4.034  24.017  0.00  0.00    +0.282 C 
ATOM     45  C   UNL     1       5.358  -5.219  24.513  0.00  0.00    +0.201 C 
ATOM     46  C   UNL     1       4.527  -6.489  24.715  0.00  0.00    +0.179 C 
ATOM     47  C   UNL     1       3.216  -6.189  25.452  0.00  0.00    +0.174 C 
BRANCH  47  48
ATOM     48  O   UNL     1       3.531  -5.835  26.810  0.00  0.00    -0.387 OA
ATOM     49  H   UNL     1       2.739  -6.017  27.358  0.00  0.00    +0.210 HD
ENDBRANCH  47  48
BRANCH  46  50
ATOM     50  O   UNL     1       4.305  -7.157  23.464  0.00  0.00    -0.386 OA
ATOM     51  H   UNL     1       5.113  -7.123  22.924  0.00  0.00    +0.210 HD
ENDBRANCH  46  50
BRANCH  45  52
ATOM     52  O   UNL     1       6.429  -5.471  23.582  0.00  0.00    -0.384 OA
ATOM     53  H   UNL     1       6.226  -6.302  23.115  0.00  0.00    +0.210 HD
ENDBRANCH  45  52
ENDBRANCH  40  44
ENDBRANCH  39  40
ENDBRANCH   1  39
TORSDOF 16
ENDMDL
MODEL 6
REMARK VINA RESULT:      -7.0      2.671      8.935
REMARK  Name = 
REMARK  17 active torsions:
REMARK  status: ('A' for Active; 'I' for Inactive)
REMARK    1  A    between atoms: C_1  and  C_2
REMARK    2  A    between atoms: C_4  and  O_53
REMARK    3  A    between atoms: C_6  and  O_52
REMARK    4  A    between atoms: C_8  and  O_51
REMARK    5  A    between atoms: C_10  and  O_13
REMARK    6  A    between atoms: O_13  and  C_14
REMARK    7  A    between atoms: C_14  and  C_15
REMARK    8  A    between atoms: C_17  and  O_50
REMARK    9  A    between atoms: C_19  and  O_49
REMARK   10  A    between atoms: C_21  and  O_48
REMARK   11  A    between atoms: C_23  and  O_26
REMARK   12  A    between atoms: O_26  and  C_27
REMARK   13  A    between atoms: C_28  and  C_40
REMARK   14  A    between atoms: C_32  and  O_39
REMARK   15  A    between atoms: C_34  and  O_38
REMARK   16  A    between atoms: C_42  and  O_47
REMARK   17  A    between atoms: C_43  and  O_46
REMARK                            x       y       z     vdW  Elec       q    Type
REMARK                         _______ _______ _______ _____ _____    ______ ____
ROOT
ATOM      1  C   UNL     1       9.789   1.451  23.896  0.00  0.00    +0.179 C 
ATOM      2  O   UNL     1       9.062   0.477  24.664  0.00  0.00    -0.331 OA
ATOM      3  C   UNL     1       9.620  -0.828  24.489  0.00  0.00    +0.340 C 
ATOM      4  C   UNL     1       9.245  -1.288  23.058  0.00  0.00    +0.214 C 
ATOM      5  C   UNL     1       9.885  -0.247  22.087  0.00  0.00    +0.180 C 
ATOM      6  C   UNL     1       9.481   1.205  22.418  0.00  0.00    +0.177 C 
ENDROOT
BRANCH   6   7
ATOM      7  O   UNL     1      10.225   2.087  21.565  0.00  0.00    -0.386 OA
ATOM      8  H   UNL     1      10.915   1.541  21.142  0.00  0.00    +0.210 HD
ENDBRANCH   6   7
BRANCH   5   9
ATOM      9  O   UNL     1       9.584  -0.523  20.713  0.00  0.00    -0.386 OA
ATOM     10  H   UNL     1      10.340  -0.160  20.209  0.00  0.00    +0.210 HD
ENDBRANCH   5   9
BRANCH   4  11
ATOM     11  O   UNL     1       9.753  -2.607  22.805  0.00  0.00    -0.383 OA
ATOM     12  H   UNL     1       9.961  -2.674  21.858  0.00  0.00    +0.210 HD
ENDBRANCH   4  11
BRANCH   3  13
ATOM     13  O   UNL     1       9.215  -1.695  25.580  0.00  0.00    -0.453 OA
BRANCH  13  14
ATOM     14  C   UNL     1       7.929  -2.261  25.400  0.00  0.00    +0.214 A 
ATOM     15  C   UNL     1       7.784  -3.659  24.853  0.00  0.00    +0.238 A 
ATOM     16  O   UNL     1       8.601  -4.549  25.028  0.00  0.00    -0.283 OA
ATOM     17  C   UNL     1       6.551  -4.018  24.184  0.00  0.00    +0.109 A 
ATOM     18  C   UNL     1       5.425  -3.334  24.592  0.00  0.00    +0.147 A 
ATOM     19  C   UNL     1       4.175  -3.752  24.141  0.00  0.00    +0.092 A 
ATOM     20  C   UNL     1       4.090  -4.869  23.307  0.00  0.00    +0.124 A 
ATOM     21  C   UNL     1       5.223  -5.551  22.883  0.00  0.00    +0.091 A 
ATOM     22  O   UNL     1       5.507  -2.275  25.457  0.00  0.00    -0.451 OA
ATOM     23  C   UNL     1       6.467  -5.115  23.313  0.00  0.00    +0.135 A 
ATOM     24  C   UNL     1       6.753  -1.695  25.785  0.00  0.00    +0.181 A 
BRANCH  24  25
ATOM     25  C   UNL     1       6.538  -0.494  26.687  0.00  0.00    +0.025 A 
ATOM     26  C   UNL     1       5.250   0.112  26.705  0.00  0.00    +0.015 A 
ATOM     27  C   UNL     1       4.868   1.059  27.664  0.00  0.00    +0.050 A 
ATOM     28  C   UNL     1       5.782   1.450  28.614  0.00  0.00    +0.158 A 
ATOM     29  C   UNL     1       7.088   0.980  28.557  0.00  0.00    +0.159 A 
ATOM     30  C   UNL     1       7.471   0.007  27.613  0.00  0.00    +0.060 A 
BRANCH  29  31
ATOM     31  O   UNL     1       7.971   1.487  29.469  0.00  0.00    -0.503 OA
ATOM     32  H   UNL     1       8.809   1.647  29.000  0.00  0.00    +0.292 HD
ENDBRANCH  29  31
BRANCH  28  33
ATOM     33  O   UNL     1       5.390   2.294  29.612  0.00  0.00    -0.503 OA
ATOM     34  H   UNL     1       6.195   2.800  29.840  0.00  0.00    +0.292 HD
ENDBRANCH  28  33
ENDBRANCH  24  25
BRANCH  23  35
ATOM     35  O   UNL     1       7.589  -5.753  22.864  0.00  0.00    -0.506 OA
ATOM     36  H   UNL     1       7.475  -5.986  21.928  0.00  0.00    +0.292 HD
ENDBRANCH  23  35
BRANCH  20  37
ATOM     37  O   UNL     1       2.893  -5.350  22.868  0.00  0.00    -0.507 OA
ATOM     38  H   UNL     1       3.045  -6.081  22.239  0.00  0.00    +0.292 HD
ENDBRANCH  20  37
ENDBRANCH  13  14
ENDBRANCH   3  13
BRANCH   1  39
ATOM     39  C   UNL     1       9.437   2.851  24.396  0.00  0.00    +0.197 C 
BRANCH  39  40
ATOM     40  O   UNL     1       8.759   3.554  23.363  0.00  0.00    -0.346 OA
BRANCH  40  44
ATOM     41  C   UNL     1       5.504   4.859  25.974  0.00  0.00    +0.041 C 
ATOM     42  C   UNL     1       5.573   3.573  25.158  0.00  0.00    +0.149 C 
ATOM     43  O   UNL     1       6.911   3.243  24.772  0.00  0.00    -0.343 OA
ATOM     44  C   UNL     1       7.492   4.076  23.773  0.00  0.00    +0.282 C 
ATOM     45  C   UNL     1       6.643   4.153  22.485  0.00  0.00    +0.201 C 
ATOM     46  C   UNL     1       5.163   4.407  22.783  0.00  0.00    +0.179 C 
ATOM     47  C   UNL     1       4.660   3.518  23.926  0.00  0.00    +0.174 C 
BRANCH  47  48
ATOM     48  O   UNL     1       4.628   2.157  23.459  0.00  0.00    -0.387 OA
ATOM     49  H   UNL     1       5.551   1.829  23.430  0.00  0.00    +0.210 HD
ENDBRANCH  47  48
BRANCH  46  50
ATOM     50  O   UNL     1       4.926   5.800  23.036  0.00  0.00    -0.386 OA
ATOM     51  H   UNL     1       4.990   6.302  22.205  0.00  0.00    +0.210 HD
ENDBRANCH  46  50
BRANCH  45  52
ATOM     52  O   UNL     1       7.159   5.184  21.620  0.00  0.00    -0.384 OA
ATOM     53  H   UNL     1       7.628   5.832  22.178  0.00  0.00    +0.210 HD
ENDBRANCH  45  52
ENDBRANCH  40  44
ENDBRANCH  39  40
ENDBRANCH   1  39
TORSDOF 16
ENDMDL
MODEL 7
REMARK VINA RESULT:      -6.9      1.913      9.571
REMARK  Name = 
REMARK  17 active torsions:
REMARK  status: ('A' for Active; 'I' for Inactive)
REMARK    1  A    between atoms: C_1  and  C_2
REMARK    2  A    between atoms: C_4  and  O_53
REMARK    3  A    between atoms: C_6  and  O_52
REMARK    4  A    between atoms: C_8  and  O_51
REMARK    5  A    between atoms: C_10  and  O_13
REMARK    6  A    between atoms: O_13  and  C_14
REMARK    7  A    between atoms: C_14  and  C_15
REMARK    8  A    between atoms: C_17  and  O_50
REMARK    9  A    between atoms: C_19  and  O_49
REMARK   10  A    between atoms: C_21  and  O_48
REMARK   11  A    between atoms: C_23  and  O_26
REMARK   12  A    between atoms: O_26  and  C_27
REMARK   13  A    between atoms: C_28  and  C_40
REMARK   14  A    between atoms: C_32  and  O_39
REMARK   15  A    between atoms: C_34  and  O_38
REMARK   16  A    between atoms: C_42  and  O_47
REMARK   17  A    between atoms: C_43  and  O_46
REMARK                            x       y       z     vdW  Elec       q    Type
REMARK                         _______ _______ _______ _____ _____    ______ ____
ROOT
ATOM      1  C   UNL     1       8.787   0.352  24.359  0.00  0.00    +0.179 C 
ATOM      2  O   UNL     1       7.494   0.020  23.826  0.00  0.00    -0.331 OA
ATOM      3  C   UNL     1       7.367  -1.393  23.647  0.00  0.00    +0.340 C 
ATOM      4  C   UNL     1       8.257  -1.774  22.437  0.00  0.00    +0.214 C 
ATOM      5  C   UNL     1       9.712  -1.366  22.825  0.00  0.00    +0.180 C 
ATOM      6  C   UNL     1       9.822   0.110  23.260  0.00  0.00    +0.177 C 
ENDROOT
BRANCH   6   7
ATOM      7  O   UNL     1      11.159   0.345  23.726  0.00  0.00    -0.386 OA
ATOM      8  H   UNL     1      11.205   1.292  23.959  0.00  0.00    +0.210 HD
ENDBRANCH   6   7
BRANCH   5   9
ATOM      9  O   UNL     1      10.651  -1.623  21.773  0.00  0.00    -0.386 OA
ATOM     10  H   UNL     1      11.186  -0.807  21.704  0.00  0.00    +0.210 HD
ENDBRANCH   5   9
BRANCH   4  11
ATOM     11  O   UNL     1       8.170  -3.183  22.174  0.00  0.00    -0.383 OA
ATOM     12  H   UNL     1       7.834  -3.619  22.976  0.00  0.00    +0.210 HD
ENDBRANCH   4  11
BRANCH   3  13
ATOM     13  O   UNL     1       5.965  -1.763  23.568  0.00  0.00    -0.453 OA
BRANCH  13  14
ATOM     14  C   UNL     1       5.552  -2.623  24.616  0.00  0.00    +0.214 A 
ATOM     15  C   UNL     1       5.602  -4.120  24.434  0.00  0.00    +0.238 A 
ATOM     16  O   UNL     1       6.416  -4.696  23.730  0.00  0.00    -0.283 OA
ATOM     17  C   UNL     1       4.718  -4.945  25.231  0.00  0.00    +0.109 A 
ATOM     18  C   UNL     1       4.355  -4.427  26.456  0.00  0.00    +0.147 A 
ATOM     19  C   UNL     1       3.670  -5.235  27.360  0.00  0.00    +0.092 A 
ATOM     20  C   UNL     1       3.391  -6.560  27.015  0.00  0.00    +0.124 A 
ATOM     21  C   UNL     1       3.744  -7.080  25.776  0.00  0.00    +0.091 A 
ATOM     22  O   UNL     1       4.681  -3.146  26.815  0.00  0.00    -0.451 OA
ATOM     23  C   UNL     1       4.401  -6.263  24.869  0.00  0.00    +0.135 A 
ATOM     24  C   UNL     1       5.197  -2.231  25.869  0.00  0.00    +0.181 A 
BRANCH  24  25
ATOM     25  C   UNL     1       5.385  -0.873  26.519  0.00  0.00    +0.025 A 
ATOM     26  C   UNL     1       6.488  -0.695  27.402  0.00  0.00    +0.015 A 
ATOM     27  C   UNL     1       6.898   0.562  27.863  0.00  0.00    +0.050 A 
ATOM     28  C   UNL     1       6.191   1.676  27.476  0.00  0.00    +0.158 A 
ATOM     29  C   UNL     1       5.034   1.537  26.719  0.00  0.00    +0.159 A 
ATOM     30  C   UNL     1       4.631   0.279  26.229  0.00  0.00    +0.060 A 
BRANCH  29  31
ATOM     31  O   UNL     1       4.324   2.674  26.456  0.00  0.00    -0.503 OA
ATOM     32  H   UNL     1       4.330   2.802  25.491  0.00  0.00    +0.292 HD
ENDBRANCH  29  31
BRANCH  28  33
ATOM     33  O   UNL     1       6.642   2.912  27.836  0.00  0.00    -0.503 OA
ATOM     34  H   UNL     1       5.910   3.301  28.356  0.00  0.00    +0.292 HD
ENDBRANCH  28  33
ENDBRANCH  24  25
BRANCH  23  35
ATOM     35  O   UNL     1       4.711  -6.754  23.632  0.00  0.00    -0.506 OA
ATOM     36  H   UNL     1       5.229  -7.571  23.730  0.00  0.00    +0.292 HD
ENDBRANCH  23  35
BRANCH  20  37
ATOM     37  O   UNL     1       2.762  -7.411  27.873  0.00  0.00    -0.507 OA
ATOM     38  H   UNL     1       3.425  -7.865  28.427  0.00  0.00    +0.292 HD
ENDBRANCH  20  37
ENDBRANCH  13  14
ENDBRANCH   3  13
BRANCH   1  39
ATOM     39  C   UNL     1       8.755   1.781  24.901  0.00  0.00    +0.197 C 
BRANCH  39  40
ATOM     40  O   UNL     1       9.636   2.587  24.131  0.00  0.00    -0.346 OA
BRANCH  40  44
ATOM     41  C   UNL     1       8.840   6.886  24.055  0.00  0.00    +0.041 C 
ATOM     42  C   UNL     1       7.959   5.794  24.654  0.00  0.00    +0.149 C 
ATOM     43  O   UNL     1       8.682   4.584  24.903  0.00  0.00    -0.343 OA
ATOM     44  C   UNL     1       9.065   3.841  23.749  0.00  0.00    +0.282 C 
ATOM     45  C   UNL     1       7.870   3.488  22.837  0.00  0.00    +0.201 C 
ATOM     46  C   UNL     1       6.963   4.695  22.579  0.00  0.00    +0.179 C 
ATOM     47  C   UNL     1       6.680   5.470  23.871  0.00  0.00    +0.174 C 
BRANCH  47  48
ATOM     48  O   UNL     1       5.841   4.656  24.711  0.00  0.00    -0.387 OA
ATOM     49  H   UNL     1       5.413   5.246  25.366  0.00  0.00    +0.210 HD
ENDBRANCH  47  48
BRANCH  46  50
ATOM     50  O   UNL     1       7.513   5.535  21.553  0.00  0.00    -0.386 OA
ATOM     51  H   UNL     1       8.072   5.006  20.958  0.00  0.00    +0.210 HD
ENDBRANCH  46  50
BRANCH  45  52
ATOM     52  O   UNL     1       8.350   2.953  21.588  0.00  0.00    -0.384 OA
ATOM     53  H   UNL     1       8.021   3.528  20.873  0.00  0.00    +0.210 HD
ENDBRANCH  45  52
ENDBRANCH  40  44
ENDBRANCH  39  40
ENDBRANCH   1  39
TORSDOF 16
ENDMDL
MODEL 8
REMARK VINA RESULT:      -6.8      1.909      9.091
REMARK  Name = 
REMARK  17 active torsions:
REMARK  status: ('A' for Active; 'I' for Inactive)
REMARK    1  A    between atoms: C_1  and  C_2
REMARK    2  A    between atoms: C_4  and  O_53
REMARK    3  A    between atoms: C_6  and  O_52
REMARK    4  A    between atoms: C_8  and  O_51
REMARK    5  A    between atoms: C_10  and  O_13
REMARK    6  A    between atoms: O_13  and  C_14
REMARK    7  A    between atoms: C_14  and  C_15
REMARK    8  A    between atoms: C_17  and  O_50
REMARK    9  A    between atoms: C_19  and  O_49
REMARK   10  A    between atoms: C_21  and  O_48
REMARK   11  A    between atoms: C_23  and  O_26
REMARK   12  A    between atoms: O_26  and  C_27
REMARK   13  A    between atoms: C_28  and  C_40
REMARK   14  A    between atoms: C_32  and  O_39
REMARK   15  A    between atoms: C_34  and  O_38
REMARK   16  A    between atoms: C_42  and  O_47
REMARK   17  A    between atoms: C_43  and  O_46
REMARK                            x       y       z     vdW  Elec       q    Type
REMARK                         _______ _______ _______ _____ _____    ______ ____
ROOT
ATOM      1  C   UNL     1       7.604   1.125  25.520  0.00  0.00    +0.179 C 
ATOM      2  O   UNL     1       7.996  -0.099  26.165  0.00  0.00    -0.331 OA
ATOM      3  C   UNL     1       6.850  -0.838  26.592  0.00  0.00    +0.340 C 
ATOM      4  C   UNL     1       6.252  -0.080  27.804  0.00  0.00    +0.214 C 
ATOM      5  C   UNL     1       5.866   1.339  27.281  0.00  0.00    +0.180 C 
ATOM      6  C   UNL     1       7.044   2.060  26.591  0.00  0.00    +0.177 C 
ENDROOT
BRANCH   6   7
ATOM      7  O   UNL     1       6.554   3.285  26.027  0.00  0.00    -0.386 OA
ATOM      8  H   UNL     1       6.422   3.898  26.775  0.00  0.00    +0.210 HD
ENDBRANCH   6   7
BRANCH   5   9
ATOM      9  O   UNL     1       5.334   2.177  28.313  0.00  0.00    -0.386 OA
ATOM     10  H   UNL     1       5.886   1.993  29.100  0.00  0.00    +0.210 HD
ENDBRANCH   5   9
BRANCH   4  11
ATOM     11  O   UNL     1       5.101  -0.772  28.311  0.00  0.00    -0.383 OA
ATOM     12  H   UNL     1       4.542  -0.126  28.777  0.00  0.00    +0.210 HD
ENDBRANCH   4  11
BRANCH   3  13
ATOM     13  O   UNL     1       7.202  -2.230  26.803  0.00  0.00    -0.453 OA
BRANCH  13  14
ATOM     14  C   UNL     1       6.436  -3.128  26.019  0.00  0.00    +0.214 A 
ATOM     15  C   UNL     1       5.227  -3.810  26.609  0.00  0.00    +0.238 A 
ATOM     16  O   UNL     1       4.520  -3.318  27.475  0.00  0.00    -0.283 OA
ATOM     17  C   UNL     1       4.793  -5.068  26.039  0.00  0.00    +0.109 A 
ATOM     18  C   UNL     1       5.089  -5.257  24.705  0.00  0.00    +0.147 A 
ATOM     19  C   UNL     1       4.540  -6.348  24.035  0.00  0.00    +0.092 A 
ATOM     20  C   UNL     1       3.681  -7.209  24.722  0.00  0.00    +0.124 A 
ATOM     21  C   UNL     1       3.392  -7.028  26.069  0.00  0.00    +0.091 A 
ATOM     22  O   UNL     1       5.884  -4.378  24.019  0.00  0.00    -0.451 OA
ATOM     23  C   UNL     1       3.963  -5.957  26.738  0.00  0.00    +0.135 A 
ATOM     24  C   UNL     1       6.617  -3.376  24.694  0.00  0.00    +0.181 A 
BRANCH  24  25
ATOM     25  C   UNL     1       7.473  -2.610  23.701  0.00  0.00    +0.025 A 
ATOM     26  C   UNL     1       6.855  -1.583  22.933  0.00  0.00    +0.015 A 
ATOM     27  C   UNL     1       7.584  -0.659  22.174  0.00  0.00    +0.050 A 
ATOM     28  C   UNL     1       8.955  -0.760  22.138  0.00  0.00    +0.158 A 
ATOM     29  C   UNL     1       9.589  -1.823  22.770  0.00  0.00    +0.159 A 
ATOM     30  C   UNL     1       8.865  -2.739  23.557  0.00  0.00    +0.060 A 
BRANCH  29  31
ATOM     31  O   UNL     1      10.943  -1.921  22.609  0.00  0.00    -0.503 OA
ATOM     32  H   UNL     1      11.259  -1.059  22.287  0.00  0.00    +0.292 HD
ENDBRANCH  29  31
BRANCH  28  33
ATOM     33  O   UNL     1       9.679   0.194  21.485  0.00  0.00    -0.503 OA
ATOM     34  H   UNL     1       9.087   0.970  21.443  0.00  0.00    +0.292 HD
ENDBRANCH  28  33
ENDBRANCH  24  25
BRANCH  23  35
ATOM     35  O   UNL     1       3.718  -5.799  28.074  0.00  0.00    -0.506 OA
ATOM     36  H   UNL     1       3.125  -5.041  28.206  0.00  0.00    +0.292 HD
ENDBRANCH  23  35
BRANCH  20  37
ATOM     37  O   UNL     1       3.080  -8.267  24.110  0.00  0.00    -0.507 OA
ATOM     38  H   UNL     1       2.112  -8.203  24.222  0.00  0.00    +0.292 HD
ENDBRANCH  20  37
ENDBRANCH  13  14
ENDBRANCH   3  13
BRANCH   1  39
ATOM     39  C   UNL     1       8.792   1.687  24.741  0.00  0.00    +0.197 C 
BRANCH  39  40
ATOM     40  O   UNL     1       8.324   2.237  23.517  0.00  0.00    -0.346 OA
BRANCH  40  44
ATOM     41  C   UNL     1      10.568   5.983  23.735  0.00  0.00    +0.041 C 
ATOM     42  C   UNL     1       9.382   5.566  24.599  0.00  0.00    +0.149 C 
ATOM     43  O   UNL     1       9.163   4.152  24.578  0.00  0.00    -0.343 OA
ATOM     44  C   UNL     1       8.646   3.621  23.360  0.00  0.00    +0.282 C 
ATOM     45  C   UNL     1       7.331   4.301  22.918  0.00  0.00    +0.201 C 
ATOM     46  C   UNL     1       7.417   5.828  22.994  0.00  0.00    +0.179 C 
ATOM     47  C   UNL     1       8.060   6.289  24.306  0.00  0.00    +0.174 C 
BRANCH  47  48
ATOM     48  O   UNL     1       7.150   6.000  25.383  0.00  0.00    -0.387 OA
ATOM     49  H   UNL     1       7.537   5.272  25.913  0.00  0.00    +0.210 HD
ENDBRANCH  47  48
BRANCH  46  50
ATOM     50  O   UNL     1       8.092   6.358  21.843  0.00  0.00    -0.386 OA
ATOM     51  H   UNL     1       7.972   7.322  21.805  0.00  0.00    +0.210 HD
ENDBRANCH  46  50
BRANCH  45  52
ATOM     52  O   UNL     1       6.995   3.889  21.579  0.00  0.00    -0.384 OA
ATOM     53  H   UNL     1       6.028   3.955  21.482  0.00  0.00    +0.210 HD
ENDBRANCH  45  52
ENDBRANCH  40  44
ENDBRANCH  39  40
ENDBRANCH   1  39
TORSDOF 16
ENDMDL
MODEL 9
REMARK VINA RESULT:      -6.7      1.994      5.102
REMARK  Name = 
REMARK  17 active torsions:
REMARK  status: ('A' for Active; 'I' for Inactive)
REMARK    1  A    between atoms: C_1  and  C_2
REMARK    2  A    between atoms: C_4  and  O_53
REMARK    3  A    between atoms: C_6  and  O_52
REMARK    4  A    between atoms: C_8  and  O_51
REMARK    5  A    between atoms: C_10  and  O_13
REMARK    6  A    between atoms: O_13  and  C_14
REMARK    7  A    between atoms: C_14  and  C_15
REMARK    8  A    between atoms: C_17  and  O_50
REMARK    9  A    between atoms: C_19  and  O_49
REMARK   10  A    between atoms: C_21  and  O_48
REMARK   11  A    between atoms: C_23  and  O_26
REMARK   12  A    between atoms: O_26  and  C_27
REMARK   13  A    between atoms: C_28  and  C_40
REMARK   14  A    between atoms: C_32  and  O_39
REMARK   15  A    between atoms: C_34  and  O_38
REMARK   16  A    between atoms: C_42  and  O_47
REMARK   17  A    between atoms: C_43  and  O_46
REMARK                            x       y       z     vdW  Elec       q    Type
REMARK                         _______ _______ _______ _____ _____    ______ ____
ROOT
ATOM      1  C   UNL     1       3.821  -4.016  24.297  0.00  0.00    +0.179 C 
ATOM      2  O   UNL     1       5.031  -3.891  25.063  0.00  0.00    -0.331 OA
ATOM      3  C   UNL     1       6.139  -3.575  24.216  0.00  0.00    +0.340 C 
ATOM      4  C   UNL     1       6.467  -4.857  23.410  0.00  0.00    +0.214 C 
ATOM      5  C   UNL     1       5.184  -5.193  22.588  0.00  0.00    +0.180 C 
ATOM      6  C   UNL     1       3.921  -5.297  23.470  0.00  0.00    +0.177 C 
ENDROOT
BRANCH   6   7
ATOM      7  O   UNL     1       2.784  -5.467  22.611  0.00  0.00    -0.386 OA
ATOM      8  H   UNL     1       2.570  -6.419  22.626  0.00  0.00    +0.210 HD
ENDBRANCH   6   7
BRANCH   5   9
ATOM      9  O   UNL     1       5.326  -6.392  21.817  0.00  0.00    -0.386 OA
ATOM     10  H   UNL     1       5.696  -6.101  20.959  0.00  0.00    +0.210 HD
ENDBRANCH   5   9
BRANCH   4  11
ATOM     11  O   UNL     1       7.589  -4.631  22.543  0.00  0.00    -0.383 OA
ATOM     12  H   UNL     1       8.250  -5.323  22.719  0.00  0.00    +0.210 HD
ENDBRANCH   4  11
BRANCH   3  13
ATOM     13  O   UNL     1       7.219  -3.001  24.997  0.00  0.00    -0.453 OA
BRANCH  13  14
ATOM     14  C   UNL     1       7.449  -1.632  24.716  0.00  0.00    +0.214 A 
ATOM     15  C   UNL     1       8.081  -1.221  23.410  0.00  0.00    +0.238 A 
ATOM     16  O   UNL     1       7.949  -1.835  22.364  0.00  0.00    -0.283 OA
ATOM     17  C   UNL     1       8.786   0.043  23.348  0.00  0.00    +0.109 A 
ATOM     18  C   UNL     1       8.352   1.017  24.223  0.00  0.00    +0.147 A 
ATOM     19  C   UNL     1       8.843   2.314  24.095  0.00  0.00    +0.092 A 
ATOM     20  C   UNL     1       9.744   2.603  23.067  0.00  0.00    +0.124 A 
ATOM     21  C   UNL     1      10.193   1.621  22.192  0.00  0.00    +0.091 A 
ATOM     22  O   UNL     1       7.425   0.743  25.193  0.00  0.00    -0.451 OA
ATOM     23  C   UNL     1       9.721   0.326  22.342  0.00  0.00    +0.135 A 
ATOM     24  C   UNL     1       7.046  -0.586  25.488  0.00  0.00    +0.181 A 
BRANCH  24  25
ATOM     25  C   UNL     1       6.077  -0.596  26.656  0.00  0.00    +0.025 A 
ATOM     26  C   UNL     1       6.448   0.092  27.845  0.00  0.00    +0.015 A 
ATOM     27  C   UNL     1       5.547   0.355  28.884  0.00  0.00    +0.050 A 
ATOM     28  C   UNL     1       4.253  -0.096  28.774  0.00  0.00    +0.158 A 
ATOM     29  C   UNL     1       3.881  -0.881  27.689  0.00  0.00    +0.159 A 
ATOM     30  C   UNL     1       4.774  -1.126  26.628  0.00  0.00    +0.060 A 
BRANCH  29  31
ATOM     31  O   UNL     1       2.610  -1.382  27.692  0.00  0.00    -0.503 OA
ATOM     32  H   UNL     1       2.673  -2.330  27.480  0.00  0.00    +0.292 HD
ENDBRANCH  29  31
BRANCH  28  33
ATOM     33  O   UNL     1       3.343   0.241  29.732  0.00  0.00    -0.503 OA
ATOM     34  H   UNL     1       3.444   1.208  29.842  0.00  0.00    +0.292 HD
ENDBRANCH  28  33
ENDBRANCH  24  25
BRANCH  23  35
ATOM     35  O   UNL     1      10.193  -0.654  21.514  0.00  0.00    -0.506 OA
ATOM     36  H   UNL     1       9.539  -1.371  21.457  0.00  0.00    +0.292 HD
ENDBRANCH  23  35
BRANCH  20  37
ATOM     37  O   UNL     1      10.226   3.861  22.864  0.00  0.00    -0.507 OA
ATOM     38  H   UNL     1       9.526   4.422  22.479  0.00  0.00    +0.292 HD
ENDBRANCH  20  37
ENDBRANCH  13  14
ENDBRANCH   3  13
BRANCH   1  39
ATOM     39  C   UNL     1       2.620  -3.958  25.241  0.00  0.00    +0.197 C 
BRANCH  39  40
ATOM     40  O   UNL     1       2.357  -5.265  25.734  0.00  0.00    -0.346 OA
BRANCH  40  44
ATOM     41  C   UNL     1       3.177  -4.867  30.010  0.00  0.00    +0.041 C 
ATOM     42  C   UNL     1       4.057  -4.402  28.854  0.00  0.00    +0.149 C 
ATOM     43  O   UNL     1       3.329  -4.283  27.627  0.00  0.00    -0.343 OA
ATOM     44  C   UNL     1       2.932  -5.510  27.020  0.00  0.00    +0.282 C 
ATOM     45  C   UNL     1       4.117  -6.466  26.764  0.00  0.00    +0.201 C 
ATOM     46  C   UNL     1       5.029  -6.596  27.988  0.00  0.00    +0.179 C 
ATOM     47  C   UNL     1       5.328  -5.228  28.612  0.00  0.00    +0.174 C 
BRANCH  47  48
ATOM     48  O   UNL     1       6.169  -4.492  27.706  0.00  0.00    -0.387 OA
ATOM     49  H   UNL     1       6.139  -3.549  27.971  0.00  0.00    +0.210 HD
ENDBRANCH  47  48
BRANCH  46  50
ATOM     50  O   UNL     1       4.475  -7.517  28.940  0.00  0.00    -0.386 OA
ATOM     51  H   UNL     1       5.126  -8.209  29.147  0.00  0.00    +0.210 HD
ENDBRANCH  46  50
BRANCH  45  52
ATOM     52  O   UNL     1       3.624  -7.763  26.375  0.00  0.00    -0.384 OA
ATOM     53  H   UNL     1       2.662  -7.774  26.532  0.00  0.00    +0.210 HD
ENDBRANCH  45  52
ENDBRANCH  40  44
ENDBRANCH  39  40
ENDBRANCH   1  39
TORSDOF 16
ENDMDL
