MODEL 1
REMARK VINA RESULT:      -7.0      0.000      0.000
REMARK  Name = 
REMARK  19 active torsions:
REMARK  status: ('A' for Active; 'I' for Inactive)
REMARK    1  A    between atoms: C_1  and  O_2
REMARK    2  A    between atoms: O_2  and  C_3
REMARK    3  A    between atoms: C_4  and  C_44
REMARK    4  A    between atoms: C_8  and  O_15
REMARK    5  A    between atoms: C_10  and  O_14
REMARK    6  A    between atoms: O_15  and  C_16
REMARK    7  A    between atoms: C_18  and  O_43
REMARK    8  A    between atoms: C_19  and  O_42
REMARK    9  A    between atoms: C_21  and  O_41
REMARK   10  A    between atoms: C_23  and  C_25
REMARK   11  A    between atoms: C_25  and  O_26
REMARK   12  A    between atoms: O_26  and  C_27
REMARK   13  A    between atoms: C_29  and  O_40
REMARK   14  A    between atoms: C_30  and  O_39
REMARK   15  A    between atoms: C_32  and  O_38
REMARK   16  A    between atoms: C_34  and  C_36
REMARK   17  A    between atoms: C_36  and  O_37
REMARK   18  A    between atoms: C_46  and  O_51
REMARK   19  A    between atoms: C_47  and  O_50
REMARK                            x       y       z     vdW  Elec       q    Type
REMARK                         _______ _______ _______ _____ _____    ______ ____
ROOT
ATOM      1  C   UNL     1       5.020  -5.238  25.351  0.00  0.00    +0.339 C 
ATOM      2  O   UNL     1       6.303  -4.937  24.785  0.00  0.00    -0.331 OA
ATOM      3  C   UNL     1       6.239  -4.488  23.419  0.00  0.00    +0.179 C 
ATOM      4  C   UNL     1       5.474  -5.444  22.468  0.00  0.00    +0.177 C 
ATOM      5  C   UNL     1       4.227  -6.078  23.099  0.00  0.00    +0.180 C 
ATOM      6  C   UNL     1       4.443  -6.438  24.578  0.00  0.00    +0.214 C 
ENDROOT
BRANCH   6   7
ATOM      7  O   UNL     1       3.215  -6.887  25.163  0.00  0.00    -0.383 OA
ATOM      8  H   UNL     1       2.862  -7.591  24.583  0.00  0.00    +0.210 HD
ENDBRANCH   6   7
BRANCH   5   9
ATOM      9  O   UNL     1       3.069  -5.245  22.943  0.00  0.00    -0.386 OA
ATOM     10  H   UNL     1       2.808  -5.256  21.999  0.00  0.00    +0.210 HD
ENDBRANCH   5   9
BRANCH   4  11
ATOM     11  O   UNL     1       6.324  -6.520  22.046  0.00  0.00    -0.386 OA
ATOM     12  H   UNL     1       5.811  -7.343  22.146  0.00  0.00    +0.210 HD
ENDBRANCH   4  11
BRANCH   3  13
ATOM     13  C   UNL     1       7.686  -4.267  22.926  0.00  0.00    +0.197 C 
BRANCH  13  14
ATOM     14  O   UNL     1       8.138  -2.904  22.888  0.00  0.00    -0.346 OA
BRANCH  14  15
ATOM     15  C   UNL     1       9.448  -2.660  23.424  0.00  0.00    +0.282 C 
ATOM     16  O   UNL     1       9.367  -2.575  24.854  0.00  0.00    -0.341 OA
ATOM     17  C   UNL     1       8.647  -1.431  25.350  0.00  0.00    +0.178 C 
ATOM     18  C   UNL     1       9.183  -0.097  24.776  0.00  0.00    +0.177 C 
ATOM     19  C   UNL     1       9.301  -0.161  23.251  0.00  0.00    +0.179 C 
ATOM     20  C   UNL     1      10.132  -1.394  22.866  0.00  0.00    +0.201 C 
BRANCH  20  21
ATOM     21  O   UNL     1      10.375  -1.445  21.458  0.00  0.00    -0.384 OA
ATOM     22  H   UNL     1      11.339  -1.369  21.320  0.00  0.00    +0.210 HD
ENDBRANCH  20  21
BRANCH  19  23
ATOM     23  O   UNL     1       8.014  -0.159  22.624  0.00  0.00    -0.386 OA
ATOM     24  H   UNL     1       7.335  -0.343  23.305  0.00  0.00    +0.210 HD
ENDBRANCH  19  23
BRANCH  18  25
ATOM     25  O   UNL     1      10.476   0.192  25.323  0.00  0.00    -0.386 OA
ATOM     26  H   UNL     1      10.482  -0.074  26.260  0.00  0.00    +0.210 HD
ENDBRANCH  18  25
BRANCH  17  27
ATOM     27  C   UNL     1       8.742  -1.431  26.890  0.00  0.00    +0.190 C 
BRANCH  27  28
ATOM     28  O   UNL     1       8.458  -0.153  27.463  0.00  0.00    -0.392 OA
ATOM     29  H   UNL     1       8.900  -0.099  28.325  0.00  0.00    +0.210 HD
ENDBRANCH  27  28
ENDBRANCH  17  27
ENDBRANCH  14  15
ENDBRANCH  13  14
ENDBRANCH   3  13
BRANCH   1  30
ATOM     30  O   UNL     1       4.105  -4.128  25.257  0.00  0.00    -0.461 OA
BRANCH  30  37
ATOM     31  C   UNL     1       5.514   2.002  26.848  0.00  0.00    +0.211 A 
ATOM     32  C   UNL     1       5.002   0.900  27.742  0.00  0.00    +0.238 A 
ATOM     33  O   UNL     1       4.776   1.084  28.932  0.00  0.00    -0.283 OA
ATOM     34  C   UNL     1       4.770  -0.421  27.105  0.00  0.00    +0.109 A 
ATOM     35  C   UNL     1       5.228  -0.615  25.806  0.00  0.00    +0.147 A 
ATOM     36  C   UNL     1       5.081  -1.855  25.156  0.00  0.00    +0.093 A 
ATOM     37  C   UNL     1       4.400  -2.899  25.777  0.00  0.00    +0.131 A 
ATOM     38  C   UNL     1       3.918  -2.697  27.077  0.00  0.00    +0.092 A 
ATOM     39  O   UNL     1       5.815   0.382  25.069  0.00  0.00    -0.451 OA
ATOM     40  C   UNL     1       4.122  -1.482  27.745  0.00  0.00    +0.135 A 
ATOM     41  C   UNL     1       5.834   1.665  25.583  0.00  0.00    +0.181 A 
BRANCH  41  42
ATOM     42  C   UNL     1       6.233   2.661  24.571  0.00  0.00    +0.025 A 
ATOM     43  C   UNL     1       5.256   3.213  23.722  0.00  0.00    +0.015 A 
ATOM     44  C   UNL     1       5.612   4.110  22.709  0.00  0.00    +0.050 A 
ATOM     45  C   UNL     1       6.945   4.455  22.553  0.00  0.00    +0.158 A 
ATOM     46  C   UNL     1       7.920   3.922  23.394  0.00  0.00    +0.159 A 
ATOM     47  C   UNL     1       7.576   3.026  24.405  0.00  0.00    +0.060 A 
BRANCH  46  48
ATOM     48  O   UNL     1       9.216   4.307  23.178  0.00  0.00    -0.503 OA
ATOM     49  H   UNL     1       9.374   5.121  23.674  0.00  0.00    +0.292 HD
ENDBRANCH  46  48
BRANCH  45  50
ATOM     50  O   UNL     1       7.296   5.322  21.558  0.00  0.00    -0.503 OA
ATOM     51  H   UNL     1       7.626   4.749  20.837  0.00  0.00    +0.292 HD
ENDBRANCH  45  50
ENDBRANCH  41  42
BRANCH  31  53
ATOM     52  C   UNL     1       6.786   3.631  28.034  0.00  0.00    +0.277 C 
ATOM     53  O   UNL     1       5.615   3.323  27.279  0.00  0.00    -0.488 OA
ENDBRANCH  31  53
BRANCH  40  54
ATOM     54  O   UNL     1       3.644  -1.351  29.017  0.00  0.00    -0.506 OA
ATOM     55  H   UNL     1       3.504  -2.225  29.418  0.00  0.00    +0.292 HD
ENDBRANCH  40  54
ENDBRANCH  30  37
ENDBRANCH   1  30
TORSDOF 18
ENDMDL
MODEL 2
REMARK VINA RESULT:      -6.7      1.846      8.073
REMARK  Name = 
REMARK  19 active torsions:
REMARK  status: ('A' for Active; 'I' for Inactive)
REMARK    1  A    between atoms: C_1  and  O_2
REMARK    2  A    between atoms: O_2  and  C_3
REMARK    3  A    between atoms: C_4  and  C_44
REMARK    4  A    between atoms: C_8  and  O_15
REMARK    5  A    between atoms: C_10  and  O_14
REMARK    6  A    between atoms: O_15  and  C_16
REMARK    7  A    between atoms: C_18  and  O_43
REMARK    8  A    between atoms: C_19  and  O_42
REMARK    9  A    between atoms: C_21  and  O_41
REMARK   10  A    between atoms: C_23  and  C_25
REMARK   11  A    between atoms: C_25  and  O_26
REMARK   12  A    between atoms: O_26  and  C_27
REMARK   13  A    between atoms: C_29  and  O_40
REMARK   14  A    between atoms: C_30  and  O_39
REMARK   15  A    between atoms: C_32  and  O_38
REMARK   16  A    between atoms: C_34  and  C_36
REMARK   17  A    between atoms: C_36  and  O_37
REMARK   18  A    between atoms: C_46  and  O_51
REMARK   19  A    between atoms: C_47  and  O_50
REMARK                            x       y       z     vdW  Elec       q    Type
REMARK                         _______ _______ _______ _____ _____    ______ ____
ROOT
ATOM      1  C   UNL     1       5.229   0.475  27.956  0.00  0.00    +0.339 C 
ATOM      2  O   UNL     1       5.262   1.435  26.890  0.00  0.00    -0.331 OA
ATOM      3  C   UNL     1       6.431   2.272  26.905  0.00  0.00    +0.179 C 
ATOM      4  C   UNL     1       6.680   2.998  28.253  0.00  0.00    +0.177 C 
ATOM      5  C   UNL     1       6.369   2.138  29.485  0.00  0.00    +0.180 C 
ATOM      6  C   UNL     1       5.128   1.255  29.279  0.00  0.00    +0.214 C 
ENDROOT
BRANCH   6   7
ATOM      7  O   UNL     1       4.962   0.366  30.391  0.00  0.00    -0.383 OA
ATOM      8  H   UNL     1       4.041   0.040  30.361  0.00  0.00    +0.210 HD
ENDBRANCH   6   7
BRANCH   5   9
ATOM      9  O   UNL     1       7.498   1.345  29.880  0.00  0.00    -0.386 OA
ATOM     10  H   UNL     1       7.784   1.639  30.768  0.00  0.00    +0.210 HD
ENDBRANCH   5   9
BRANCH   4  11
ATOM     11  O   UNL     1       5.868   4.177  28.347  0.00  0.00    -0.386 OA
ATOM     12  H   UNL     1       5.057   3.925  28.828  0.00  0.00    +0.210 HD
ENDBRANCH   4  11
BRANCH   3  13
ATOM     13  C   UNL     1       6.297   3.291  25.752  0.00  0.00    +0.197 C 
BRANCH  13  14
ATOM     14  O   UNL     1       7.193   3.109  24.643  0.00  0.00    -0.346 OA
BRANCH  14  15
ATOM     15  C   UNL     1       7.302   1.770  24.136  0.00  0.00    +0.282 C 
ATOM     16  O   UNL     1       8.610   1.258  24.428  0.00  0.00    -0.341 OA
ATOM     17  C   UNL     1       9.685   1.910  23.724  0.00  0.00    +0.178 C 
ATOM     18  C   UNL     1       9.462   1.935  22.192  0.00  0.00    +0.177 C 
ATOM     19  C   UNL     1       8.066   2.459  21.846  0.00  0.00    +0.179 C 
ATOM     20  C   UNL     1       7.021   1.644  22.623  0.00  0.00    +0.201 C 
BRANCH  20  21
ATOM     21  O   UNL     1       5.689   2.010  22.255  0.00  0.00    -0.384 OA
ATOM     22  H   UNL     1       5.402   1.407  21.542  0.00  0.00    +0.210 HD
ENDBRANCH  20  21
BRANCH  19  23
ATOM     23  O   UNL     1       7.954   3.864  22.099  0.00  0.00    -0.386 OA
ATOM     24  H   UNL     1       7.952   4.007  23.068  0.00  0.00    +0.210 HD
ENDBRANCH  19  23
BRANCH  18  25
ATOM     25  O   UNL     1       9.603   0.615  21.652  0.00  0.00    -0.386 OA
ATOM     26  H   UNL     1       9.390   0.645  20.702  0.00  0.00    +0.210 HD
ENDBRANCH  18  25
BRANCH  17  27
ATOM     27  C   UNL     1      11.000   1.179  24.065  0.00  0.00    +0.190 C 
BRANCH  27  28
ATOM     28  O   UNL     1      10.925   0.446  25.290  0.00  0.00    -0.392 OA
ATOM     29  H   UNL     1      10.041   0.574  25.669  0.00  0.00    +0.210 HD
ENDBRANCH  27  28
ENDBRANCH  17  27
ENDBRANCH  14  15
ENDBRANCH  13  14
ENDBRANCH   3  13
BRANCH   1  30
ATOM     30  O   UNL     1       6.409  -0.355  27.982  0.00  0.00    -0.461 OA
BRANCH  30  37
ATOM     31  C   UNL     1       6.472  -5.191  23.658  0.00  0.00    +0.211 A 
ATOM     32  C   UNL     1       7.572  -4.210  23.976  0.00  0.00    +0.238 A 
ATOM     33  O   UNL     1       8.649  -4.231  23.392  0.00  0.00    -0.283 OA
ATOM     34  C   UNL     1       7.283  -3.201  25.026  0.00  0.00    +0.109 A 
ATOM     35  C   UNL     1       6.124  -3.351  25.782  0.00  0.00    +0.147 A 
ATOM     36  C   UNL     1       5.808  -2.457  26.823  0.00  0.00    +0.093 A 
ATOM     37  C   UNL     1       6.616  -1.350  27.070  0.00  0.00    +0.131 A 
ATOM     38  C   UNL     1       7.771  -1.185  26.293  0.00  0.00    +0.092 A 
ATOM     39  O   UNL     1       5.209  -4.346  25.548  0.00  0.00    -0.451 OA
ATOM     40  C   UNL     1       8.116  -2.112  25.300  0.00  0.00    +0.135 A 
ATOM     41  C   UNL     1       5.371  -5.150  24.435  0.00  0.00    +0.181 A 
BRANCH  41  42
ATOM     42  C   UNL     1       4.175  -5.969  24.165  0.00  0.00    +0.025 A 
ATOM     43  C   UNL     1       3.197  -5.489  23.273  0.00  0.00    +0.015 A 
ATOM     44  C   UNL     1       2.021  -6.212  23.045  0.00  0.00    +0.050 A 
ATOM     45  C   UNL     1       1.830  -7.414  23.707  0.00  0.00    +0.158 A 
ATOM     46  C   UNL     1       2.796  -7.903  24.585  0.00  0.00    +0.159 A 
ATOM     47  C   UNL     1       3.970  -7.190  24.820  0.00  0.00    +0.060 A 
BRANCH  46  48
ATOM     48  O   UNL     1       2.536  -9.097  25.205  0.00  0.00    -0.503 OA
ATOM     49  H   UNL     1       1.723  -8.997  25.718  0.00  0.00    +0.292 HD
ENDBRANCH  46  48
BRANCH  45  50
ATOM     50  O   UNL     1       0.678  -8.116  23.495  0.00  0.00    -0.503 OA
ATOM     51  H   UNL     1       0.514  -8.036  22.534  0.00  0.00    +0.292 HD
ENDBRANCH  45  50
ENDBRANCH  41  42
BRANCH  31  53
ATOM     52  C   UNL     1       6.372  -5.494  21.297  0.00  0.00    +0.277 C 
ATOM     53  O   UNL     1       6.552  -6.077  22.586  0.00  0.00    -0.488 OA
ENDBRANCH  31  53
BRANCH  40  54
ATOM     54  O   UNL     1       9.263  -1.906  24.589  0.00  0.00    -0.506 OA
ATOM     55  H   UNL     1       9.768  -2.732  24.515  0.00  0.00    +0.292 HD
ENDBRANCH  40  54
ENDBRANCH  30  37
ENDBRANCH   1  30
TORSDOF 18
ENDMDL
MODEL 3
REMARK VINA RESULT:      -6.6      1.691      4.849
REMARK  Name = 
REMARK  19 active torsions:
REMARK  status: ('A' for Active; 'I' for Inactive)
REMARK    1  A    between atoms: C_1  and  O_2
REMARK    2  A    between atoms: O_2  and  C_3
REMARK    3  A    between atoms: C_4  and  C_44
REMARK    4  A    between atoms: C_8  and  O_15
REMARK    5  A    between atoms: C_10  and  O_14
REMARK    6  A    between atoms: O_15  and  C_16
REMARK    7  A    between atoms: C_18  and  O_43
REMARK    8  A    between atoms: C_19  and  O_42
REMARK    9  A    between atoms: C_21  and  O_41
REMARK   10  A    between atoms: C_23  and  C_25
REMARK   11  A    between atoms: C_25  and  O_26
REMARK   12  A    between atoms: O_26  and  C_27
REMARK   13  A    between atoms: C_29  and  O_40
REMARK   14  A    between atoms: C_30  and  O_39
REMARK   15  A    between atoms: C_32  and  O_38
REMARK   16  A    between atoms: C_34  and  C_36
REMARK   17  A    between atoms: C_36  and  O_37
REMARK   18  A    between atoms: C_46  and  O_51
REMARK   19  A    between atoms: C_47  and  O_50
REMARK                            x       y       z     vdW  Elec       q    Type
REMARK                         _______ _______ _______ _____ _____    ______ ____
ROOT
ATOM      1  C   UNL     1       3.327  -4.981  23.370  0.00  0.00    +0.339 C 
ATOM      2  O   UNL     1       3.135  -4.227  24.575  0.00  0.00    -0.331 OA
ATOM      3  C   UNL     1       3.479  -4.953  25.769  0.00  0.00    +0.179 C 
ATOM      4  C   UNL     1       2.770  -6.325  25.908  0.00  0.00    +0.177 C 
ATOM      5  C   UNL     1       2.643  -7.093  24.585  0.00  0.00    +0.180 C 
ATOM      6  C   UNL     1       2.340  -6.161  23.400  0.00  0.00    +0.214 C 
ENDROOT
BRANCH   6   7
ATOM      7  O   UNL     1       2.376  -6.896  22.170  0.00  0.00    -0.383 OA
ATOM      8  H   UNL     1       3.138  -6.559  21.659  0.00  0.00    +0.210 HD
ENDBRANCH   6   7
BRANCH   5   9
ATOM      9  O   UNL     1       3.805  -7.892  24.320  0.00  0.00    -0.386 OA
ATOM     10  H   UNL     1       4.308  -7.988  25.154  0.00  0.00    +0.210 HD
ENDBRANCH   5   9
BRANCH   4  11
ATOM     11  O   UNL     1       1.442  -6.156  26.425  0.00  0.00    -0.386 OA
ATOM     12  H   UNL     1       1.516  -6.149  27.398  0.00  0.00    +0.210 HD
ENDBRANCH   4  11
BRANCH   3  13
ATOM     13  C   UNL     1       3.161  -4.047  26.980  0.00  0.00    +0.197 C 
BRANCH  13  14
ATOM     14  O   UNL     1       3.608  -2.685  26.884  0.00  0.00    -0.346 OA
BRANCH  14  15
ATOM     15  C   UNL     1       4.638  -2.295  27.805  0.00  0.00    +0.282 C 
ATOM     16  O   UNL     1       4.188  -1.168  28.570  0.00  0.00    -0.341 OA
ATOM     17  C   UNL     1       4.017   0.046  27.813  0.00  0.00    +0.178 C 
ATOM     18  C   UNL     1       5.286   0.430  27.013  0.00  0.00    +0.177 C 
ATOM     19  C   UNL     1       5.805  -0.759  26.199  0.00  0.00    +0.179 C 
ATOM     20  C   UNL     1       5.989  -1.962  27.137  0.00  0.00    +0.201 C 
BRANCH  20  21
ATOM     21  O   UNL     1       6.582  -3.071  26.457  0.00  0.00    -0.384 OA
ATOM     22  H   UNL     1       6.126  -3.881  26.758  0.00  0.00    +0.210 HD
ENDBRANCH  20  21
BRANCH  19  23
ATOM     23  O   UNL     1       4.942  -1.059  25.097  0.00  0.00    -0.386 OA
ATOM     24  H   UNL     1       5.103  -0.402  24.388  0.00  0.00    +0.210 HD
ENDBRANCH  19  23
BRANCH  18  25
ATOM     25  O   UNL     1       6.320   0.861  27.906  0.00  0.00    -0.386 OA
ATOM     26  H   UNL     1       5.974   1.590  28.452  0.00  0.00    +0.210 HD
ENDBRANCH  18  25
BRANCH  17  27
ATOM     27  C   UNL     1       3.635   1.176  28.791  0.00  0.00    +0.190 C 
BRANCH  27  28
ATOM     28  O   UNL     1       3.923   2.477  28.275  0.00  0.00    -0.392 OA
ATOM     29  H   UNL     1       4.679   2.405  27.671  0.00  0.00    +0.210 HD
ENDBRANCH  27  28
ENDBRANCH  17  27
ENDBRANCH  14  15
ENDBRANCH  13  14
ENDBRANCH   3  13
BRANCH   1  30
ATOM     30  O   UNL     1       4.672  -5.488  23.249  0.00  0.00    -0.461 OA
BRANCH  30  37
ATOM     31  C   UNL     1       9.233  -0.876  23.296  0.00  0.00    +0.211 A 
ATOM     32  C   UNL     1       9.406  -2.361  23.492  0.00  0.00    +0.238 A 
ATOM     33  O   UNL     1      10.503  -2.862  23.709  0.00  0.00    -0.283 OA
ATOM     34  C   UNL     1       8.177  -3.190  23.425  0.00  0.00    +0.109 A 
ATOM     35  C   UNL     1       7.002  -2.590  22.984  0.00  0.00    +0.147 A 
ATOM     36  C   UNL     1       5.808  -3.325  22.853  0.00  0.00    +0.093 A 
ATOM     37  C   UNL     1       5.760  -4.663  23.239  0.00  0.00    +0.131 A 
ATOM     38  C   UNL     1       6.938  -5.262  23.705  0.00  0.00    +0.092 A 
ATOM     39  O   UNL     1       6.918  -1.254  22.682  0.00  0.00    -0.451 OA
ATOM     40  C   UNL     1       8.139  -4.544  23.773  0.00  0.00    +0.135 A 
ATOM     41  C   UNL     1       8.004  -0.442  22.953  0.00  0.00    +0.181 A 
BRANCH  41  42
ATOM     42  C   UNL     1       7.666   0.989  22.844  0.00  0.00    +0.025 A 
ATOM     43  C   UNL     1       7.818   1.642  21.606  0.00  0.00    +0.015 A 
ATOM     44  C   UNL     1       7.569   3.013  21.484  0.00  0.00    +0.050 A 
ATOM     45  C   UNL     1       7.165   3.726  22.602  0.00  0.00    +0.158 A 
ATOM     46  C   UNL     1       7.003   3.088  23.831  0.00  0.00    +0.159 A 
ATOM     47  C   UNL     1       7.250   1.722  23.962  0.00  0.00    +0.060 A 
BRANCH  46  48
ATOM     48  O   UNL     1       6.604   3.858  24.891  0.00  0.00    -0.503 OA
ATOM     49  H   UNL     1       6.051   4.574  24.551  0.00  0.00    +0.292 HD
ENDBRANCH  46  48
BRANCH  45  50
ATOM     50  O   UNL     1       6.932   5.066  22.489  0.00  0.00    -0.503 OA
ATOM     51  H   UNL     1       7.396   5.462  23.254  0.00  0.00    +0.292 HD
ENDBRANCH  45  50
ENDBRANCH  41  42
BRANCH  31  53
ATOM     52  C   UNL     1      10.550   0.348  24.860  0.00  0.00    +0.277 C 
ATOM     53  O   UNL     1      10.274   0.028  23.498  0.00  0.00    -0.488 OA
ENDBRANCH  31  53
BRANCH  40  54
ATOM     54  O   UNL     1       9.258  -5.188  24.219  0.00  0.00    -0.506 OA
ATOM     55  H   UNL     1       9.191  -6.141  24.045  0.00  0.00    +0.292 HD
ENDBRANCH  40  54
ENDBRANCH  30  37
ENDBRANCH   1  30
TORSDOF 18
ENDMDL
MODEL 4
REMARK VINA RESULT:      -6.6      2.070      7.240
REMARK  Name = 
REMARK  19 active torsions:
REMARK  status: ('A' for Active; 'I' for Inactive)
REMARK    1  A    between atoms: C_1  and  O_2
REMARK    2  A    between atoms: O_2  and  C_3
REMARK    3  A    between atoms: C_4  and  C_44
REMARK    4  A    between atoms: C_8  and  O_15
REMARK    5  A    between atoms: C_10  and  O_14
REMARK    6  A    between atoms: O_15  and  C_16
REMARK    7  A    between atoms: C_18  and  O_43
REMARK    8  A    between atoms: C_19  and  O_42
REMARK    9  A    between atoms: C_21  and  O_41
REMARK   10  A    between atoms: C_23  and  C_25
REMARK   11  A    between atoms: C_25  and  O_26
REMARK   12  A    between atoms: O_26  and  C_27
REMARK   13  A    between atoms: C_29  and  O_40
REMARK   14  A    between atoms: C_30  and  O_39
REMARK   15  A    between atoms: C_32  and  O_38
REMARK   16  A    between atoms: C_34  and  C_36
REMARK   17  A    between atoms: C_36  and  O_37
REMARK   18  A    between atoms: C_46  and  O_51
REMARK   19  A    between atoms: C_47  and  O_50
REMARK                            x       y       z     vdW  Elec       q    Type
REMARK                         _______ _______ _______ _____ _____    ______ ____
ROOT
ATOM      1  C   UNL     1       6.626   2.109  23.255  0.00  0.00    +0.339 C 
ATOM      2  O   UNL     1       7.125   0.970  22.540  0.00  0.00    -0.331 OA
ATOM      3  C   UNL     1       8.474   0.615  22.893  0.00  0.00    +0.179 C 
ATOM      4  C   UNL     1       9.493   1.778  22.774  0.00  0.00    +0.177 C 
ATOM      5  C   UNL     1       8.940   3.134  23.233  0.00  0.00    +0.180 C 
ATOM      6  C   UNL     1       7.468   3.326  22.833  0.00  0.00    +0.214 C 
ENDROOT
BRANCH   6   7
ATOM      7  O   UNL     1       6.952   4.535  23.406  0.00  0.00    -0.383 OA
ATOM      8  H   UNL     1       6.193   4.810  22.856  0.00  0.00    +0.210 HD
ENDBRANCH   6   7
BRANCH   5   9
ATOM      9  O   UNL     1       9.113   3.330  24.643  0.00  0.00    -0.386 OA
ATOM     10  H   UNL     1      10.004   3.707  24.794  0.00  0.00    +0.210 HD
ENDBRANCH   5   9
BRANCH   4  11
ATOM     11  O   UNL     1       9.919   1.937  21.413  0.00  0.00    -0.386 OA
ATOM     12  H   UNL     1       9.171   1.667  20.849  0.00  0.00    +0.210 HD
ENDBRANCH   4  11
BRANCH   3  13
ATOM     13  C   UNL     1       8.897  -0.576  22.004  0.00  0.00    +0.197 C 
BRANCH  13  14
ATOM     14  O   UNL     1       8.881  -1.868  22.632  0.00  0.00    -0.346 OA
BRANCH  14  15
ATOM     15  C   UNL     1       8.076  -1.982  23.815  0.00  0.00    +0.282 C 
ATOM     16  O   UNL     1       8.798  -2.722  24.810  0.00  0.00    -0.341 OA
ATOM     17  C   UNL     1       9.018  -4.108  24.490  0.00  0.00    +0.178 C 
ATOM     18  C   UNL     1       7.708  -4.852  24.134  0.00  0.00    +0.177 C 
ATOM     19  C   UNL     1       6.902  -4.078  23.087  0.00  0.00    +0.179 C 
ATOM     20  C   UNL     1       6.698  -2.637  23.580  0.00  0.00    +0.201 C 
BRANCH  20  21
ATOM     21  O   UNL     1       5.853  -1.895  22.697  0.00  0.00    -0.384 OA
ATOM     22  H   UNL     1       6.035  -2.200  21.787  0.00  0.00    +0.210 HD
ENDBRANCH  20  21
BRANCH  19  23
ATOM     23  O   UNL     1       7.529  -4.126  21.800  0.00  0.00    -0.386 OA
ATOM     24  H   UNL     1       6.970  -4.663  21.201  0.00  0.00    +0.210 HD
ENDBRANCH  19  23
BRANCH  18  25
ATOM     25  O   UNL     1       6.899  -5.014  25.306  0.00  0.00    -0.386 OA
ATOM     26  H   UNL     1       6.177  -5.636  25.100  0.00  0.00    +0.210 HD
ENDBRANCH  18  25
BRANCH  17  27
ATOM     27  C   UNL     1       9.707  -4.780  25.696  0.00  0.00    +0.190 C 
BRANCH  27  28
ATOM     28  O   UNL     1       9.780  -6.201  25.572  0.00  0.00    -0.392 OA
ATOM     29  H   UNL     1      10.281  -6.413  24.768  0.00  0.00    +0.210 HD
ENDBRANCH  27  28
ENDBRANCH  17  27
ENDBRANCH  14  15
ENDBRANCH  13  14
ENDBRANCH   3  13
BRANCH   1  30
ATOM     30  O   UNL     1       6.716   1.941  24.684  0.00  0.00    -0.461 OA
BRANCH  30  37
ATOM     31  C   UNL     1       2.896  -2.005  28.138  0.00  0.00    +0.211 A 
ATOM     32  C   UNL     1       2.707  -0.536  27.855  0.00  0.00    +0.238 A 
ATOM     33  O   UNL     1       1.753   0.092  28.298  0.00  0.00    -0.283 OA
ATOM     34  C   UNL     1       3.745   0.122  27.022  0.00  0.00    +0.109 A 
ATOM     35  C   UNL     1       4.690  -0.682  26.392  0.00  0.00    +0.147 A 
ATOM     36  C   UNL     1       5.677  -0.131  25.552  0.00  0.00    +0.093 A 
ATOM     37  C   UNL     1       5.776   1.249  25.394  0.00  0.00    +0.131 A 
ATOM     38  C   UNL     1       4.838   2.061  26.046  0.00  0.00    +0.092 A 
ATOM     39  O   UNL     1       4.745  -2.041  26.569  0.00  0.00    -0.451 OA
ATOM     40  C   UNL     1       3.818   1.505  26.830  0.00  0.00    +0.135 A 
ATOM     41  C   UNL     1       3.918  -2.622  27.512  0.00  0.00    +0.181 A 
BRANCH  41  42
ATOM     42  C   UNL     1       4.288  -4.023  27.785  0.00  0.00    +0.025 A 
ATOM     43  C   UNL     1       5.226  -4.304  28.797  0.00  0.00    +0.015 A 
ATOM     44  C   UNL     1       5.648  -5.616  29.037  0.00  0.00    +0.050 A 
ATOM     45  C   UNL     1       5.126  -6.643  28.267  0.00  0.00    +0.158 A 
ATOM     46  C   UNL     1       4.190  -6.378  27.269  0.00  0.00    +0.159 A 
ATOM     47  C   UNL     1       3.765  -5.074  27.020  0.00  0.00    +0.060 A 
BRANCH  46  48
ATOM     48  O   UNL     1       3.722  -7.443  26.546  0.00  0.00    -0.503 OA
ATOM     49  H   UNL     1       4.285  -8.205  26.735  0.00  0.00    +0.292 HD
ENDBRANCH  46  48
BRANCH  45  50
ATOM     50  O   UNL     1       5.544  -7.923  28.492  0.00  0.00    -0.503 OA
ATOM     51  H   UNL     1       6.387  -7.825  28.979  0.00  0.00    +0.292 HD
ENDBRANCH  45  50
ENDBRANCH  41  42
BRANCH  31  53
ATOM     52  C   UNL     1       2.391  -2.491  30.415  0.00  0.00    +0.277 C 
ATOM     53  O   UNL     1       2.090  -2.699  29.037  0.00  0.00    -0.488 OA
ENDBRANCH  31  53
BRANCH  40  54
ATOM     54  O   UNL     1       2.924   2.347  27.427  0.00  0.00    -0.506 OA
ATOM     55  H   UNL     1       3.384   3.110  27.814  0.00  0.00    +0.292 HD
ENDBRANCH  40  54
ENDBRANCH  30  37
ENDBRANCH   1  30
TORSDOF 18
ENDMDL
MODEL 5
REMARK VINA RESULT:      -6.6      2.064      3.345
REMARK  Name = 
REMARK  19 active torsions:
REMARK  status: ('A' for Active; 'I' for Inactive)
REMARK    1  A    between atoms: C_1  and  O_2
REMARK    2  A    between atoms: O_2  and  C_3
REMARK    3  A    between atoms: C_4  and  C_44
REMARK    4  A    between atoms: C_8  and  O_15
REMARK    5  A    between atoms: C_10  and  O_14
REMARK    6  A    between atoms: O_15  and  C_16
REMARK    7  A    between atoms: C_18  and  O_43
REMARK    8  A    between atoms: C_19  and  O_42
REMARK    9  A    between atoms: C_21  and  O_41
REMARK   10  A    between atoms: C_23  and  C_25
REMARK   11  A    between atoms: C_25  and  O_26
REMARK   12  A    between atoms: O_26  and  C_27
REMARK   13  A    between atoms: C_29  and  O_40
REMARK   14  A    between atoms: C_30  and  O_39
REMARK   15  A    between atoms: C_32  and  O_38
REMARK   16  A    between atoms: C_34  and  C_36
REMARK   17  A    between atoms: C_36  and  O_37
REMARK   18  A    between atoms: C_46  and  O_51
REMARK   19  A    between atoms: C_47  and  O_50
REMARK                            x       y       z     vdW  Elec       q    Type
REMARK                         _______ _______ _______ _____ _____    ______ ____
ROOT
ATOM      1  C   UNL     1       4.686  -5.516  27.822  0.00  0.00    +0.339 C 
ATOM      2  O   UNL     1       5.199  -5.757  26.504  0.00  0.00    -0.331 OA
ATOM      3  C   UNL     1       4.180  -5.810  25.490  0.00  0.00    +0.179 C 
ATOM      4  C   UNL     1       3.039  -6.817  25.784  0.00  0.00    +0.177 C 
ATOM      5  C   UNL     1       2.618  -6.863  27.259  0.00  0.00    +0.180 C 
ATOM      6  C   UNL     1       3.819  -6.728  28.209  0.00  0.00    +0.214 C 
ENDROOT
BRANCH   6   7
ATOM      7  O   UNL     1       3.369  -6.628  29.566  0.00  0.00    -0.383 OA
ATOM      8  H   UNL     1       2.637  -5.979  29.577  0.00  0.00    +0.210 HD
ENDBRANCH   6   7
BRANCH   5   9
ATOM      9  O   UNL     1       1.619  -5.878  27.559  0.00  0.00    -0.386 OA
ATOM     10  H   UNL     1       1.699  -5.152  26.908  0.00  0.00    +0.210 HD
ENDBRANCH   5   9
BRANCH   4  11
ATOM     11  O   UNL     1       3.434  -8.147  25.418  0.00  0.00    -0.386 OA
ATOM     12  H   UNL     1       4.129  -8.419  26.046  0.00  0.00    +0.210 HD
ENDBRANCH   4  11
BRANCH   3  13
ATOM     13  C   UNL     1       4.868  -6.139  24.146  0.00  0.00    +0.197 C 
BRANCH  13  14
ATOM     14  O   UNL     1       5.216  -5.013  23.324  0.00  0.00    -0.346 OA
BRANCH  14  15
ATOM     15  C   UNL     1       6.489  -5.086  22.663  0.00  0.00    +0.282 C 
ATOM     16  O   UNL     1       7.507  -5.384  23.628  0.00  0.00    -0.341 OA
ATOM     17  C   UNL     1       7.753  -4.340  24.589  0.00  0.00    +0.178 C 
ATOM     18  C   UNL     1       8.049  -2.975  23.920  0.00  0.00    +0.177 C 
ATOM     19  C   UNL     1       6.989  -2.635  22.869  0.00  0.00    +0.179 C 
ATOM     20  C   UNL     1       6.869  -3.808  21.885  0.00  0.00    +0.201 C 
BRANCH  20  21
ATOM     21  O   UNL     1       5.976  -3.503  20.811  0.00  0.00    -0.384 OA
ATOM     22  H   UNL     1       6.517  -3.316  20.019  0.00  0.00    +0.210 HD
ENDBRANCH  20  21
BRANCH  19  23
ATOM     23  O   UNL     1       5.734  -2.306  23.474  0.00  0.00    -0.386 OA
ATOM     24  H   UNL     1       5.635  -1.331  23.475  0.00  0.00    +0.210 HD
ENDBRANCH  19  23
BRANCH  18  25
ATOM     25  O   UNL     1       9.333  -3.007  23.284  0.00  0.00    -0.386 OA
ATOM     26  H   UNL     1       9.787  -2.163  23.461  0.00  0.00    +0.210 HD
ENDBRANCH  18  25
BRANCH  17  27
ATOM     27  C   UNL     1       8.936  -4.771  25.480  0.00  0.00    +0.190 C 
BRANCH  27  28
ATOM     28  O   UNL     1       9.919  -5.526  24.768  0.00  0.00    -0.392 OA
ATOM     29  H   UNL     1       9.852  -6.453  25.045  0.00  0.00    +0.210 HD
ENDBRANCH  27  28
ENDBRANCH  17  27
ENDBRANCH  14  15
ENDBRANCH  13  14
ENDBRANCH   3  13
BRANCH   1  30
ATOM     30  O   UNL     1       3.885  -4.319  27.888  0.00  0.00    -0.461 OA
BRANCH  30  37
ATOM     31  C   UNL     1       6.725   1.449  27.014  0.00  0.00    +0.211 A 
ATOM     32  C   UNL     1       5.838   1.008  28.152  0.00  0.00    +0.238 A 
ATOM     33  O   UNL     1       5.542   1.762  29.072  0.00  0.00    -0.283 OA
ATOM     34  C   UNL     1       5.327  -0.384  28.098  0.00  0.00    +0.109 A 
ATOM     35  C   UNL     1       5.854  -1.242  27.138  0.00  0.00    +0.147 A 
ATOM     36  C   UNL     1       5.447  -2.588  27.056  0.00  0.00    +0.093 A 
ATOM     37  C   UNL     1       4.444  -3.072  27.892  0.00  0.00    +0.131 A 
ATOM     38  C   UNL     1       3.896  -2.202  28.845  0.00  0.00    +0.092 A 
ATOM     39  O   UNL     1       6.767  -0.835  26.199  0.00  0.00    -0.451 OA
ATOM     40  C   UNL     1       4.349  -0.881  28.965  0.00  0.00    +0.135 A 
ATOM     41  C   UNL     1       7.077   0.510  26.114  0.00  0.00    +0.181 A 
BRANCH  41  42
ATOM     42  C   UNL     1       7.841   0.826  24.892  0.00  0.00    +0.025 A 
ATOM     43  C   UNL     1       9.247   0.774  24.924  0.00  0.00    +0.015 A 
ATOM     44  C   UNL     1      10.002   1.131  23.802  0.00  0.00    +0.050 A 
ATOM     45  C   UNL     1       9.347   1.535  22.650  0.00  0.00    +0.158 A 
ATOM     46  C   UNL     1       7.955   1.581  22.604  0.00  0.00    +0.159 A 
ATOM     47  C   UNL     1       7.193   1.229  23.717  0.00  0.00    +0.060 A 
BRANCH  46  48
ATOM     48  O   UNL     1       7.377   1.993  21.432  0.00  0.00    -0.503 OA
ATOM     49  H   UNL     1       7.895   1.633  20.700  0.00  0.00    +0.292 HD
ENDBRANCH  46  48
BRANCH  45  50
ATOM     50  O   UNL     1      10.082   1.895  21.557  0.00  0.00    -0.503 OA
ATOM     51  H   UNL     1       9.714   2.760  21.287  0.00  0.00    +0.292 HD
ENDBRANCH  45  50
ENDBRANCH  41  42
BRANCH  31  53
ATOM     52  C   UNL     1       6.145   3.661  26.344  0.00  0.00    +0.277 C 
ATOM     53  O   UNL     1       7.134   2.771  26.859  0.00  0.00    -0.488 OA
ENDBRANCH  31  53
BRANCH  40  54
ATOM     54  O   UNL     1       3.788  -0.087  29.924  0.00  0.00    -0.506 OA
ATOM     55  H   UNL     1       3.108  -0.577  30.414  0.00  0.00    +0.292 HD
ENDBRANCH  40  54
ENDBRANCH  30  37
ENDBRANCH   1  30
TORSDOF 18
ENDMDL
MODEL 6
REMARK VINA RESULT:      -6.5      2.381      6.175
REMARK  Name = 
REMARK  19 active torsions:
REMARK  status: ('A' for Active; 'I' for Inactive)
REMARK    1  A    between atoms: C_1  and  O_2
REMARK    2  A    between atoms: O_2  and  C_3
REMARK    3  A    between atoms: C_4  and  C_44
REMARK    4  A    between atoms: C_8  and  O_15
REMARK    5  A    between atoms: C_10  and  O_14
REMARK    6  A    between atoms: O_15  and  C_16
REMARK    7  A    between atoms: C_18  and  O_43
REMARK    8  A    between atoms: C_19  and  O_42
REMARK    9  A    between atoms: C_21  and  O_41
REMARK   10  A    between atoms: C_23  and  C_25
REMARK   11  A    between atoms: C_25  and  O_26
REMARK   12  A    between atoms: O_26  and  C_27
REMARK   13  A    between atoms: C_29  and  O_40
REMARK   14  A    between atoms: C_30  and  O_39
REMARK   15  A    between atoms: C_32  and  O_38
REMARK   16  A    between atoms: C_34  and  C_36
REMARK   17  A    between atoms: C_36  and  O_37
REMARK   18  A    between atoms: C_46  and  O_51
REMARK   19  A    between atoms: C_47  and  O_50
REMARK                            x       y       z     vdW  Elec       q    Type
REMARK                         _______ _______ _______ _____ _____    ______ ____
ROOT
ATOM      1  C   UNL     1       7.217  -3.284  25.172  0.00  0.00    +0.339 C 
ATOM      2  O   UNL     1       6.004  -3.426  25.925  0.00  0.00    -0.331 OA
ATOM      3  C   UNL     1       6.218  -3.846  27.285  0.00  0.00    +0.179 C 
ATOM      4  C   UNL     1       7.062  -5.139  27.429  0.00  0.00    +0.177 C 
ATOM      5  C   UNL     1       8.227  -5.231  26.434  0.00  0.00    +0.180 C 
ATOM      6  C   UNL     1       7.852  -4.680  25.049  0.00  0.00    +0.214 C 
ENDROOT
BRANCH   6   7
ATOM      7  O   UNL     1       9.006  -4.650  24.199  0.00  0.00    -0.383 OA
ATOM      8  H   UNL     1       8.898  -5.369  23.545  0.00  0.00    +0.210 HD
ENDBRANCH   6   7
BRANCH   5   9
ATOM      9  O   UNL     1       9.407  -4.587  26.935  0.00  0.00    -0.386 OA
ATOM     10  H   UNL     1       9.347  -4.552  27.911  0.00  0.00    +0.210 HD
ENDBRANCH   5   9
BRANCH   4  11
ATOM     11  O   UNL     1       6.244  -6.300  27.227  0.00  0.00    -0.386 OA
ATOM     12  H   UNL     1       6.078  -6.366  26.269  0.00  0.00    +0.210 HD
ENDBRANCH   4  11
BRANCH   3  13
ATOM     13  C   UNL     1       4.833  -4.020  27.948  0.00  0.00    +0.197 C 
BRANCH  13  14
ATOM     14  O   UNL     1       3.699  -3.940  27.070  0.00  0.00    -0.346 OA
BRANCH  14  15
ATOM     15  C   UNL     1       3.029  -5.180  26.793  0.00  0.00    +0.282 C 
ATOM     16  O   UNL     1       3.752  -5.891  25.777  0.00  0.00    -0.341 OA
ATOM     17  C   UNL     1       3.736  -5.271  24.478  0.00  0.00    +0.178 C 
ATOM     18  C   UNL     1       2.301  -4.965  23.983  0.00  0.00    +0.177 C 
ATOM     19  C   UNL     1       1.495  -4.223  25.053  0.00  0.00    +0.179 C 
ATOM     20  C   UNL     1       1.555  -5.019  26.364  0.00  0.00    +0.201 C 
BRANCH  20  21
ATOM     21  O   UNL     1       0.726  -4.435  27.372  0.00  0.00    -0.384 OA
ATOM     22  H   UNL     1       1.243  -4.406  28.200  0.00  0.00    +0.210 HD
ENDBRANCH  20  21
BRANCH  19  23
ATOM     23  O   UNL     1       1.953  -2.876  25.215  0.00  0.00    -0.386 OA
ATOM     24  H   UNL     1       1.637  -2.542  26.080  0.00  0.00    +0.210 HD
ENDBRANCH  19  23
BRANCH  18  25
ATOM     25  O   UNL     1       1.620  -6.185  23.662  0.00  0.00    -0.386 OA
ATOM     26  H   UNL     1       1.441  -6.667  24.489  0.00  0.00    +0.210 HD
ENDBRANCH  18  25
BRANCH  17  27
ATOM     27  C   UNL     1       4.460  -6.205  23.487  0.00  0.00    +0.190 C 
BRANCH  27  28
ATOM     28  O   UNL     1       4.397  -7.579  23.873  0.00  0.00    -0.392 OA
ATOM     29  H   UNL     1       4.229  -8.112  23.081  0.00  0.00    +0.210 HD
ENDBRANCH  27  28
ENDBRANCH  17  27
ENDBRANCH  14  15
ENDBRANCH  13  14
ENDBRANCH   3  13
BRANCH   1  30
ATOM     30  O   UNL     1       8.154  -2.389  25.805  0.00  0.00    -0.461 OA
BRANCH  30  37
ATOM     31  C   UNL     1       8.609   3.746  23.746  0.00  0.00    +0.211 A 
ATOM     32  C   UNL     1       9.711   2.727  23.893  0.00  0.00    +0.238 A 
ATOM     33  O   UNL     1      10.879   2.993  23.633  0.00  0.00    -0.283 OA
ATOM     34  C   UNL     1       9.316   1.384  24.386  0.00  0.00    +0.109 A 
ATOM     35  C   UNL     1       7.959   1.089  24.476  0.00  0.00    +0.147 A 
ATOM     36  C   UNL     1       7.512  -0.180  24.894  0.00  0.00    +0.093 A 
ATOM     37  C   UNL     1       8.425  -1.148  25.303  0.00  0.00    +0.131 A 
ATOM     38  C   UNL     1       9.791  -0.844  25.234  0.00  0.00    +0.092 A 
ATOM     39  O   UNL     1       6.980   2.008  24.200  0.00  0.00    -0.451 OA
ATOM     40  C   UNL     1      10.235   0.397  24.758  0.00  0.00    +0.135 A 
ATOM     41  C   UNL     1       7.348   3.318  23.953  0.00  0.00    +0.181 A 
BRANCH  41  42
ATOM     42  C   UNL     1       6.189   4.229  23.956  0.00  0.00    +0.025 A 
ATOM     43  C   UNL     1       5.786   4.829  25.165  0.00  0.00    +0.015 A 
ATOM     44  C   UNL     1       4.652   5.646  25.215  0.00  0.00    +0.050 A 
ATOM     45  C   UNL     1       3.927   5.864  24.054  0.00  0.00    +0.158 A 
ATOM     46  C   UNL     1       4.322   5.283  22.850  0.00  0.00    +0.159 A 
ATOM     47  C   UNL     1       5.449   4.466  22.790  0.00  0.00    +0.060 A 
BRANCH  46  48
ATOM     48  O   UNL     1       3.554   5.541  21.745  0.00  0.00    -0.503 OA
ATOM     49  H   UNL     1       3.232   4.698  21.401  0.00  0.00    +0.292 HD
ENDBRANCH  46  48
BRANCH  45  50
ATOM     50  O   UNL     1       2.813   6.652  24.102  0.00  0.00    -0.503 OA
ATOM     51  H   UNL     1       3.130   7.506  24.461  0.00  0.00    +0.292 HD
ENDBRANCH  45  50
ENDBRANCH  41  42
BRANCH  31  53
ATOM     52  C   UNL     1       9.387   5.856  24.534  0.00  0.00    +0.277 C 
ATOM     53  O   UNL     1       8.867   5.083  23.453  0.00  0.00    -0.488 OA
ENDBRANCH  31  53
BRANCH  40  54
ATOM     54  O   UNL     1      11.579   0.628  24.698  0.00  0.00    -0.506 OA
ATOM     55  H   UNL     1      11.786   1.512  25.043  0.00  0.00    +0.292 HD
ENDBRANCH  40  54
ENDBRANCH  30  37
ENDBRANCH   1  30
TORSDOF 18
ENDMDL
MODEL 7
REMARK VINA RESULT:      -6.5      2.560      6.371
REMARK  Name = 
REMARK  19 active torsions:
REMARK  status: ('A' for Active; 'I' for Inactive)
REMARK    1  A    between atoms: C_1  and  O_2
REMARK    2  A    between atoms: O_2  and  C_3
REMARK    3  A    between atoms: C_4  and  C_44
REMARK    4  A    between atoms: C_8  and  O_15
REMARK    5  A    between atoms: C_10  and  O_14
REMARK    6  A    between atoms: O_15  and  C_16
REMARK    7  A    between atoms: C_18  and  O_43
REMARK    8  A    between atoms: C_19  and  O_42
REMARK    9  A    between atoms: C_21  and  O_41
REMARK   10  A    between atoms: C_23  and  C_25
REMARK   11  A    between atoms: C_25  and  O_26
REMARK   12  A    between atoms: O_26  and  C_27
REMARK   13  A    between atoms: C_29  and  O_40
REMARK   14  A    between atoms: C_30  and  O_39
REMARK   15  A    between atoms: C_32  and  O_38
REMARK   16  A    between atoms: C_34  and  C_36
REMARK   17  A    between atoms: C_36  and  O_37
REMARK   18  A    between atoms: C_46  and  O_51
REMARK   19  A    between atoms: C_47  and  O_50
REMARK                            x       y       z     vdW  Elec       q    Type
REMARK                         _______ _______ _______ _____ _____    ______ ____
ROOT
ATOM      1  C   UNL     1       7.986  -3.536  24.389  0.00  0.00    +0.339 C 
ATOM      2  O   UNL     1       6.559  -3.605  24.522  0.00  0.00    -0.331 OA
ATOM      3  C   UNL     1       6.117  -3.830  25.872  0.00  0.00    +0.179 C 
ATOM      4  C   UNL     1       6.752  -5.069  26.554  0.00  0.00    +0.177 C 
ATOM      5  C   UNL     1       8.236  -5.267  26.219  0.00  0.00    +0.180 C 
ATOM      6  C   UNL     1       8.552  -4.920  24.755  0.00  0.00    +0.214 C 
ENDROOT
BRANCH   6   7
ATOM      7  O   UNL     1       9.965  -4.977  24.525  0.00  0.00    -0.383 OA
ATOM      8  H   UNL     1      10.340  -5.581  25.197  0.00  0.00    +0.210 HD
ENDBRANCH   6   7
BRANCH   5   9
ATOM      9  O   UNL     1       9.087  -4.532  27.110  0.00  0.00    -0.386 OA
ATOM     10  H   UNL     1       9.901  -5.054  27.258  0.00  0.00    +0.210 HD
ENDBRANCH   5   9
BRANCH   4  11
ATOM     11  O   UNL     1       6.068  -6.267  26.159  0.00  0.00    -0.386 OA
ATOM     12  H   UNL     1       5.345  -6.405  26.800  0.00  0.00    +0.210 HD
ENDBRANCH   4  11
BRANCH   3  13
ATOM     13  C   UNL     1       4.576  -3.946  25.852  0.00  0.00    +0.197 C 
BRANCH  13  14
ATOM     14  O   UNL     1       4.028  -4.892  24.919  0.00  0.00    -0.346 OA
BRANCH  14  15
ATOM     15  C   UNL     1       2.607  -5.089  24.985  0.00  0.00    +0.282 C 
ATOM     16  O   UNL     1       2.244  -5.480  26.317  0.00  0.00    -0.341 OA
ATOM     17  C   UNL     1       2.723  -6.778  26.718  0.00  0.00    +0.178 C 
ATOM     18  C   UNL     1       2.325  -7.892  25.719  0.00  0.00    +0.177 C 
ATOM     19  C   UNL     1       2.681  -7.498  24.283  0.00  0.00    +0.179 C 
ATOM     20  C   UNL     1       2.066  -6.124  23.976  0.00  0.00    +0.201 C 
BRANCH  20  21
ATOM     21  O   UNL     1       2.267  -5.752  22.610  0.00  0.00    -0.384 OA
ATOM     22  H   UNL     1       2.404  -6.572  22.097  0.00  0.00    +0.210 HD
ENDBRANCH  20  21
BRANCH  19  23
ATOM     23  O   UNL     1       4.097  -7.517  24.068  0.00  0.00    -0.386 OA
ATOM     24  H   UNL     1       4.426  -6.594  24.076  0.00  0.00    +0.210 HD
ENDBRANCH  19  23
BRANCH  18  25
ATOM     25  O   UNL     1       0.915  -8.137  25.790  0.00  0.00    -0.386 OA
ATOM     26  H   UNL     1       0.774  -9.078  26.000  0.00  0.00    +0.210 HD
ENDBRANCH  18  25
BRANCH  17  27
ATOM     27  C   UNL     1       2.164  -7.088  28.121  0.00  0.00    +0.190 C 
BRANCH  27  28
ATOM     28  O   UNL     1       3.133  -7.684  28.985  0.00  0.00    -0.392 OA
ATOM     29  H   UNL     1       3.345  -7.052  29.690  0.00  0.00    +0.210 HD
ENDBRANCH  27  28
ENDBRANCH  17  27
ENDBRANCH  14  15
ENDBRANCH  13  14
ENDBRANCH   3  13
BRANCH   1  30
ATOM     30  O   UNL     1       8.569  -2.541  25.254  0.00  0.00    -0.461 OA
BRANCH  30  37
ATOM     31  C   UNL     1       8.676   3.736  23.616  0.00  0.00    +0.211 A 
ATOM     32  C   UNL     1       9.839   2.785  23.742  0.00  0.00    +0.238 A 
ATOM     33  O   UNL     1      10.995   3.144  23.547  0.00  0.00    -0.283 OA
ATOM     34  C   UNL     1       9.520   1.388  24.131  0.00  0.00    +0.109 A 
ATOM     35  C   UNL     1       8.184   0.999  24.146  0.00  0.00    +0.147 A 
ATOM     36  C   UNL     1       7.810  -0.322  24.463  0.00  0.00    +0.093 A 
ATOM     37  C   UNL     1       8.773  -1.253  24.845  0.00  0.00    +0.131 A 
ATOM     38  C   UNL     1      10.116  -0.855  24.851  0.00  0.00    +0.092 A 
ATOM     39  O   UNL     1       7.154   1.867  23.891  0.00  0.00    -0.451 OA
ATOM     40  C   UNL     1      10.490   0.441  24.475  0.00  0.00    +0.135 A 
ATOM     41  C   UNL     1       7.441   3.212  23.743  0.00  0.00    +0.181 A 
BRANCH  41  42
ATOM     42  C   UNL     1       6.222   4.043  23.759  0.00  0.00    +0.025 A 
ATOM     43  C   UNL     1       5.813   4.646  24.964  0.00  0.00    +0.015 A 
ATOM     44  C   UNL     1       4.627   5.386  25.027  0.00  0.00    +0.050 A 
ATOM     45  C   UNL     1       3.857   5.523  23.883  0.00  0.00    +0.158 A 
ATOM     46  C   UNL     1       4.257   4.937  22.683  0.00  0.00    +0.159 A 
ATOM     47  C   UNL     1       5.436   4.197  22.610  0.00  0.00    +0.060 A 
BRANCH  46  48
ATOM     48  O   UNL     1       3.443   5.113  21.595  0.00  0.00    -0.503 OA
ATOM     49  H   UNL     1       3.664   5.961  21.189  0.00  0.00    +0.292 HD
ENDBRANCH  46  48
BRANCH  45  50
ATOM     50  O   UNL     1       2.694   6.234  23.944  0.00  0.00    -0.503 OA
ATOM     51  H   UNL     1       2.607   6.484  24.887  0.00  0.00    +0.292 HD
ENDBRANCH  45  50
ENDBRANCH  41  42
BRANCH  31  53
ATOM     52  C   UNL     1       9.344   5.824  24.550  0.00  0.00    +0.277 C 
ATOM     53  O   UNL     1       8.852   5.104  23.422  0.00  0.00    -0.488 OA
ENDBRANCH  31  53
BRANCH  40  54
ATOM     54  O   UNL     1      11.817   0.765  24.485  0.00  0.00    -0.506 OA
ATOM     55  H   UNL     1      12.213   0.598  23.614  0.00  0.00    +0.292 HD
ENDBRANCH  40  54
ENDBRANCH  30  37
ENDBRANCH   1  30
TORSDOF 18
ENDMDL
MODEL 8
REMARK VINA RESULT:      -6.5      1.870      8.635
REMARK  Name = 
REMARK  19 active torsions:
REMARK  status: ('A' for Active; 'I' for Inactive)
REMARK    1  A    between atoms: C_1  and  O_2
REMARK    2  A    between atoms: O_2  and  C_3
REMARK    3  A    between atoms: C_4  and  C_44
REMARK    4  A    between atoms: C_8  and  O_15
REMARK    5  A    between atoms: C_10  and  O_14
REMARK    6  A    between atoms: O_15  and  C_16
REMARK    7  A    between atoms: C_18  and  O_43
REMARK    8  A    between atoms: C_19  and  O_42
REMARK    9  A    between atoms: C_21  and  O_41
REMARK   10  A    between atoms: C_23  and  C_25
REMARK   11  A    between atoms: C_25  and  O_26
REMARK   12  A    between atoms: O_26  and  C_27
REMARK   13  A    between atoms: C_29  and  O_40
REMARK   14  A    between atoms: C_30  and  O_39
REMARK   15  A    between atoms: C_32  and  O_38
REMARK   16  A    between atoms: C_34  and  C_36
REMARK   17  A    between atoms: C_36  and  O_37
REMARK   18  A    between atoms: C_46  and  O_51
REMARK   19  A    between atoms: C_47  and  O_50
REMARK                            x       y       z     vdW  Elec       q    Type
REMARK                         _______ _______ _______ _____ _____    ______ ____
ROOT
ATOM      1  C   UNL     1       7.011   3.422  23.886  0.00  0.00    +0.339 C 
ATOM      2  O   UNL     1       6.375   3.550  25.165  0.00  0.00    -0.331 OA
ATOM      3  C   UNL     1       4.938   3.535  25.098  0.00  0.00    +0.179 C 
ATOM      4  C   UNL     1       4.334   4.579  24.122  0.00  0.00    +0.177 C 
ATOM      5  C   UNL     1       5.134   4.748  22.824  0.00  0.00    +0.180 C 
ATOM      6  C   UNL     1       6.651   4.673  23.063  0.00  0.00    +0.214 C 
ENDROOT
BRANCH   6   7
ATOM      7  O   UNL     1       7.351   4.688  21.813  0.00  0.00    -0.383 OA
ATOM      8  H   UNL     1       7.792   3.819  21.722  0.00  0.00    +0.210 HD
ENDBRANCH   6   7
BRANCH   5   9
ATOM      9  O   UNL     1       4.730   3.804  21.822  0.00  0.00    -0.386 OA
ATOM     10  H   UNL     1       4.982   2.908  22.125  0.00  0.00    +0.210 HD
ENDBRANCH   5   9
BRANCH   4  11
ATOM     11  O   UNL     1       4.265   5.869  24.745  0.00  0.00    -0.386 OA
ATOM     12  H   UNL     1       4.999   5.914  25.386  0.00  0.00    +0.210 HD
ENDBRANCH   4  11
BRANCH   3  13
ATOM     13  C   UNL     1       4.395   3.746  26.529  0.00  0.00    +0.197 C 
BRANCH  13  14
ATOM     14  O   UNL     1       4.022   2.557  27.243  0.00  0.00    -0.346 OA
BRANCH  14  15
ATOM     15  C   UNL     1       4.385   1.312  26.625  0.00  0.00    +0.282 C 
ATOM     16  O   UNL     1       3.229   0.465  26.550  0.00  0.00    -0.341 OA
ATOM     17  C   UNL     1       2.732   0.009  27.823  0.00  0.00    +0.178 C 
ATOM     18  C   UNL     1       3.827  -0.675  28.678  0.00  0.00    +0.177 C 
ATOM     19  C   UNL     1       5.085   0.196  28.761  0.00  0.00    +0.179 C 
ATOM     20  C   UNL     1       5.531   0.564  27.338  0.00  0.00    +0.201 C 
BRANCH  20  21
ATOM     21  O   UNL     1       6.768   1.282  27.345  0.00  0.00    -0.384 OA
ATOM     22  H   UNL     1       7.138   1.242  26.442  0.00  0.00    +0.210 HD
ENDBRANCH  20  21
BRANCH  19  23
ATOM     23  O   UNL     1       4.870   1.352  29.578  0.00  0.00    -0.386 OA
ATOM     24  H   UNL     1       5.176   1.152  30.486  0.00  0.00    +0.210 HD
ENDBRANCH  19  23
BRANCH  18  25
ATOM     25  O   UNL     1       4.183  -1.939  28.104  0.00  0.00    -0.386 OA
ATOM     26  H   UNL     1       3.722  -2.643  28.596  0.00  0.00    +0.210 HD
ENDBRANCH  18  25
BRANCH  17  27
ATOM     27  C   UNL     1       1.565  -0.966  27.565  0.00  0.00    +0.190 C 
BRANCH  27  28
ATOM     28  O   UNL     1       1.708  -1.691  26.342  0.00  0.00    -0.392 OA
ATOM     29  H   UNL     1       1.741  -1.054  25.611  0.00  0.00    +0.210 HD
ENDBRANCH  27  28
ENDBRANCH  17  27
ENDBRANCH  14  15
ENDBRANCH  13  14
ENDBRANCH   3  13
BRANCH   1  30
ATOM     30  O   UNL     1       6.579   2.245  23.174  0.00  0.00    -0.461 OA
BRANCH  30  37
ATOM     31  C   UNL     1       8.397  -3.910  24.119  0.00  0.00    +0.211 A 
ATOM     32  C   UNL     1       9.263  -2.725  23.773  0.00  0.00    +0.238 A 
ATOM     33  O   UNL     1      10.473  -2.830  23.613  0.00  0.00    -0.283 OA
ATOM     34  C   UNL     1       8.574  -1.419  23.620  0.00  0.00    +0.109 A 
ATOM     35  C   UNL     1       7.240  -1.330  24.004  0.00  0.00    +0.147 A 
ATOM     36  C   UNL     1       6.535  -0.112  23.927  0.00  0.00    +0.093 A 
ATOM     37  C   UNL     1       7.143   1.019  23.389  0.00  0.00    +0.131 A 
ATOM     38  C   UNL     1       8.480   0.925  22.981  0.00  0.00    +0.092 A 
ATOM     39  O   UNL     1       6.520  -2.410  24.445  0.00  0.00    -0.451 OA
ATOM     40  C   UNL     1       9.197  -0.272  23.118  0.00  0.00    +0.135 A 
ATOM     41  C   UNL     1       7.098  -3.665  24.381  0.00  0.00    +0.181 A 
BRANCH  41  42
ATOM     42  C   UNL     1       6.117  -4.740  24.617  0.00  0.00    +0.025 A 
ATOM     43  C   UNL     1       6.038  -5.335  25.891  0.00  0.00    +0.015 A 
ATOM     44  C   UNL     1       5.164  -6.401  26.129  0.00  0.00    +0.050 A 
ATOM     45  C   UNL     1       4.369  -6.865  25.094  0.00  0.00    +0.158 A 
ATOM     46  C   UNL     1       4.432  -6.278  23.831  0.00  0.00    +0.159 A 
ATOM     47  C   UNL     1       5.301  -5.216  23.583  0.00  0.00    +0.060 A 
BRANCH  46  48
ATOM     48  O   UNL     1       3.619  -6.792  22.857  0.00  0.00    -0.503 OA
ATOM     49  H   UNL     1       3.974  -7.651  22.592  0.00  0.00    +0.292 HD
ENDBRANCH  46  48
BRANCH  45  50
ATOM     50  O   UNL     1       3.524  -7.913  25.321  0.00  0.00    -0.503 OA
ATOM     51  H   UNL     1       3.941  -8.412  26.052  0.00  0.00    +0.292 HD
ENDBRANCH  45  50
ENDBRANCH  41  42
BRANCH  31  53
ATOM     52  C   UNL     1       9.576  -5.599  25.318  0.00  0.00    +0.277 C 
ATOM     53  O   UNL     1       8.890  -5.213  24.128  0.00  0.00    -0.488 OA
ENDBRANCH  31  53
BRANCH  40  54
ATOM     54  O   UNL     1      10.502  -0.297  22.718  0.00  0.00    -0.506 OA
ATOM     55  H   UNL     1      10.562  -0.211  21.753  0.00  0.00    +0.292 HD
ENDBRANCH  40  54
ENDBRANCH  30  37
ENDBRANCH   1  30
TORSDOF 18
ENDMDL
MODEL 9
REMARK VINA RESULT:      -6.4      2.217      7.054
REMARK  Name = 
REMARK  19 active torsions:
REMARK  status: ('A' for Active; 'I' for Inactive)
REMARK    1  A    between atoms: C_1  and  O_2
REMARK    2  A    between atoms: O_2  and  C_3
REMARK    3  A    between atoms: C_4  and  C_44
REMARK    4  A    between atoms: C_8  and  O_15
REMARK    5  A    between atoms: C_10  and  O_14
REMARK    6  A    between atoms: O_15  and  C_16
REMARK    7  A    between atoms: C_18  and  O_43
REMARK    8  A    between atoms: C_19  and  O_42
REMARK    9  A    between atoms: C_21  and  O_41
REMARK   10  A    between atoms: C_23  and  C_25
REMARK   11  A    between atoms: C_25  and  O_26
REMARK   12  A    between atoms: O_26  and  C_27
REMARK   13  A    between atoms: C_29  and  O_40
REMARK   14  A    between atoms: C_30  and  O_39
REMARK   15  A    between atoms: C_32  and  O_38
REMARK   16  A    between atoms: C_34  and  C_36
REMARK   17  A    between atoms: C_36  and  O_37
REMARK   18  A    between atoms: C_46  and  O_51
REMARK   19  A    between atoms: C_47  and  O_50
REMARK                            x       y       z     vdW  Elec       q    Type
REMARK                         _______ _______ _______ _____ _____    ______ ____
ROOT
ATOM      1  C   UNL     1       7.215   0.836  22.708  0.00  0.00    +0.339 C 
ATOM      2  O   UNL     1       7.357  -0.588  22.617  0.00  0.00    -0.331 OA
ATOM      3  C   UNL     1       8.554  -1.088  23.239  0.00  0.00    +0.179 C 
ATOM      4  C   UNL     1       9.860  -0.413  22.747  0.00  0.00    +0.177 C 
ATOM      5  C   UNL     1       9.724   1.097  22.509  0.00  0.00    +0.180 C 
ATOM      6  C   UNL     1       8.362   1.469  21.900  0.00  0.00    +0.214 C 
ENDROOT
BRANCH   6   7
ATOM      7  O   UNL     1       8.221   2.894  21.832  0.00  0.00    -0.383 OA
ATOM      8  H   UNL     1       7.445   3.077  21.268  0.00  0.00    +0.210 HD
ENDBRANCH   6   7
BRANCH   5   9
ATOM      9  O   UNL     1       9.968   1.849  23.706  0.00  0.00    -0.386 OA
ATOM     10  H   UNL     1      10.930   2.017  23.772  0.00  0.00    +0.210 HD
ENDBRANCH   5   9
BRANCH   4  11
ATOM     11  O   UNL     1      10.292  -0.996  21.509  0.00  0.00    -0.386 OA
ATOM     12  H   UNL     1       9.717  -1.766  21.343  0.00  0.00    +0.210 HD
ENDBRANCH   4  11
BRANCH   3  13
ATOM     13  C   UNL     1       8.606  -2.615  23.007  0.00  0.00    +0.197 C 
BRANCH  13  14
ATOM     14  O   UNL     1       8.956  -3.414  24.148  0.00  0.00    -0.346 OA
BRANCH  14  15
ATOM     15  C   UNL     1       8.543  -4.789  24.103  0.00  0.00    +0.282 C 
ATOM     16  O   UNL     1       7.137  -4.852  23.822  0.00  0.00    -0.341 OA
ATOM     17  C   UNL     1       6.289  -4.341  24.867  0.00  0.00    +0.178 C 
ATOM     18  C   UNL     1       6.578  -4.996  26.240  0.00  0.00    +0.177 C 
ATOM     19  C   UNL     1       8.074  -4.963  26.563  0.00  0.00    +0.179 C 
ATOM     20  C   UNL     1       8.850  -5.583  25.391  0.00  0.00    +0.201 C 
BRANCH  20  21
ATOM     21  O   UNL     1      10.246  -5.685  25.681  0.00  0.00    -0.384 OA
ATOM     22  H   UNL     1      10.519  -4.856  26.120  0.00  0.00    +0.210 HD
ENDBRANCH  20  21
BRANCH  19  23
ATOM     23  O   UNL     1       8.518  -3.635  26.864  0.00  0.00    -0.386 OA
ATOM     24  H   UNL     1       9.494  -3.645  26.951  0.00  0.00    +0.210 HD
ENDBRANCH  19  23
BRANCH  18  25
ATOM     25  O   UNL     1       6.140  -6.360  26.237  0.00  0.00    -0.386 OA
ATOM     26  H   UNL     1       5.313  -6.421  26.749  0.00  0.00    +0.210 HD
ENDBRANCH  18  25
BRANCH  17  27
ATOM     27  C   UNL     1       4.820  -4.576  24.457  0.00  0.00    +0.190 C 
BRANCH  27  28
ATOM     28  O   UNL     1       4.041  -3.379  24.475  0.00  0.00    -0.392 OA
ATOM     29  H   UNL     1       4.545  -2.679  24.029  0.00  0.00    +0.210 HD
ENDBRANCH  27  28
ENDBRANCH  17  27
ENDBRANCH  14  15
ENDBRANCH  13  14
ENDBRANCH   3  13
BRANCH   1  30
ATOM     30  O   UNL     1       7.275   1.307  24.069  0.00  0.00    -0.461 OA
BRANCH  30  37
ATOM     31  C   UNL     1       3.287  -1.153  28.556  0.00  0.00    +0.211 A 
ATOM     32  C   UNL     1       3.427   0.283  28.119  0.00  0.00    +0.238 A 
ATOM     33  O   UNL     1       2.761   1.181  28.621  0.00  0.00    -0.283 OA
ATOM     34  C   UNL     1       4.425   0.563  27.057  0.00  0.00    +0.109 A 
ATOM     35  C   UNL     1       5.003  -0.516  26.396  0.00  0.00    +0.147 A 
ATOM     36  C   UNL     1       5.926  -0.326  25.349  0.00  0.00    +0.093 A 
ATOM     37  C   UNL     1       6.339   0.958  25.000  0.00  0.00    +0.131 A 
ATOM     38  C   UNL     1       5.774   2.045  25.680  0.00  0.00    +0.092 A 
ATOM     39  O   UNL     1       4.745  -1.820  26.736  0.00  0.00    -0.451 OA
ATOM     40  C   UNL     1       4.809   1.854  26.679  0.00  0.00    +0.135 A 
ATOM     41  C   UNL     1       3.986  -2.074  27.864  0.00  0.00    +0.181 A 
BRANCH  41  42
ATOM     42  C   UNL     1       4.034  -3.495  28.255  0.00  0.00    +0.025 A 
ATOM     43  C   UNL     1       3.071  -4.385  27.742  0.00  0.00    +0.015 A 
ATOM     44  C   UNL     1       3.050  -5.725  28.144  0.00  0.00    +0.050 A 
ATOM     45  C   UNL     1       3.995  -6.171  29.054  0.00  0.00    +0.158 A 
ATOM     46  C   UNL     1       4.959  -5.301  29.561  0.00  0.00    +0.159 A 
ATOM     47  C   UNL     1       4.988  -3.964  29.168  0.00  0.00    +0.060 A 
BRANCH  46  48
ATOM     48  O   UNL     1       5.859  -5.812  30.459  0.00  0.00    -0.503 OA
ATOM     49  H   UNL     1       6.079  -6.712  30.183  0.00  0.00    +0.292 HD
ENDBRANCH  46  48
BRANCH  45  50
ATOM     50  O   UNL     1       3.970  -7.475  29.457  0.00  0.00    -0.503 OA
ATOM     51  H   UNL     1       3.577  -7.958  28.702  0.00  0.00    +0.292 HD
ENDBRANCH  45  50
ENDBRANCH  41  42
BRANCH  31  53
ATOM     52  C   UNL     1       1.111  -1.632  29.401  0.00  0.00    +0.277 C 
ATOM     53  O   UNL     1       2.512  -1.525  29.652  0.00  0.00    -0.488 OA
ENDBRANCH  31  53
BRANCH  40  54
ATOM     54  O   UNL     1       4.283   2.953  27.294  0.00  0.00    -0.506 OA
ATOM     55  H   UNL     1       3.735   3.459  26.671  0.00  0.00    +0.292 HD
ENDBRANCH  40  54
ENDBRANCH  30  37
ENDBRANCH   1  30
TORSDOF 18
ENDMDL
