MODEL 1
REMARK VINA RESULT:      -7.9      0.000      0.000
REMARK  Name = 
REMARK  20 active torsions:
REMARK  status: ('A' for Active; 'I' for Inactive)
REMARK    1  A    between atoms: C_1  and  C_2
REMARK    2  A    between atoms: C_3  and  O_60
REMARK    3  A    between atoms: C_5  and  O_59
REMARK    4  A    between atoms: C_6  and  O_58
REMARK    5  A    between atoms: C_8  and  O_11
REMARK    6  A    between atoms: O_11  and  C_12
REMARK    7  A    between atoms: C_13  and  O_57
REMARK    8  A    between atoms: C_15  and  C_18
REMARK    9  A    between atoms: C_19  and  O_31
REMARK   10  A    between atoms: C_23  and  O_30
REMARK   11  A    between atoms: C_25  and  O_29
REMARK   12  A    between atoms: O_31  and  C_32
REMARK   13  A    between atoms: C_34  and  O_44
REMARK   14  A    between atoms: C_36  and  O_43
REMARK   15  A    between atoms: C_37  and  O_42
REMARK   16  A    between atoms: C_39  and  C_41
REMARK   17  A    between atoms: O_44  and  C_45
REMARK   18  A    between atoms: C_47  and  O_56
REMARK   19  A    between atoms: C_49  and  O_55
REMARK   20  A    between atoms: C_50  and  O_54
REMARK                            x       y       z     vdW  Elec       q    Type
REMARK                         _______ _______ _______ _____ _____    ______ ____
ROOT
ATOM      1  C   UNL     1       9.170   1.976  23.141  0.00  0.00    +0.181 A 
ATOM      2  O   UNL     1      10.421   2.420  22.738  0.00  0.00    -0.451 OA
ATOM      3  C   UNL     1      10.915   3.601  23.216  0.00  0.00    +0.147 A 
ATOM      4  C   UNL     1      10.097   4.521  23.852  0.00  0.00    +0.109 A 
ATOM      5  C   UNL     1      10.631   5.767  24.208  0.00  0.00    +0.135 A 
ATOM      6  C   UNL     1      11.973   6.064  23.955  0.00  0.00    +0.091 A 
ATOM      7  C   UNL     1      12.781   5.098  23.372  0.00  0.00    +0.124 A 
ATOM      8  C   UNL     1       8.705   4.139  24.135  0.00  0.00    +0.238 A 
ATOM      9  O   UNL     1       7.974   5.008  24.595  0.00  0.00    -0.283 OA
ATOM     10  C   UNL     1      12.261   3.858  23.007  0.00  0.00    +0.092 A 
ATOM     11  C   UNL     1       8.284   2.711  23.859  0.00  0.00    +0.214 A 
ENDROOT
BRANCH   1  15
ATOM     12  C   UNL     1       8.537  -2.232  23.098  0.00  0.00    +0.165 A 
ATOM     13  C   UNL     1       7.513  -1.330  22.841  0.00  0.00    +0.050 A 
ATOM     14  C   UNL     1       7.789   0.028  22.670  0.00  0.00    +0.015 A 
ATOM     15  C   UNL     1       9.094   0.532  22.785  0.00  0.00    +0.025 A 
ATOM     16  C   UNL     1      10.145  -0.376  22.983  0.00  0.00    +0.060 A 
ATOM     17  C   UNL     1       9.852  -1.742  23.135  0.00  0.00    +0.159 A 
BRANCH  17  18
ATOM     18  O   UNL     1      10.895  -2.601  23.389  0.00  0.00    -0.503 OA
ATOM     19  H   UNL     1      10.605  -3.155  24.138  0.00  0.00    +0.292 HD
ENDBRANCH  17  18
BRANCH  12  20
ATOM     20  O   UNL     1       8.336  -3.543  23.434  0.00  0.00    -0.457 OA
BRANCH  20  24
ATOM     21  C   UNL     1       4.230  -3.662  24.379  0.00  0.00    +0.041 C 
ATOM     22  C   UNL     1       5.040  -4.954  24.360  0.00  0.00    +0.150 C 
ATOM     23  O   UNL     1       6.437  -4.650  24.463  0.00  0.00    -0.334 OA
ATOM     24  C   UNL     1       7.034  -4.143  23.264  0.00  0.00    +0.339 C 
ATOM     25  C   UNL     1       6.931  -5.181  22.113  0.00  0.00    +0.214 C 
ATOM     26  C   UNL     1       5.434  -5.446  21.868  0.00  0.00    +0.180 C 
ATOM     27  C   UNL     1       4.710  -5.864  23.161  0.00  0.00    +0.174 C 
BRANCH  27  28
ATOM     28  O   UNL     1       5.089  -7.223  23.455  0.00  0.00    -0.387 OA
ATOM     29  H   UNL     1       4.284  -7.669  23.792  0.00  0.00    +0.210 HD
ENDBRANCH  27  28
BRANCH  26  30
ATOM     30  O   UNL     1       5.294  -6.479  20.878  0.00  0.00    -0.386 OA
ATOM     31  H   UNL     1       5.770  -6.160  20.081  0.00  0.00    +0.210 HD
ENDBRANCH  26  30
BRANCH  25  32
ATOM     32  O   UNL     1       7.549  -6.444  22.430  0.00  0.00    -0.383 OA
ATOM     33  H   UNL     1       8.471  -6.221  22.676  0.00  0.00    +0.210 HD
ENDBRANCH  25  32
ENDBRANCH  20  24
ENDBRANCH  12  20
ENDBRANCH   1  15
BRANCH   7  34
ATOM     34  O   UNL     1      14.104   5.320  23.138  0.00  0.00    -0.507 OA
ATOM     35  H   UNL     1      14.266   6.279  23.149  0.00  0.00    +0.292 HD
ENDBRANCH   7  34
BRANCH   5  36
ATOM     36  O   UNL     1       9.889   6.756  24.794  0.00  0.00    -0.506 OA
ATOM     37  H   UNL     1       9.360   6.349  25.516  0.00  0.00    +0.292 HD
ENDBRANCH   5  36
BRANCH  11  38
ATOM     38  O   UNL     1       7.082   2.173  24.314  0.00  0.00    -0.453 OA
BRANCH  38  39
ATOM     39  C   UNL     1       6.714   2.235  25.720  0.00  0.00    +0.340 C 
ATOM     40  O   UNL     1       7.659   1.609  26.575  0.00  0.00    -0.334 OA
ATOM     41  C   UNL     1       7.798   0.207  26.346  0.00  0.00    +0.150 C 
ATOM     42  C   UNL     1       8.755  -0.317  27.417  0.00  0.00    +0.041 C 
ATOM     43  C   UNL     1       6.463  -0.553  26.421  0.00  0.00    +0.174 C 
ATOM     44  C   UNL     1       5.358   0.134  25.596  0.00  0.00    +0.180 C 
ATOM     45  C   UNL     1       5.297   1.632  25.922  0.00  0.00    +0.221 C 
BRANCH  44  46
ATOM     46  O   UNL     1       4.119  -0.527  25.891  0.00  0.00    -0.386 OA
ATOM     47  H   UNL     1       4.305  -1.444  26.174  0.00  0.00    +0.210 HD
ENDBRANCH  44  46
BRANCH  43  48
ATOM     48  O   UNL     1       6.680  -1.908  25.998  0.00  0.00    -0.387 OA
ATOM     49  H   UNL     1       7.584  -2.169  26.245  0.00  0.00    +0.210 HD
ENDBRANCH  43  48
BRANCH  45  50
ATOM     50  O   UNL     1       4.516   2.405  25.029  0.00  0.00    -0.337 OA
BRANCH  50  51
ATOM     51  C   UNL     1       3.794   3.559  25.392  0.00  0.00    +0.282 C 
ATOM     52  O   UNL     1       2.479   3.529  24.844  0.00  0.00    -0.346 OA
ATOM     53  C   UNL     1       2.457   3.285  23.428  0.00  0.00    +0.197 C 
ATOM     54  C   UNL     1       3.443   4.105  22.586  0.00  0.00    +0.171 C 
ATOM     55  C   UNL     1       4.794   4.358  23.265  0.00  0.00    +0.178 C 
ATOM     56  C   UNL     1       4.594   4.717  24.751  0.00  0.00    +0.201 C 
BRANCH  56  57
ATOM     57  O   UNL     1       3.959   5.996  24.875  0.00  0.00    -0.384 OA
ATOM     58  H   UNL     1       4.461   6.619  24.308  0.00  0.00    +0.210 HD
ENDBRANCH  56  57
BRANCH  55  59
ATOM     59  O   UNL     1       5.484   5.405  22.564  0.00  0.00    -0.386 OA
ATOM     60  H   UNL     1       6.061   5.831  23.232  0.00  0.00    +0.210 HD
ENDBRANCH  55  59
BRANCH  54  61
ATOM     61  O   UNL     1       2.852   5.380  22.294  0.00  0.00    -0.387 OA
ATOM     62  H   UNL     1       3.367   6.007  22.845  0.00  0.00    +0.210 HD
ENDBRANCH  54  61
ENDBRANCH  50  51
ENDBRANCH  45  50
ENDBRANCH  38  39
ENDBRANCH  11  38
TORSDOF 18
ENDMDL
MODEL 2
REMARK VINA RESULT:      -7.2      1.669      2.326
REMARK  Name = 
REMARK  20 active torsions:
REMARK  status: ('A' for Active; 'I' for Inactive)
REMARK    1  A    between atoms: C_1  and  C_2
REMARK    2  A    between atoms: C_3  and  O_60
REMARK    3  A    between atoms: C_5  and  O_59
REMARK    4  A    between atoms: C_6  and  O_58
REMARK    5  A    between atoms: C_8  and  O_11
REMARK    6  A    between atoms: O_11  and  C_12
REMARK    7  A    between atoms: C_13  and  O_57
REMARK    8  A    between atoms: C_15  and  C_18
REMARK    9  A    between atoms: C_19  and  O_31
REMARK   10  A    between atoms: C_23  and  O_30
REMARK   11  A    between atoms: C_25  and  O_29
REMARK   12  A    between atoms: O_31  and  C_32
REMARK   13  A    between atoms: C_34  and  O_44
REMARK   14  A    between atoms: C_36  and  O_43
REMARK   15  A    between atoms: C_37  and  O_42
REMARK   16  A    between atoms: C_39  and  C_41
REMARK   17  A    between atoms: O_44  and  C_45
REMARK   18  A    between atoms: C_47  and  O_56
REMARK   19  A    between atoms: C_49  and  O_55
REMARK   20  A    between atoms: C_50  and  O_54
REMARK                            x       y       z     vdW  Elec       q    Type
REMARK                         _______ _______ _______ _____ _____    ______ ____
ROOT
ATOM      1  C   UNL     1       9.409   1.784  24.527  0.00  0.00    +0.181 A 
ATOM      2  O   UNL     1      10.640   2.113  23.978  0.00  0.00    -0.451 OA
ATOM      3  C   UNL     1      10.991   3.423  23.820  0.00  0.00    +0.147 A 
ATOM      4  C   UNL     1      10.051   4.438  23.905  0.00  0.00    +0.109 A 
ATOM      5  C   UNL     1      10.443   5.750  23.610  0.00  0.00    +0.135 A 
ATOM      6  C   UNL     1      11.768   6.035  23.266  0.00  0.00    +0.091 A 
ATOM      7  C   UNL     1      12.698   5.006  23.249  0.00  0.00    +0.124 A 
ATOM      8  C   UNL     1       8.683   4.088  24.317  0.00  0.00    +0.238 A 
ATOM      9  O   UNL     1       7.845   4.981  24.276  0.00  0.00    -0.283 OA
ATOM     10  C   UNL     1      12.319   3.696  23.534  0.00  0.00    +0.092 A 
ATOM     11  C   UNL     1       8.412   2.670  24.774  0.00  0.00    +0.214 A 
ENDROOT
BRANCH   1  15
ATOM     12  C   UNL     1       8.967  -2.436  24.856  0.00  0.00    +0.165 A 
ATOM     13  C   UNL     1       9.829  -1.855  23.936  0.00  0.00    +0.050 A 
ATOM     14  C   UNL     1      10.099  -0.486  23.982  0.00  0.00    +0.015 A 
ATOM     15  C   UNL     1       9.489   0.352  24.928  0.00  0.00    +0.025 A 
ATOM     16  C   UNL     1       8.664  -0.232  25.902  0.00  0.00    +0.060 A 
ATOM     17  C   UNL     1       8.417  -1.614  25.852  0.00  0.00    +0.159 A 
BRANCH  17  18
ATOM     18  O   UNL     1       7.557  -2.149  26.783  0.00  0.00    -0.503 OA
ATOM     19  H   UNL     1       7.470  -1.473  27.482  0.00  0.00    +0.292 HD
ENDBRANCH  17  18
BRANCH  12  20
ATOM     20  O   UNL     1       8.528  -3.730  24.783  0.00  0.00    -0.457 OA
BRANCH  20  24
ATOM     21  C   UNL     1       5.893  -3.390  21.511  0.00  0.00    +0.041 C 
ATOM     22  C   UNL     1       5.375  -3.162  22.927  0.00  0.00    +0.150 C 
ATOM     23  O   UNL     1       6.474  -2.886  23.805  0.00  0.00    -0.334 OA
ATOM     24  C   UNL     1       7.256  -4.029  24.171  0.00  0.00    +0.339 C 
ATOM     25  C   UNL     1       6.389  -5.074  24.924  0.00  0.00    +0.214 C 
ATOM     26  C   UNL     1       5.262  -5.508  23.971  0.00  0.00    +0.180 C 
ATOM     27  C   UNL     1       4.470  -4.301  23.436  0.00  0.00    +0.174 C 
BRANCH  27  28
ATOM     28  O   UNL     1       3.630  -3.821  24.504  0.00  0.00    -0.387 OA
ATOM     29  H   UNL     1       3.946  -2.919  24.723  0.00  0.00    +0.210 HD
ENDBRANCH  27  28
BRANCH  26  30
ATOM     30  O   UNL     1       4.374  -6.401  24.666  0.00  0.00    -0.386 OA
ATOM     31  H   UNL     1       4.255  -6.024  25.564  0.00  0.00    +0.210 HD
ENDBRANCH  26  30
BRANCH  25  32
ATOM     32  O   UNL     1       5.772  -4.547  26.115  0.00  0.00    -0.383 OA
ATOM     33  H   UNL     1       5.810  -5.278  26.767  0.00  0.00    +0.210 HD
ENDBRANCH  25  32
ENDBRANCH  20  24
ENDBRANCH  12  20
ENDBRANCH   1  15
BRANCH   7  34
ATOM     34  O   UNL     1      14.009   5.234  22.958  0.00  0.00    -0.507 OA
ATOM     35  H   UNL     1      14.220   6.159  23.173  0.00  0.00    +0.292 HD
ENDBRANCH   7  34
BRANCH   5  36
ATOM     36  O   UNL     1       9.576   6.808  23.620  0.00  0.00    -0.506 OA
ATOM     37  H   UNL     1       9.686   7.282  24.474  0.00  0.00    +0.292 HD
ENDBRANCH   5  36
BRANCH  11  38
ATOM     38  O   UNL     1       7.234   2.290  25.415  0.00  0.00    -0.453 OA
BRANCH  38  39
ATOM     39  C   UNL     1       6.700   3.063  26.525  0.00  0.00    +0.340 C 
ATOM     40  O   UNL     1       7.230   2.675  27.785  0.00  0.00    -0.334 OA
ATOM     41  C   UNL     1       6.913   1.333  28.151  0.00  0.00    +0.150 C 
ATOM     42  C   UNL     1       7.457   1.127  29.565  0.00  0.00    +0.041 C 
ATOM     43  C   UNL     1       5.404   1.039  28.123  0.00  0.00    +0.174 C 
ATOM     44  C   UNL     1       4.741   1.531  26.822  0.00  0.00    +0.180 C 
ATOM     45  C   UNL     1       5.149   2.981  26.527  0.00  0.00    +0.221 C 
BRANCH  44  46
ATOM     46  O   UNL     1       3.321   1.397  26.979  0.00  0.00    -0.386 OA
ATOM     47  H   UNL     1       2.937   1.071  26.141  0.00  0.00    +0.210 HD
ENDBRANCH  44  46
BRANCH  43  48
ATOM     48  O   UNL     1       5.205  -0.369  28.324  0.00  0.00    -0.387 OA
ATOM     49  H   UNL     1       6.074  -0.792  28.435  0.00  0.00    +0.210 HD
ENDBRANCH  43  48
BRANCH  45  50
ATOM     50  O   UNL     1       4.827   3.437  25.226  0.00  0.00    -0.337 OA
BRANCH  50  51
ATOM     51  C   UNL     1       4.254   2.637  24.218  0.00  0.00    +0.282 C 
ATOM     52  O   UNL     1       5.006   2.726  23.010  0.00  0.00    -0.346 OA
ATOM     53  C   UNL     1       5.237   4.077  22.580  0.00  0.00    +0.197 C 
ATOM     54  C   UNL     1       4.020   5.010  22.602  0.00  0.00    +0.171 C 
ATOM     55  C   UNL     1       3.060   4.768  23.773  0.00  0.00    +0.178 C 
ATOM     56  C   UNL     1       2.854   3.257  24.000  0.00  0.00    +0.201 C 
BRANCH  56  57
ATOM     57  O   UNL     1       2.132   2.681  22.904  0.00  0.00    -0.384 OA
ATOM     58  H   UNL     1       1.219   2.513  23.221  0.00  0.00    +0.210 HD
ENDBRANCH  56  57
BRANCH  55  59
ATOM     59  O   UNL     1       1.814   5.429  23.504  0.00  0.00    -0.386 OA
ATOM     60  H   UNL     1       1.625   5.258  22.558  0.00  0.00    +0.210 HD
ENDBRANCH  55  59
BRANCH  54  61
ATOM     61  O   UNL     1       3.280   4.834  21.385  0.00  0.00    -0.387 OA
ATOM     62  H   UNL     1       3.150   3.864  21.329  0.00  0.00    +0.210 HD
ENDBRANCH  54  61
ENDBRANCH  50  51
ENDBRANCH  45  50
ENDBRANCH  38  39
ENDBRANCH  11  38
TORSDOF 18
ENDMDL
MODEL 3
REMARK VINA RESULT:      -7.1      2.368      9.283
REMARK  Name = 
REMARK  20 active torsions:
REMARK  status: ('A' for Active; 'I' for Inactive)
REMARK    1  A    between atoms: C_1  and  C_2
REMARK    2  A    between atoms: C_3  and  O_60
REMARK    3  A    between atoms: C_5  and  O_59
REMARK    4  A    between atoms: C_6  and  O_58
REMARK    5  A    between atoms: C_8  and  O_11
REMARK    6  A    between atoms: O_11  and  C_12
REMARK    7  A    between atoms: C_13  and  O_57
REMARK    8  A    between atoms: C_15  and  C_18
REMARK    9  A    between atoms: C_19  and  O_31
REMARK   10  A    between atoms: C_23  and  O_30
REMARK   11  A    between atoms: C_25  and  O_29
REMARK   12  A    between atoms: O_31  and  C_32
REMARK   13  A    between atoms: C_34  and  O_44
REMARK   14  A    between atoms: C_36  and  O_43
REMARK   15  A    between atoms: C_37  and  O_42
REMARK   16  A    between atoms: C_39  and  C_41
REMARK   17  A    between atoms: O_44  and  C_45
REMARK   18  A    between atoms: C_47  and  O_56
REMARK   19  A    between atoms: C_49  and  O_55
REMARK   20  A    between atoms: C_50  and  O_54
REMARK                            x       y       z     vdW  Elec       q    Type
REMARK                         _______ _______ _______ _____ _____    ______ ____
ROOT
ATOM      1  C   UNL     1       5.776  -1.345  26.184  0.00  0.00    +0.181 A 
ATOM      2  O   UNL     1       4.868  -1.893  27.078  0.00  0.00    -0.451 OA
ATOM      3  C   UNL     1       5.173  -3.048  27.741  0.00  0.00    +0.147 A 
ATOM      4  C   UNL     1       6.222  -3.858  27.337  0.00  0.00    +0.109 A 
ATOM      5  C   UNL     1       6.409  -5.091  27.975  0.00  0.00    +0.135 A 
ATOM      6  C   UNL     1       5.571  -5.483  29.023  0.00  0.00    +0.091 A 
ATOM      7  C   UNL     1       4.568  -4.623  29.444  0.00  0.00    +0.124 A 
ATOM      8  C   UNL     1       7.101  -3.374  26.261  0.00  0.00    +0.238 A 
ATOM      9  O   UNL     1       7.950  -4.154  25.846  0.00  0.00    -0.283 OA
ATOM     10  C   UNL     1       4.367  -3.397  28.814  0.00  0.00    +0.092 A 
ATOM     11  C   UNL     1       6.909  -1.959  25.760  0.00  0.00    +0.214 A 
ENDROOT
BRANCH   1  15
ATOM     12  C   UNL     1       5.553   2.786  25.185  0.00  0.00    +0.165 A 
ATOM     13  C   UNL     1       5.465   1.789  24.223  0.00  0.00    +0.050 A 
ATOM     14  C   UNL     1       5.345   0.449  24.596  0.00  0.00    +0.015 A 
ATOM     15  C   UNL     1       5.345   0.060  25.945  0.00  0.00    +0.025 A 
ATOM     16  C   UNL     1       5.371   1.062  26.927  0.00  0.00    +0.060 A 
ATOM     17  C   UNL     1       5.474   2.406  26.534  0.00  0.00    +0.159 A 
BRANCH  17  18
ATOM     18  O   UNL     1       5.559   3.362  27.520  0.00  0.00    -0.503 OA
ATOM     19  H   UNL     1       5.054   3.007  28.276  0.00  0.00    +0.292 HD
ENDBRANCH  17  18
BRANCH  12  20
ATOM     20  O   UNL     1       5.831   4.097  24.906  0.00  0.00    -0.457 OA
BRANCH  20  24
ATOM     21  C   UNL     1       8.966   6.359  26.585  0.00  0.00    +0.041 C 
ATOM     22  C   UNL     1       8.692   6.440  25.087  0.00  0.00    +0.150 C 
ATOM     23  O   UNL     1       7.364   5.976  24.813  0.00  0.00    -0.334 OA
ATOM     24  C   UNL     1       7.199   4.554  24.865  0.00  0.00    +0.339 C 
ATOM     25  C   UNL     1       8.098   3.854  23.810  0.00  0.00    +0.214 C 
ATOM     26  C   UNL     1       9.558   4.213  24.140  0.00  0.00    +0.180 C 
ATOM     27  C   UNL     1       9.763   5.736  24.232  0.00  0.00    +0.174 C 
BRANCH  27  28
ATOM     28  O   UNL     1       9.746   6.261  22.890  0.00  0.00    -0.387 OA
ATOM     29  H   UNL     1       9.214   7.085  22.921  0.00  0.00    +0.210 HD
ENDBRANCH  27  28
BRANCH  26  30
ATOM     30  O   UNL     1      10.418   3.668  23.125  0.00  0.00    -0.386 OA
ATOM     31  H   UNL     1      10.376   4.290  22.367  0.00  0.00    +0.210 HD
ENDBRANCH  26  30
BRANCH  25  32
ATOM     32  O   UNL     1       7.837   4.291  22.462  0.00  0.00    -0.383 OA
ATOM     33  H   UNL     1       7.333   3.559  22.049  0.00  0.00    +0.210 HD
ENDBRANCH  25  32
ENDBRANCH  20  24
ENDBRANCH  12  20
ENDBRANCH   1  15
BRANCH   7  34
ATOM     34  O   UNL     1       3.748  -4.938  30.485  0.00  0.00    -0.507 OA
ATOM     35  H   UNL     1       3.288  -4.131  30.775  0.00  0.00    +0.292 HD
ENDBRANCH   7  34
BRANCH   5  36
ATOM     36  O   UNL     1       7.386  -5.977  27.613  0.00  0.00    -0.506 OA
ATOM     37  H   UNL     1       7.121  -6.868  27.935  0.00  0.00    +0.292 HD
ENDBRANCH   5  36
BRANCH  11  38
ATOM     38  O   UNL     1       7.827  -1.315  24.933  0.00  0.00    -0.453 OA
BRANCH  38  39
ATOM     39  C   UNL     1       9.080  -1.953  24.561  0.00  0.00    +0.340 C 
ATOM     40  O   UNL     1      10.224  -1.174  24.883  0.00  0.00    -0.334 OA
ATOM     41  C   UNL     1      10.284   0.071  24.188  0.00  0.00    +0.150 C 
ATOM     42  C   UNL     1      11.617   0.716  24.564  0.00  0.00    +0.041 C 
ATOM     43  C   UNL     1      10.189  -0.084  22.661  0.00  0.00    +0.174 C 
ATOM     44  C   UNL     1       9.028  -1.006  22.243  0.00  0.00    +0.180 C 
ATOM     45  C   UNL     1       9.062  -2.312  23.050  0.00  0.00    +0.221 C 
BRANCH  44  46
ATOM     46  O   UNL     1       9.149  -1.248  20.833  0.00  0.00    -0.386 OA
ATOM     47  H   UNL     1       9.838  -0.660  20.467  0.00  0.00    +0.210 HD
ENDBRANCH  44  46
BRANCH  43  48
ATOM     48  O   UNL     1      10.072   1.221  22.072  0.00  0.00    -0.387 OA
ATOM     49  H   UNL     1      10.774   1.788  22.435  0.00  0.00    +0.210 HD
ENDBRANCH  43  48
BRANCH  45  50
ATOM     50  O   UNL     1       7.893  -3.105  22.948  0.00  0.00    -0.337 OA
BRANCH  50  51
ATOM     51  C   UNL     1       7.017  -3.100  21.845  0.00  0.00    +0.282 C 
ATOM     52  O   UNL     1       5.722  -2.641  22.227  0.00  0.00    -0.346 OA
ATOM     53  C   UNL     1       5.181  -3.339  23.360  0.00  0.00    +0.197 C 
ATOM     54  C   UNL     1       5.294  -4.869  23.327  0.00  0.00    +0.171 C 
ATOM     55  C   UNL     1       6.588  -5.393  22.693  0.00  0.00    +0.178 C 
ATOM     56  C   UNL     1       6.935  -4.586  21.426  0.00  0.00    +0.201 C 
BRANCH  56  57
ATOM     57  O   UNL     1       5.977  -4.842  20.392  0.00  0.00    -0.384 OA
ATOM     58  H   UNL     1       6.018  -4.084  19.770  0.00  0.00    +0.210 HD
ENDBRANCH  56  57
BRANCH  55  59
ATOM     59  O   UNL     1       6.434  -6.789  22.395  0.00  0.00    -0.386 OA
ATOM     60  H   UNL     1       7.283  -7.207  22.650  0.00  0.00    +0.210 HD
ENDBRANCH  55  59
BRANCH  54  61
ATOM     61  O   UNL     1       4.192  -5.398  22.576  0.00  0.00    -0.387 OA
ATOM     62  H   UNL     1       4.059  -4.739  21.862  0.00  0.00    +0.210 HD
ENDBRANCH  54  61
ENDBRANCH  50  51
ENDBRANCH  45  50
ENDBRANCH  38  39
ENDBRANCH  11  38
TORSDOF 18
ENDMDL
MODEL 4
REMARK VINA RESULT:      -7.0      2.768      7.326
REMARK  Name = 
REMARK  20 active torsions:
REMARK  status: ('A' for Active; 'I' for Inactive)
REMARK    1  A    between atoms: C_1  and  C_2
REMARK    2  A    between atoms: C_3  and  O_60
REMARK    3  A    between atoms: C_5  and  O_59
REMARK    4  A    between atoms: C_6  and  O_58
REMARK    5  A    between atoms: C_8  and  O_11
REMARK    6  A    between atoms: O_11  and  C_12
REMARK    7  A    between atoms: C_13  and  O_57
REMARK    8  A    between atoms: C_15  and  C_18
REMARK    9  A    between atoms: C_19  and  O_31
REMARK   10  A    between atoms: C_23  and  O_30
REMARK   11  A    between atoms: C_25  and  O_29
REMARK   12  A    between atoms: O_31  and  C_32
REMARK   13  A    between atoms: C_34  and  O_44
REMARK   14  A    between atoms: C_36  and  O_43
REMARK   15  A    between atoms: C_37  and  O_42
REMARK   16  A    between atoms: C_39  and  C_41
REMARK   17  A    between atoms: O_44  and  C_45
REMARK   18  A    between atoms: C_47  and  O_56
REMARK   19  A    between atoms: C_49  and  O_55
REMARK   20  A    between atoms: C_50  and  O_54
REMARK                            x       y       z     vdW  Elec       q    Type
REMARK                         _______ _______ _______ _____ _____    ______ ____
ROOT
ATOM      1  C   UNL     1       5.150   1.076  25.463  0.00  0.00    +0.181 A 
ATOM      2  O   UNL     1       4.135   1.937  25.853  0.00  0.00    -0.451 OA
ATOM      3  C   UNL     1       3.644   2.860  24.973  0.00  0.00    +0.147 A 
ATOM      4  C   UNL     1       4.319   3.175  23.805  0.00  0.00    +0.109 A 
ATOM      5  C   UNL     1       3.835   4.217  23.004  0.00  0.00    +0.135 A 
ATOM      6  C   UNL     1       2.672   4.906  23.361  0.00  0.00    +0.091 A 
ATOM      7  C   UNL     1       1.985   4.526  24.504  0.00  0.00    +0.124 A 
ATOM      8  C   UNL     1       5.511   2.386  23.454  0.00  0.00    +0.238 A 
ATOM      9  O   UNL     1       6.153   2.756  22.479  0.00  0.00    -0.283 OA
ATOM     10  C   UNL     1       2.460   3.495  25.313  0.00  0.00    +0.092 A 
ATOM     11  C   UNL     1       5.845   1.178  24.303  0.00  0.00    +0.214 A 
ENDROOT
BRANCH   1  15
ATOM     12  C   UNL     1       4.187  -2.067  28.166  0.00  0.00    +0.165 A 
ATOM     13  C   UNL     1       4.286  -2.276  26.797  0.00  0.00    +0.050 A 
ATOM     14  C   UNL     1       4.791  -1.279  25.960  0.00  0.00    +0.015 A 
ATOM     15  C   UNL     1       5.181  -0.028  26.462  0.00  0.00    +0.025 A 
ATOM     16  C   UNL     1       5.144   0.175  27.850  0.00  0.00    +0.060 A 
ATOM     17  C   UNL     1       4.650  -0.845  28.679  0.00  0.00    +0.159 A 
BRANCH  17  18
ATOM     18  O   UNL     1       4.568  -0.595  30.029  0.00  0.00    -0.503 OA
ATOM     19  H   UNL     1       3.736  -0.102  30.157  0.00  0.00    +0.292 HD
ENDBRANCH  17  18
BRANCH  12  20
ATOM     20  O   UNL     1       3.560  -2.924  29.029  0.00  0.00    -0.457 OA
BRANCH  20  24
ATOM     21  C   UNL     1       6.066  -5.984  30.485  0.00  0.00    +0.041 C 
ATOM     22  C   UNL     1       5.750  -5.910  28.995  0.00  0.00    +0.150 C 
ATOM     23  O   UNL     1       5.282  -4.596  28.666  0.00  0.00    -0.334 OA
ATOM     24  C   UNL     1       3.934  -4.318  29.065  0.00  0.00    +0.339 C 
ATOM     25  C   UNL     1       2.940  -5.287  28.370  0.00  0.00    +0.214 C 
ATOM     26  C   UNL     1       3.317  -6.716  28.798  0.00  0.00    +0.180 C 
ATOM     27  C   UNL     1       4.799  -7.024  28.516  0.00  0.00    +0.174 C 
BRANCH  27  28
ATOM     28  O   UNL     1       4.943  -7.217  27.096  0.00  0.00    -0.387 OA
ATOM     29  H   UNL     1       4.740  -6.354  26.675  0.00  0.00    +0.210 HD
ENDBRANCH  27  28
BRANCH  26  30
ATOM     30  O   UNL     1       2.485  -7.655  28.096  0.00  0.00    -0.386 OA
ATOM     31  H   UNL     1       2.278  -8.369  28.736  0.00  0.00    +0.210 HD
ENDBRANCH  26  30
BRANCH  25  32
ATOM     32  O   UNL     1       3.007  -5.233  26.931  0.00  0.00    -0.383 OA
ATOM     33  H   UNL     1       2.797  -4.305  26.700  0.00  0.00    +0.210 HD
ENDBRANCH  25  32
ENDBRANCH  20  24
ENDBRANCH  12  20
ENDBRANCH   1  15
BRANCH   7  34
ATOM     34  O   UNL     1       0.826   5.137  24.878  0.00  0.00    -0.507 OA
ATOM     35  H   UNL     1       0.352   4.554  25.496  0.00  0.00    +0.292 HD
ENDBRANCH   7  34
BRANCH   5  36
ATOM     36  O   UNL     1       4.460   4.631  21.860  0.00  0.00    -0.506 OA
ATOM     37  H   UNL     1       5.302   4.130  21.777  0.00  0.00    +0.292 HD
ENDBRANCH   5  36
BRANCH  11  38
ATOM     38  O   UNL     1       6.789   0.224  23.927  0.00  0.00    -0.453 OA
BRANCH  38  39
ATOM     39  C   UNL     1       8.054   0.098  24.635  0.00  0.00    +0.340 C 
ATOM     40  O   UNL     1       8.696   1.344  24.862  0.00  0.00    -0.334 OA
ATOM     41  C   UNL     1       9.072   2.021  23.663  0.00  0.00    +0.150 C 
ATOM     42  C   UNL     1       9.842   3.270  24.090  0.00  0.00    +0.041 C 
ATOM     43  C   UNL     1       9.942   1.162  22.730  0.00  0.00    +0.174 C 
ATOM     44  C   UNL     1       9.355  -0.247  22.524  0.00  0.00    +0.180 C 
ATOM     45  C   UNL     1       8.990  -0.879  23.874  0.00  0.00    +0.221 C 
BRANCH  44  46
ATOM     46  O   UNL     1      10.331  -1.027  21.817  0.00  0.00    -0.386 OA
ATOM     47  H   UNL     1      11.007  -1.341  22.448  0.00  0.00    +0.210 HD
ENDBRANCH  44  46
BRANCH  43  48
ATOM     48  O   UNL     1      10.109   1.858  21.485  0.00  0.00    -0.387 OA
ATOM     49  H   UNL     1       9.635   1.369  20.791  0.00  0.00    +0.210 HD
ENDBRANCH  43  48
BRANCH  45  50
ATOM     50  O   UNL     1       8.194  -2.047  23.789  0.00  0.00    -0.337 OA
BRANCH  50  51
ATOM     51  C   UNL     1       8.691  -3.334  23.503  0.00  0.00    +0.282 C 
ATOM     52  O   UNL     1       7.678  -4.151  22.920  0.00  0.00    -0.346 OA
ATOM     53  C   UNL     1       6.462  -4.185  23.684  0.00  0.00    +0.197 C 
ATOM     54  C   UNL     1       6.619  -4.405  25.194  0.00  0.00    +0.171 C 
ATOM     55  C   UNL     1       7.850  -3.726  25.806  0.00  0.00    +0.178 C 
ATOM     56  C   UNL     1       9.077  -3.902  24.888  0.00  0.00    +0.201 C 
BRANCH  56  57
ATOM     57  O   UNL     1       9.484  -5.275  24.856  0.00  0.00    -0.384 OA
ATOM     58  H   UNL     1      10.401  -5.309  25.204  0.00  0.00    +0.210 HD
ENDBRANCH  56  57
BRANCH  55  59
ATOM     59  O   UNL     1       8.092  -4.277  27.110  0.00  0.00    -0.386 OA
ATOM     60  H   UNL     1       8.209  -5.240  26.970  0.00  0.00    +0.210 HD
ENDBRANCH  55  59
BRANCH  54  61
ATOM     61  O   UNL     1       6.723  -5.813  25.448  0.00  0.00    -0.387 OA
ATOM     62  H   UNL     1       7.636  -6.034  25.166  0.00  0.00    +0.210 HD
ENDBRANCH  54  61
ENDBRANCH  50  51
ENDBRANCH  45  50
ENDBRANCH  38  39
ENDBRANCH  11  38
TORSDOF 18
ENDMDL
MODEL 5
REMARK VINA RESULT:      -7.0      3.259      6.540
REMARK  Name = 
REMARK  20 active torsions:
REMARK  status: ('A' for Active; 'I' for Inactive)
REMARK    1  A    between atoms: C_1  and  C_2
REMARK    2  A    between atoms: C_3  and  O_60
REMARK    3  A    between atoms: C_5  and  O_59
REMARK    4  A    between atoms: C_6  and  O_58
REMARK    5  A    between atoms: C_8  and  O_11
REMARK    6  A    between atoms: O_11  and  C_12
REMARK    7  A    between atoms: C_13  and  O_57
REMARK    8  A    between atoms: C_15  and  C_18
REMARK    9  A    between atoms: C_19  and  O_31
REMARK   10  A    between atoms: C_23  and  O_30
REMARK   11  A    between atoms: C_25  and  O_29
REMARK   12  A    between atoms: O_31  and  C_32
REMARK   13  A    between atoms: C_34  and  O_44
REMARK   14  A    between atoms: C_36  and  O_43
REMARK   15  A    between atoms: C_37  and  O_42
REMARK   16  A    between atoms: C_39  and  C_41
REMARK   17  A    between atoms: O_44  and  C_45
REMARK   18  A    between atoms: C_47  and  O_56
REMARK   19  A    between atoms: C_49  and  O_55
REMARK   20  A    between atoms: C_50  and  O_54
REMARK                            x       y       z     vdW  Elec       q    Type
REMARK                         _______ _______ _______ _____ _____    ______ ____
ROOT
ATOM      1  C   UNL     1       6.939  -1.310  24.471  0.00  0.00    +0.181 A 
ATOM      2  O   UNL     1       7.645  -0.705  23.442  0.00  0.00    -0.451 OA
ATOM      3  C   UNL     1       8.254   0.500  23.645  0.00  0.00    +0.147 A 
ATOM      4  C   UNL     1       7.947   1.288  24.743  0.00  0.00    +0.109 A 
ATOM      5  C   UNL     1       8.509   2.569  24.835  0.00  0.00    +0.135 A 
ATOM      6  C   UNL     1       9.388   3.031  23.851  0.00  0.00    +0.091 A 
ATOM      7  C   UNL     1       9.722   2.195  22.797  0.00  0.00    +0.124 A 
ATOM      8  C   UNL     1       7.053   0.733  25.771  0.00  0.00    +0.238 A 
ATOM      9  O   UNL     1       6.709   1.488  26.673  0.00  0.00    -0.283 OA
ATOM     10  C   UNL     1       9.166   0.922  22.691  0.00  0.00    +0.092 A 
ATOM     11  C   UNL     1       6.641  -0.718  25.655  0.00  0.00    +0.214 A 
ENDROOT
BRANCH   1  15
ATOM     12  C   UNL     1       5.535  -5.297  23.970  0.00  0.00    +0.165 A 
ATOM     13  C   UNL     1       5.005  -4.233  23.253  0.00  0.00    +0.050 A 
ATOM     14  C   UNL     1       5.612  -2.976  23.293  0.00  0.00    +0.015 A 
ATOM     15  C   UNL     1       6.749  -2.734  24.079  0.00  0.00    +0.025 A 
ATOM     16  C   UNL     1       7.330  -3.815  24.760  0.00  0.00    +0.060 A 
ATOM     17  C   UNL     1       6.717  -5.077  24.696  0.00  0.00    +0.159 A 
BRANCH  17  18
ATOM     18  O   UNL     1       7.275  -6.103  25.422  0.00  0.00    -0.503 OA
ATOM     19  H   UNL     1       7.725  -5.678  26.177  0.00  0.00    +0.292 HD
ENDBRANCH  17  18
BRANCH  12  20
ATOM     20  O   UNL     1       4.916  -6.509  24.112  0.00  0.00    -0.457 OA
BRANCH  20  24
ATOM     21  C   UNL     1       1.054  -5.139  23.128  0.00  0.00    +0.041 C 
ATOM     22  C   UNL     1       1.442  -5.322  24.591  0.00  0.00    +0.150 C 
ATOM     23  O   UNL     1       2.870  -5.351  24.713  0.00  0.00    -0.334 OA
ATOM     24  C   UNL     1       3.486  -6.575  24.295  0.00  0.00    +0.339 C 
ATOM     25  C   UNL     1       2.984  -7.768  25.152  0.00  0.00    +0.214 C 
ATOM     26  C   UNL     1       1.461  -7.867  24.952  0.00  0.00    +0.180 C 
ATOM     27  C   UNL     1       0.757  -6.532  25.257  0.00  0.00    +0.174 C 
BRANCH  27  28
ATOM     28  O   UNL     1       0.742  -6.363  26.688  0.00  0.00    -0.387 OA
ATOM     29  H   UNL     1       0.413  -5.455  26.858  0.00  0.00    +0.210 HD
ENDBRANCH  27  28
BRANCH  26  30
ATOM     30  O   UNL     1       0.939  -8.897  25.809  0.00  0.00    -0.386 OA
ATOM     31  H   UNL     1       0.988  -9.732  25.295  0.00  0.00    +0.210 HD
ENDBRANCH  26  30
BRANCH  25  32
ATOM     32  O   UNL     1       3.227  -7.597  26.562  0.00  0.00    -0.383 OA
ATOM     33  H   UNL     1       3.319  -8.505  26.917  0.00  0.00    +0.210 HD
ENDBRANCH  25  32
ENDBRANCH  20  24
ENDBRANCH  12  20
ENDBRANCH   1  15
BRANCH   7  34
ATOM     34  O   UNL     1      10.603   2.580  21.832  0.00  0.00    -0.507 OA
ATOM     35  H   UNL     1      11.291   1.896  21.747  0.00  0.00    +0.292 HD
ENDBRANCH   7  34
BRANCH   5  36
ATOM     36  O   UNL     1       8.227   3.435  25.855  0.00  0.00    -0.506 OA
ATOM     37  H   UNL     1       8.851   3.249  26.591  0.00  0.00    +0.292 HD
ENDBRANCH   5  36
BRANCH  11  38
ATOM     38  O   UNL     1       6.010  -1.414  26.685  0.00  0.00    -0.453 OA
BRANCH  38  39
ATOM     39  C   UNL     1       4.582  -1.688  26.642  0.00  0.00    +0.340 C 
ATOM     40  O   UNL     1       3.803  -0.551  26.300  0.00  0.00    -0.334 OA
ATOM     41  C   UNL     1       3.893   0.511  27.249  0.00  0.00    +0.150 C 
ATOM     42  C   UNL     1       2.916   1.591  26.787  0.00  0.00    +0.041 C 
ATOM     43  C   UNL     1       3.551   0.073  28.682  0.00  0.00    +0.174 C 
ATOM     44  C   UNL     1       4.285  -1.221  29.084  0.00  0.00    +0.180 C 
ATOM     45  C   UNL     1       4.120  -2.291  27.996  0.00  0.00    +0.221 C 
BRANCH  44  46
ATOM     46  O   UNL     1       3.749  -1.653  30.343  0.00  0.00    -0.386 OA
ATOM     47  H   UNL     1       3.393  -0.879  30.821  0.00  0.00    +0.210 HD
ENDBRANCH  44  46
BRANCH  43  48
ATOM     48  O   UNL     1       3.848   1.155  29.579  0.00  0.00    -0.387 OA
ATOM     49  H   UNL     1       3.939   0.796  30.478  0.00  0.00    +0.210 HD
ENDBRANCH  43  48
BRANCH  45  50
ATOM     50  O   UNL     1       4.975  -3.412  28.129  0.00  0.00    -0.337 OA
BRANCH  50  51
ATOM     51  C   UNL     1       4.744  -4.669  27.535  0.00  0.00    +0.282 C 
ATOM     52  O   UNL     1       3.420  -5.124  27.810  0.00  0.00    -0.346 OA
ATOM     53  C   UNL     1       3.088  -5.102  29.208  0.00  0.00    +0.197 C 
ATOM     54  C   UNL     1       4.138  -5.689  30.160  0.00  0.00    +0.171 C 
ATOM     55  C   UNL     1       5.589  -5.414  29.747  0.00  0.00    +0.178 C 
ATOM     56  C   UNL     1       5.764  -5.603  28.227  0.00  0.00    +0.201 C 
BRANCH  56  57
ATOM     57  O   UNL     1       5.614  -6.983  27.874  0.00  0.00    -0.384 OA
ATOM     58  H   UNL     1       4.668  -7.121  27.657  0.00  0.00    +0.210 HD
ENDBRANCH  56  57
BRANCH  55  59
ATOM     59  O   UNL     1       6.461  -6.286  30.484  0.00  0.00    -0.386 OA
ATOM     60  H   UNL     1       7.056  -6.685  29.817  0.00  0.00    +0.210 HD
ENDBRANCH  55  59
BRANCH  54  61
ATOM     61  O   UNL     1       3.961  -7.112  30.223  0.00  0.00    -0.387 OA
ATOM     62  H   UNL     1       4.714  -7.463  29.702  0.00  0.00    +0.210 HD
ENDBRANCH  54  61
ENDBRANCH  50  51
ENDBRANCH  45  50
ENDBRANCH  38  39
ENDBRANCH  11  38
TORSDOF 18
ENDMDL
MODEL 6
REMARK VINA RESULT:      -6.8      3.285      7.215
REMARK  Name = 
REMARK  20 active torsions:
REMARK  status: ('A' for Active; 'I' for Inactive)
REMARK    1  A    between atoms: C_1  and  C_2
REMARK    2  A    between atoms: C_3  and  O_60
REMARK    3  A    between atoms: C_5  and  O_59
REMARK    4  A    between atoms: C_6  and  O_58
REMARK    5  A    between atoms: C_8  and  O_11
REMARK    6  A    between atoms: O_11  and  C_12
REMARK    7  A    between atoms: C_13  and  O_57
REMARK    8  A    between atoms: C_15  and  C_18
REMARK    9  A    between atoms: C_19  and  O_31
REMARK   10  A    between atoms: C_23  and  O_30
REMARK   11  A    between atoms: C_25  and  O_29
REMARK   12  A    between atoms: O_31  and  C_32
REMARK   13  A    between atoms: C_34  and  O_44
REMARK   14  A    between atoms: C_36  and  O_43
REMARK   15  A    between atoms: C_37  and  O_42
REMARK   16  A    between atoms: C_39  and  C_41
REMARK   17  A    between atoms: O_44  and  C_45
REMARK   18  A    between atoms: C_47  and  O_56
REMARK   19  A    between atoms: C_49  and  O_55
REMARK   20  A    between atoms: C_50  and  O_54
REMARK                            x       y       z     vdW  Elec       q    Type
REMARK                         _______ _______ _______ _____ _____    ______ ____
ROOT
ATOM      1  C   UNL     1       6.283  -1.023  26.917  0.00  0.00    +0.181 A 
ATOM      2  O   UNL     1       5.685  -0.442  28.026  0.00  0.00    -0.451 OA
ATOM      3  C   UNL     1       5.620   0.918  28.134  0.00  0.00    +0.147 A 
ATOM      4  C   UNL     1       6.389   1.745  27.331  0.00  0.00    +0.109 A 
ATOM      5  C   UNL     1       6.376   3.125  27.572  0.00  0.00    +0.135 A 
ATOM      6  C   UNL     1       5.575   3.661  28.584  0.00  0.00    +0.091 A 
ATOM      7  C   UNL     1       4.769   2.814  29.330  0.00  0.00    +0.124 A 
ATOM      8  C   UNL     1       7.177   1.130  26.251  0.00  0.00    +0.238 A 
ATOM      9  O   UNL     1       7.934   1.866  25.629  0.00  0.00    -0.283 OA
ATOM     10  C   UNL     1       4.779   1.439  29.105  0.00  0.00    +0.092 A 
ATOM     11  C   UNL     1       6.986  -0.346  25.975  0.00  0.00    +0.214 A 
ENDROOT
BRANCH   1  15
ATOM     12  C   UNL     1       4.776  -4.889  27.865  0.00  0.00    +0.165 A 
ATOM     13  C   UNL     1       3.940  -3.836  27.518  0.00  0.00    +0.050 A 
ATOM     14  C   UNL     1       4.468  -2.641  27.026  0.00  0.00    +0.015 A 
ATOM     15  C   UNL     1       5.852  -2.448  26.897  0.00  0.00    +0.025 A 
ATOM     16  C   UNL     1       6.705  -3.525  27.185  0.00  0.00    +0.060 A 
ATOM     17  C   UNL     1       6.156  -4.726  27.662  0.00  0.00    +0.159 A 
BRANCH  17  18
ATOM     18  O   UNL     1       7.020  -5.743  27.995  0.00  0.00    -0.503 OA
ATOM     19  H   UNL     1       7.707  -5.334  28.554  0.00  0.00    +0.292 HD
ENDBRANCH  17  18
BRANCH  12  20
ATOM     20  O   UNL     1       4.354  -6.025  28.500  0.00  0.00    -0.457 OA
BRANCH  20  24
ATOM     21  C   UNL     1       0.522  -7.075  29.905  0.00  0.00    +0.041 C 
ATOM     22  C   UNL     1       1.286  -8.036  29.001  0.00  0.00    +0.150 C 
ATOM     23  O   UNL     1       2.680  -7.706  29.014  0.00  0.00    -0.334 OA
ATOM     24  C   UNL     1       3.034  -6.549  28.246  0.00  0.00    +0.339 C 
ATOM     25  C   UNL     1       2.680  -6.751  26.748  0.00  0.00    +0.214 C 
ATOM     26  C   UNL     1       1.160  -6.978  26.662  0.00  0.00    +0.180 C 
ATOM     27  C   UNL     1       0.703  -8.129  27.577  0.00  0.00    +0.174 C 
BRANCH  27  28
ATOM     28  O   UNL     1       1.107  -9.366  26.959  0.00  0.00    -0.387 OA
ATOM     29  H   UNL     1       1.616  -9.862  27.636  0.00  0.00    +0.210 HD
ENDBRANCH  27  28
BRANCH  26  30
ATOM     30  O   UNL     1       0.803  -7.271  25.300  0.00  0.00    -0.386 OA
ATOM     31  H   UNL     1      -0.033  -6.788  25.126  0.00  0.00    +0.210 HD
ENDBRANCH  26  30
BRANCH  25  32
ATOM     32  O   UNL     1       3.325  -7.898  26.161  0.00  0.00    -0.383 OA
ATOM     33  H   UNL     1       4.180  -7.564  25.820  0.00  0.00    +0.210 HD
ENDBRANCH  25  32
ENDBRANCH  20  24
ENDBRANCH  12  20
ENDBRANCH   1  15
BRANCH   7  34
ATOM     34  O   UNL     1       3.941   3.287  30.302  0.00  0.00    -0.507 OA
ATOM     35  H   UNL     1       4.148   2.832  31.137  0.00  0.00    +0.292 HD
ENDBRANCH   7  34
BRANCH   5  36
ATOM     36  O   UNL     1       7.138   4.013  26.864  0.00  0.00    -0.506 OA
ATOM     37  H   UNL     1       6.603   4.825  26.721  0.00  0.00    +0.292 HD
ENDBRANCH   5  36
BRANCH  11  38
ATOM     38  O   UNL     1       7.482  -0.976  24.835  0.00  0.00    -0.453 OA
BRANCH  38  39
ATOM     39  C   UNL     1       8.786  -1.620  24.839  0.00  0.00    +0.340 C 
ATOM     40  O   UNL     1       9.855  -0.722  25.101  0.00  0.00    -0.334 OA
ATOM     41  C   UNL     1      10.006   0.292  24.108  0.00  0.00    +0.150 C 
ATOM     42  C   UNL     1      11.256   1.087  24.485  0.00  0.00    +0.041 C 
ATOM     43  C   UNL     1      10.153  -0.271  22.685  0.00  0.00    +0.174 C 
ATOM     44  C   UNL     1       9.083  -1.334  22.370  0.00  0.00    +0.180 C 
ATOM     45  C   UNL     1       9.007  -2.372  23.499  0.00  0.00    +0.221 C 
BRANCH  44  46
ATOM     46  O   UNL     1       9.426  -1.938  21.113  0.00  0.00    -0.386 OA
ATOM     47  H   UNL     1       8.649  -1.904  20.521  0.00  0.00    +0.210 HD
ENDBRANCH  44  46
BRANCH  43  48
ATOM     48  O   UNL     1      10.113   0.819  21.751  0.00  0.00    -0.387 OA
ATOM     49  H   UNL     1      10.289   0.471  20.860  0.00  0.00    +0.210 HD
ENDBRANCH  43  48
BRANCH  45  50
ATOM     50  O   UNL     1       7.880  -3.226  23.448  0.00  0.00    -0.337 OA
BRANCH  50  51
ATOM     51  C   UNL     1       7.545  -4.043  22.349  0.00  0.00    +0.282 C 
ATOM     52  O   UNL     1       6.501  -3.453  21.578  0.00  0.00    -0.346 OA
ATOM     53  C   UNL     1       5.355  -3.081  22.361  0.00  0.00    +0.197 C 
ATOM     54  C   UNL     1       4.849  -4.130  23.359  0.00  0.00    +0.171 C 
ATOM     55  C   UNL     1       5.958  -4.950  24.028  0.00  0.00    +0.178 C 
ATOM     56  C   UNL     1       7.033  -5.350  22.998  0.00  0.00    +0.201 C 
BRANCH  56  57
ATOM     57  O   UNL     1       6.498  -6.290  22.058  0.00  0.00    -0.384 OA
ATOM     58  H   UNL     1       7.182  -6.981  21.926  0.00  0.00    +0.210 HD
ENDBRANCH  56  57
BRANCH  55  59
ATOM     59  O   UNL     1       5.377  -6.107  24.651  0.00  0.00    -0.386 OA
ATOM     60  H   UNL     1       4.453  -5.857  24.858  0.00  0.00    +0.210 HD
ENDBRANCH  55  59
BRANCH  54  61
ATOM     61  O   UNL     1       3.982  -5.043  22.671  0.00  0.00    -0.387 OA
ATOM     62  H   UNL     1       3.083  -4.704  22.868  0.00  0.00    +0.210 HD
ENDBRANCH  54  61
ENDBRANCH  50  51
ENDBRANCH  45  50
ENDBRANCH  38  39
ENDBRANCH  11  38
TORSDOF 18
ENDMDL
MODEL 7
REMARK VINA RESULT:      -6.8      2.595      8.942
REMARK  Name = 
REMARK  20 active torsions:
REMARK  status: ('A' for Active; 'I' for Inactive)
REMARK    1  A    between atoms: C_1  and  C_2
REMARK    2  A    between atoms: C_3  and  O_60
REMARK    3  A    between atoms: C_5  and  O_59
REMARK    4  A    between atoms: C_6  and  O_58
REMARK    5  A    between atoms: C_8  and  O_11
REMARK    6  A    between atoms: O_11  and  C_12
REMARK    7  A    between atoms: C_13  and  O_57
REMARK    8  A    between atoms: C_15  and  C_18
REMARK    9  A    between atoms: C_19  and  O_31
REMARK   10  A    between atoms: C_23  and  O_30
REMARK   11  A    between atoms: C_25  and  O_29
REMARK   12  A    between atoms: O_31  and  C_32
REMARK   13  A    between atoms: C_34  and  O_44
REMARK   14  A    between atoms: C_36  and  O_43
REMARK   15  A    between atoms: C_37  and  O_42
REMARK   16  A    between atoms: C_39  and  C_41
REMARK   17  A    between atoms: O_44  and  C_45
REMARK   18  A    between atoms: C_47  and  O_56
REMARK   19  A    between atoms: C_49  and  O_55
REMARK   20  A    between atoms: C_50  and  O_54
REMARK                            x       y       z     vdW  Elec       q    Type
REMARK                         _______ _______ _______ _____ _____    ______ ____
ROOT
ATOM      1  C   UNL     1       4.627  -2.973  25.679  0.00  0.00    +0.181 A 
ATOM      2  O   UNL     1       3.784  -3.896  26.280  0.00  0.00    -0.451 OA
ATOM      3  C   UNL     1       3.462  -5.054  25.631  0.00  0.00    +0.147 A 
ATOM      4  C   UNL     1       3.699  -5.211  24.275  0.00  0.00    +0.109 A 
ATOM      5  C   UNL     1       3.234  -6.369  23.636  0.00  0.00    +0.135 A 
ATOM      6  C   UNL     1       2.570  -7.362  24.362  0.00  0.00    +0.091 A 
ATOM      7  C   UNL     1       2.403  -7.202  25.730  0.00  0.00    +0.124 A 
ATOM      8  C   UNL     1       4.443  -4.156  23.570  0.00  0.00    +0.238 A 
ATOM      9  O   UNL     1       4.542  -4.264  22.354  0.00  0.00    -0.283 OA
ATOM     10  C   UNL     1       2.855  -6.053  26.375  0.00  0.00    +0.092 A 
ATOM     11  C   UNL     1       5.043  -3.033  24.390  0.00  0.00    +0.214 A 
ENDROOT
BRANCH   1  15
ATOM     12  C   UNL     1       5.531   0.395  28.119  0.00  0.00    +0.165 A 
ATOM     13  C   UNL     1       4.274  -0.192  28.110  0.00  0.00    +0.050 A 
ATOM     14  C   UNL     1       4.060  -1.406  27.453  0.00  0.00    +0.015 A 
ATOM     15  C   UNL     1       5.091  -2.054  26.755  0.00  0.00    +0.025 A 
ATOM     16  C   UNL     1       6.381  -1.503  26.808  0.00  0.00    +0.060 A 
ATOM     17  C   UNL     1       6.582  -0.291  27.488  0.00  0.00    +0.159 A 
BRANCH  17  18
ATOM     18  O   UNL     1       7.843   0.256  27.471  0.00  0.00    -0.503 OA
ATOM     19  H   UNL     1       8.402  -0.381  26.987  0.00  0.00    +0.292 HD
ENDBRANCH  17  18
BRANCH  12  20
ATOM     20  O   UNL     1       5.787   1.651  28.598  0.00  0.00    -0.457 OA
BRANCH  20  24
ATOM     21  C   UNL     1       3.333   4.188  26.294  0.00  0.00    +0.041 C 
ATOM     22  C   UNL     1       4.649   3.677  25.716  0.00  0.00    +0.150 C 
ATOM     23  O   UNL     1       5.081   2.522  26.446  0.00  0.00    -0.334 OA
ATOM     24  C   UNL     1       5.643   2.798  27.735  0.00  0.00    +0.339 C 
ATOM     25  C   UNL     1       6.906   3.693  27.608  0.00  0.00    +0.214 C 
ATOM     26  C   UNL     1       6.469   5.012  26.946  0.00  0.00    +0.180 C 
ATOM     27  C   UNL     1       5.735   4.766  25.615  0.00  0.00    +0.174 C 
BRANCH  27  28
ATOM     28  O   UNL     1       6.721   4.389  24.634  0.00  0.00    -0.387 OA
ATOM     29  H   UNL     1       7.186   5.213  24.376  0.00  0.00    +0.210 HD
ENDBRANCH  27  28
BRANCH  26  30
ATOM     30  O   UNL     1       7.628   5.831  26.716  0.00  0.00    -0.386 OA
ATOM     31  H   UNL     1       8.175   5.765  27.528  0.00  0.00    +0.210 HD
ENDBRANCH  26  30
BRANCH  25  32
ATOM     32  O   UNL     1       7.933   3.111  26.781  0.00  0.00    -0.383 OA
ATOM     33  H   UNL     1       8.608   2.779  27.408  0.00  0.00    +0.210 HD
ENDBRANCH  25  32
ENDBRANCH  20  24
ENDBRANCH  12  20
ENDBRANCH   1  15
BRANCH   7  34
ATOM     34  O   UNL     1       1.798  -8.156  26.491  0.00  0.00    -0.507 OA
ATOM     35  H   UNL     1       1.197  -7.718  27.119  0.00  0.00    +0.292 HD
ENDBRANCH   7  34
BRANCH   5  36
ATOM     36  O   UNL     1       3.378  -6.589  22.294  0.00  0.00    -0.506 OA
ATOM     37  H   UNL     1       2.570  -7.047  21.974  0.00  0.00    +0.292 HD
ENDBRANCH   5  36
BRANCH  11  38
ATOM     38  O   UNL     1       5.966  -2.125  23.874  0.00  0.00    -0.453 OA
BRANCH  38  39
ATOM     39  C   UNL     1       7.092  -2.574  23.068  0.00  0.00    +0.340 C 
ATOM     40  O   UNL     1       7.421  -3.940  23.276  0.00  0.00    -0.334 OA
ATOM     41  C   UNL     1       7.847  -4.231  24.606  0.00  0.00    +0.150 C 
ATOM     42  C   UNL     1       8.264  -5.701  24.618  0.00  0.00    +0.041 C 
ATOM     43  C   UNL     1       9.018  -3.350  25.072  0.00  0.00    +0.174 C 
ATOM     44  C   UNL     1       8.773  -1.858  24.781  0.00  0.00    +0.180 C 
ATOM     45  C   UNL     1       8.322  -1.662  23.326  0.00  0.00    +0.221 C 
BRANCH  44  46
ATOM     46  O   UNL     1       9.992  -1.153  25.060  0.00  0.00    -0.386 OA
ATOM     47  H   UNL     1      10.625  -1.766  25.483  0.00  0.00    +0.210 HD
ENDBRANCH  44  46
BRANCH  43  48
ATOM     48  O   UNL     1       9.248  -3.590  26.470  0.00  0.00    -0.387 OA
ATOM     49  H   UNL     1       8.866  -2.854  26.977  0.00  0.00    +0.210 HD
ENDBRANCH  43  48
BRANCH  45  50
ATOM     50  O   UNL     1       7.805  -0.377  23.031  0.00  0.00    -0.337 OA
BRANCH  50  51
ATOM     51  C   UNL     1       7.800   0.708  23.930  0.00  0.00    +0.282 C 
ATOM     52  O   UNL     1       6.676   1.555  23.697  0.00  0.00    -0.346 OA
ATOM     53  C   UNL     1       6.550   1.970  22.327  0.00  0.00    +0.197 C 
ATOM     54  C   UNL     1       7.834   2.471  21.653  0.00  0.00    +0.171 C 
ATOM     55  C   UNL     1       9.103   1.723  22.078  0.00  0.00    +0.178 C 
ATOM     56  C   UNL     1       9.101   1.474  23.599  0.00  0.00    +0.201 C 
BRANCH  56  57
ATOM     57  O   UNL     1       9.238   2.712  24.308  0.00  0.00    -0.384 OA
ATOM     58  H   UNL     1       8.389   3.193  24.208  0.00  0.00    +0.210 HD
ENDBRANCH  56  57
BRANCH  55  59
ATOM     59  O   UNL     1      10.254   2.483  21.675  0.00  0.00    -0.386 OA
ATOM     60  H   UNL     1      10.781   1.880  21.111  0.00  0.00    +0.210 HD
ENDBRANCH  55  59
BRANCH  54  61
ATOM     61  O   UNL     1       8.014   3.858  21.973  0.00  0.00    -0.387 OA
ATOM     62  H   UNL     1       8.749   3.854  22.621  0.00  0.00    +0.210 HD
ENDBRANCH  54  61
ENDBRANCH  50  51
ENDBRANCH  45  50
ENDBRANCH  38  39
ENDBRANCH  11  38
TORSDOF 18
ENDMDL
MODEL 8
REMARK VINA RESULT:      -6.8      2.448      5.848
REMARK  Name = 
REMARK  20 active torsions:
REMARK  status: ('A' for Active; 'I' for Inactive)
REMARK    1  A    between atoms: C_1  and  C_2
REMARK    2  A    between atoms: C_3  and  O_60
REMARK    3  A    between atoms: C_5  and  O_59
REMARK    4  A    between atoms: C_6  and  O_58
REMARK    5  A    between atoms: C_8  and  O_11
REMARK    6  A    between atoms: O_11  and  C_12
REMARK    7  A    between atoms: C_13  and  O_57
REMARK    8  A    between atoms: C_15  and  C_18
REMARK    9  A    between atoms: C_19  and  O_31
REMARK   10  A    between atoms: C_23  and  O_30
REMARK   11  A    between atoms: C_25  and  O_29
REMARK   12  A    between atoms: O_31  and  C_32
REMARK   13  A    between atoms: C_34  and  O_44
REMARK   14  A    between atoms: C_36  and  O_43
REMARK   15  A    between atoms: C_37  and  O_42
REMARK   16  A    between atoms: C_39  and  C_41
REMARK   17  A    between atoms: O_44  and  C_45
REMARK   18  A    between atoms: C_47  and  O_56
REMARK   19  A    between atoms: C_49  and  O_55
REMARK   20  A    between atoms: C_50  and  O_54
REMARK                            x       y       z     vdW  Elec       q    Type
REMARK                         _______ _______ _______ _____ _____    ______ ____
ROOT
ATOM      1  C   UNL     1       6.284  -0.995  26.412  0.00  0.00    +0.181 A 
ATOM      2  O   UNL     1       5.397  -1.087  27.474  0.00  0.00    -0.451 OA
ATOM      3  C   UNL     1       4.920   0.047  28.068  0.00  0.00    +0.147 A 
ATOM      4  C   UNL     1       5.515   1.280  27.853  0.00  0.00    +0.109 A 
ATOM      5  C   UNL     1       5.063   2.386  28.585  0.00  0.00    +0.135 A 
ATOM      6  C   UNL     1       4.010   2.253  29.494  0.00  0.00    +0.091 A 
ATOM      7  C   UNL     1       3.395   1.019  29.642  0.00  0.00    +0.124 A 
ATOM      8  C   UNL     1       6.588   1.370  26.850  0.00  0.00    +0.238 A 
ATOM      9  O   UNL     1       7.172   2.443  26.759  0.00  0.00    -0.283 OA
ATOM     10  C   UNL     1       3.839  -0.090  28.924  0.00  0.00    +0.092 A 
ATOM     11  C   UNL     1       6.879   0.153  26.000  0.00  0.00    +0.214 A 
ENDROOT
BRANCH   1  15
ATOM     12  C   UNL     1       5.526  -5.002  25.195  0.00  0.00    +0.165 A 
ATOM     13  C   UNL     1       4.758  -3.937  24.744  0.00  0.00    +0.050 A 
ATOM     14  C   UNL     1       5.147  -2.621  25.002  0.00  0.00    +0.015 A 
ATOM     15  C   UNL     1       6.298  -2.329  25.750  0.00  0.00    +0.025 A 
ATOM     16  C   UNL     1       7.116  -3.394  26.159  0.00  0.00    +0.060 A 
ATOM     17  C   UNL     1       6.719  -4.711  25.875  0.00  0.00    +0.159 A 
BRANCH  17  18
ATOM     18  O   UNL     1       7.508  -5.737  26.342  0.00  0.00    -0.503 OA
ATOM     19  H   UNL     1       8.424  -5.491  26.112  0.00  0.00    +0.292 HD
ENDBRANCH  17  18
BRANCH  12  20
ATOM     20  O   UNL     1       5.135  -6.312  25.123  0.00  0.00    -0.457 OA
BRANCH  20  24
ATOM     21  C   UNL     1       1.479  -8.208  26.016  0.00  0.00    +0.041 C 
ATOM     22  C   UNL     1       2.102  -8.377  24.634  0.00  0.00    +0.150 C 
ATOM     23  O   UNL     1       3.495  -8.047  24.689  0.00  0.00    -0.334 OA
ATOM     24  C   UNL     1       3.781  -6.645  24.753  0.00  0.00    +0.339 C 
ATOM     25  C   UNL     1       3.241  -5.912  23.495  0.00  0.00    +0.214 C 
ATOM     26  C   UNL     1       1.717  -6.124  23.460  0.00  0.00    +0.180 C 
ATOM     27  C   UNL     1       1.347  -7.617  23.527  0.00  0.00    +0.174 C 
BRANCH  27  28
ATOM     28  O   UNL     1       1.640  -8.198  22.242  0.00  0.00    -0.387 OA
ATOM     29  H   UNL     1       2.568  -7.958  22.033  0.00  0.00    +0.210 HD
ENDBRANCH  27  28
BRANCH  26  30
ATOM     30  O   UNL     1       1.188  -5.547  22.253  0.00  0.00    -0.386 OA
ATOM     31  H   UNL     1       0.213  -5.537  22.360  0.00  0.00    +0.210 HD
ENDBRANCH  26  30
BRANCH  25  32
ATOM     32  O   UNL     1       3.780  -6.428  22.262  0.00  0.00    -0.383 OA
ATOM     33  H   UNL     1       4.182  -5.654  21.815  0.00  0.00    +0.210 HD
ENDBRANCH  25  32
ENDBRANCH  20  24
ENDBRANCH  12  20
ENDBRANCH   1  15
BRANCH   7  34
ATOM     34  O   UNL     1       2.340   0.843  30.485  0.00  0.00    -0.507 OA
ATOM     35  H   UNL     1       1.613   1.423  30.200  0.00  0.00    +0.292 HD
ENDBRANCH   7  34
BRANCH   5  36
ATOM     36  O   UNL     1       5.620   3.630  28.476  0.00  0.00    -0.506 OA
ATOM     37  H   UNL     1       6.408   3.662  29.063  0.00  0.00    +0.292 HD
ENDBRANCH   5  36
BRANCH  11  38
ATOM     38  O   UNL     1       7.688   0.193  24.866  0.00  0.00    -0.453 OA
BRANCH  38  39
ATOM     39  C   UNL     1       7.111   0.277  23.533  0.00  0.00    +0.340 C 
ATOM     40  O   UNL     1       6.963  -0.989  22.906  0.00  0.00    -0.334 OA
ATOM     41  C   UNL     1       8.200  -1.661  22.674  0.00  0.00    +0.150 C 
ATOM     42  C   UNL     1       7.866  -2.935  21.899  0.00  0.00    +0.041 C 
ATOM     43  C   UNL     1       9.208  -0.814  21.878  0.00  0.00    +0.174 C 
ATOM     44  C   UNL     1       9.340   0.613  22.444  0.00  0.00    +0.180 C 
ATOM     45  C   UNL     1       7.954   1.238  22.652  0.00  0.00    +0.221 C 
BRANCH  44  46
ATOM     46  O   UNL     1      10.136   1.374  21.523  0.00  0.00    -0.386 OA
ATOM     47  H   UNL     1      10.633   2.054  22.019  0.00  0.00    +0.210 HD
ENDBRANCH  44  46
BRANCH  43  48
ATOM     48  O   UNL     1      10.471  -1.499  21.858  0.00  0.00    -0.387 OA
ATOM     49  H   UNL     1      10.656  -1.834  22.752  0.00  0.00    +0.210 HD
ENDBRANCH  43  48
BRANCH  45  50
ATOM     50  O   UNL     1       7.946   2.427  23.420  0.00  0.00    -0.337 OA
BRANCH  50  51
ATOM     51  C   UNL     1       8.421   3.674  22.967  0.00  0.00    +0.282 C 
ATOM     52  O   UNL     1       8.645   4.560  24.061  0.00  0.00    -0.346 OA
ATOM     53  C   UNL     1       7.512   4.684  24.935  0.00  0.00    +0.197 C 
ATOM     54  C   UNL     1       6.154   4.898  24.254  0.00  0.00    +0.171 C 
ATOM     55  C   UNL     1       5.982   4.134  22.936  0.00  0.00    +0.178 C 
ATOM     56  C   UNL     1       7.268   4.217  22.090  0.00  0.00    +0.201 C 
BRANCH  56  57
ATOM     57  O   UNL     1       7.477   5.557  21.628  0.00  0.00    -0.384 OA
ATOM     58  H   UNL     1       7.759   5.495  20.691  0.00  0.00    +0.210 HD
ENDBRANCH  56  57
BRANCH  55  59
ATOM     59  O   UNL     1       4.855   4.670  22.225  0.00  0.00    -0.386 OA
ATOM     60  H   UNL     1       5.136   5.559  21.922  0.00  0.00    +0.210 HD
ENDBRANCH  55  59
BRANCH  54  61
ATOM     61  O   UNL     1       5.990   6.296  23.976  0.00  0.00    -0.387 OA
ATOM     62  H   UNL     1       5.593   6.652  24.798  0.00  0.00    +0.210 HD
ENDBRANCH  54  61
ENDBRANCH  50  51
ENDBRANCH  45  50
ENDBRANCH  38  39
ENDBRANCH  11  38
TORSDOF 18
ENDMDL
MODEL 9
REMARK VINA RESULT:      -6.6      3.381      9.392
REMARK  Name = 
REMARK  20 active torsions:
REMARK  status: ('A' for Active; 'I' for Inactive)
REMARK    1  A    between atoms: C_1  and  C_2
REMARK    2  A    between atoms: C_3  and  O_60
REMARK    3  A    between atoms: C_5  and  O_59
REMARK    4  A    between atoms: C_6  and  O_58
REMARK    5  A    between atoms: C_8  and  O_11
REMARK    6  A    between atoms: O_11  and  C_12
REMARK    7  A    between atoms: C_13  and  O_57
REMARK    8  A    between atoms: C_15  and  C_18
REMARK    9  A    between atoms: C_19  and  O_31
REMARK   10  A    between atoms: C_23  and  O_30
REMARK   11  A    between atoms: C_25  and  O_29
REMARK   12  A    between atoms: O_31  and  C_32
REMARK   13  A    between atoms: C_34  and  O_44
REMARK   14  A    between atoms: C_36  and  O_43
REMARK   15  A    between atoms: C_37  and  O_42
REMARK   16  A    between atoms: C_39  and  C_41
REMARK   17  A    between atoms: O_44  and  C_45
REMARK   18  A    between atoms: C_47  and  O_56
REMARK   19  A    between atoms: C_49  and  O_55
REMARK   20  A    between atoms: C_50  and  O_54
REMARK                            x       y       z     vdW  Elec       q    Type
REMARK                         _______ _______ _______ _____ _____    ______ ____
ROOT
ATOM      1  C   UNL     1       4.311  -1.282  27.027  0.00  0.00    +0.181 A 
ATOM      2  O   UNL     1       3.626  -0.079  26.926  0.00  0.00    -0.451 OA
ATOM      3  C   UNL     1       2.665   0.240  27.843  0.00  0.00    +0.147 A 
ATOM      4  C   UNL     1       2.134  -0.715  28.694  0.00  0.00    +0.109 A 
ATOM      5  C   UNL     1       1.064  -0.360  29.526  0.00  0.00    +0.135 A 
ATOM      6  C   UNL     1       0.562   0.945  29.519  0.00  0.00    +0.091 A 
ATOM      7  C   UNL     1       1.156   1.893  28.699  0.00  0.00    +0.124 A 
ATOM      8  C   UNL     1       2.732  -2.060  28.694  0.00  0.00    +0.238 A 
ATOM      9  O   UNL     1       2.174  -2.915  29.371  0.00  0.00    -0.283 OA
ATOM     10  C   UNL     1       2.216   1.551  27.863  0.00  0.00    +0.092 A 
ATOM     11  C   UNL     1       3.988  -2.285  27.881  0.00  0.00    +0.214 A 
ENDROOT
BRANCH   1  15
ATOM     12  C   UNL     1       7.431   0.074  24.469  0.00  0.00    +0.165 A 
ATOM     13  C   UNL     1       7.447   0.305  25.837  0.00  0.00    +0.050 A 
ATOM     14  C   UNL     1       6.517  -0.316  26.674  0.00  0.00    +0.015 A 
ATOM     15  C   UNL     1       5.518  -1.159  26.164  0.00  0.00    +0.025 A 
ATOM     16  C   UNL     1       5.528  -1.449  24.790  0.00  0.00    +0.060 A 
ATOM     17  C   UNL     1       6.482  -0.830  23.966  0.00  0.00    +0.159 A 
BRANCH  17  18
ATOM     18  O   UNL     1       6.429  -1.086  22.615  0.00  0.00    -0.503 OA
ATOM     19  H   UNL     1       6.646  -0.241  22.178  0.00  0.00    +0.292 HD
ENDBRANCH  17  18
BRANCH  12  20
ATOM     20  O   UNL     1       8.198   0.761  23.567  0.00  0.00    -0.457 OA
BRANCH  20  24
ATOM     21  C   UNL     1       7.942   4.234  25.940  0.00  0.00    +0.041 C 
ATOM     22  C   UNL     1       7.970   4.356  24.420  0.00  0.00    +0.150 C 
ATOM     23  O   UNL     1       7.612   3.101  23.828  0.00  0.00    -0.334 OA
ATOM     24  C   UNL     1       8.639   2.102  23.864  0.00  0.00    +0.339 C 
ATOM     25  C   UNL     1       9.896   2.573  23.084  0.00  0.00    +0.214 C 
ATOM     26  C   UNL     1      10.405   3.856  23.766  0.00  0.00    +0.180 C 
ATOM     27  C   UNL     1       9.298   4.920  23.877  0.00  0.00    +0.174 C 
BRANCH  27  28
ATOM     28  O   UNL     1       9.095   5.480  22.565  0.00  0.00    -0.387 OA
ATOM     29  H   UNL     1       8.129   5.617  22.467  0.00  0.00    +0.210 HD
ENDBRANCH  27  28
BRANCH  26  30
ATOM     30  O   UNL     1      11.510   4.384  23.012  0.00  0.00    -0.386 OA
ATOM     31  H   UNL     1      12.147   3.644  22.907  0.00  0.00    +0.210 HD
ENDBRANCH  26  30
BRANCH  25  32
ATOM     32  O   UNL     1       9.622   2.893  21.706  0.00  0.00    -0.383 OA
ATOM     33  H   UNL     1      10.486   3.164  21.330  0.00  0.00    +0.210 HD
ENDBRANCH  25  32
ENDBRANCH  20  24
ENDBRANCH  12  20
ENDBRANCH   1  15
BRANCH   7  34
ATOM     34  O   UNL     1       0.732   3.188  28.681  0.00  0.00    -0.507 OA
ATOM     35  H   UNL     1      -0.059   3.264  29.243  0.00  0.00    +0.292 HD
ENDBRANCH   7  34
BRANCH   5  36
ATOM     36  O   UNL     1       0.444  -1.246  30.363  0.00  0.00    -0.506 OA
ATOM     37  H   UNL     1       0.914  -2.107  30.295  0.00  0.00    +0.292 HD
ENDBRANCH   5  36
BRANCH  11  38
ATOM     38  O   UNL     1       4.775  -3.430  27.998  0.00  0.00    -0.453 OA
BRANCH  38  39
ATOM     39  C   UNL     1       4.585  -4.566  27.110  0.00  0.00    +0.340 C 
ATOM     40  O   UNL     1       3.349  -5.235  27.311  0.00  0.00    -0.334 OA
ATOM     41  C   UNL     1       3.218  -5.821  28.606  0.00  0.00    +0.150 C 
ATOM     42  C   UNL     1       1.896  -6.587  28.606  0.00  0.00    +0.041 C 
ATOM     43  C   UNL     1       4.374  -6.772  28.958  0.00  0.00    +0.174 C 
ATOM     44  C   UNL     1       5.751  -6.145  28.664  0.00  0.00    +0.180 C 
ATOM     45  C   UNL     1       5.778  -5.550  27.250  0.00  0.00    +0.221 C 
BRANCH  44  46
ATOM     46  O   UNL     1       6.741  -7.171  28.830  0.00  0.00    -0.386 OA
ATOM     47  H   UNL     1       6.329  -7.946  29.261  0.00  0.00    +0.210 HD
ENDBRANCH  44  46
BRANCH  43  48
ATOM     48  O   UNL     1       4.248  -7.160  30.335  0.00  0.00    -0.387 OA
ATOM     49  H   UNL     1       4.002  -6.376  30.857  0.00  0.00    +0.210 HD
ENDBRANCH  43  48
BRANCH  45  50
ATOM     50  O   UNL     1       6.887  -4.712  26.978  0.00  0.00    -0.337 OA
BRANCH  50  51
ATOM     51  C   UNL     1       8.227  -5.147  26.942  0.00  0.00    +0.282 C 
ATOM     52  O   UNL     1       9.121  -4.050  27.116  0.00  0.00    -0.346 OA
ATOM     53  C   UNL     1       8.868  -2.959  26.216  0.00  0.00    +0.197 C 
ATOM     54  C   UNL     1       8.654  -3.334  24.744  0.00  0.00    +0.171 C 
ATOM     55  C   UNL     1       7.895  -4.650  24.532  0.00  0.00    +0.178 C 
ATOM     56  C   UNL     1       8.393  -5.726  25.517  0.00  0.00    +0.201 C 
BRANCH  56  57
ATOM     57  O   UNL     1       9.738  -6.108  25.203  0.00  0.00    -0.384 OA
ATOM     58  H   UNL     1       9.710  -7.050  24.931  0.00  0.00    +0.210 HD
ENDBRANCH  56  57
BRANCH  55  59
ATOM     59  O   UNL     1       8.061  -5.074  23.170  0.00  0.00    -0.386 OA
ATOM     60  H   UNL     1       7.390  -5.775  23.031  0.00  0.00    +0.210 HD
ENDBRANCH  55  59
BRANCH  54  61
ATOM     61  O   UNL     1       9.934  -3.458  24.107  0.00  0.00    -0.387 OA
ATOM     62  H   UNL     1      10.042  -4.425  23.988  0.00  0.00    +0.210 HD
ENDBRANCH  54  61
ENDBRANCH  50  51
ENDBRANCH  45  50
ENDBRANCH  38  39
ENDBRANCH  11  38
TORSDOF 18
ENDMDL
