MODEL 1
REMARK VINA RESULT:      -7.4      0.000      0.000
REMARK  Name = 
REMARK  11 active torsions:
REMARK  status: ('A' for Active; 'I' for Inactive)
REMARK    1  A    between atoms: C_3  and  O_35
REMARK    2  A    between atoms: C_4  and  O_34
REMARK    3  A    between atoms: C_6  and  C_7
REMARK    4  A    between atoms: C_8  and  O_20
REMARK    5  A    between atoms: C_12  and  O_19
REMARK    6  A    between atoms: C_14  and  O_18
REMARK    7  A    between atoms: O_20  and  C_21
REMARK    8  A    between atoms: C_23  and  O_33
REMARK    9  A    between atoms: C_25  and  O_32
REMARK   10  A    between atoms: C_27  and  C_30
REMARK   11  A    between atoms: C_30  and  O_31
REMARK                            x       y       z     vdW  Elec       q    Type
REMARK                         _______ _______ _______ _____ _____    ______ ____
ROOT
ATOM      1  C   UNL     1       7.018  -1.471  23.457  0.00  0.00    +0.181 A 
ATOM      2  O   UNL     1       6.365  -0.254  23.248  0.00  0.00    -0.451 OA
ATOM      3  C   UNL     1       7.105   0.878  23.025  0.00  0.00    +0.147 A 
ATOM      4  C   UNL     1       8.467   0.923  23.274  0.00  0.00    +0.109 A 
ATOM      5  C   UNL     1       9.169   2.118  23.035  0.00  0.00    +0.135 A 
ATOM      6  C   UNL     1       8.514   3.252  22.552  0.00  0.00    +0.091 A 
ATOM      7  C   UNL     1       7.151   3.189  22.303  0.00  0.00    +0.124 A 
ATOM      8  C   UNL     1       9.122  -0.303  23.763  0.00  0.00    +0.238 A 
ATOM      9  O   UNL     1      10.313  -0.265  24.065  0.00  0.00    -0.283 OA
ATOM     10  C   UNL     1       6.441   2.010  22.532  0.00  0.00    +0.092 A 
ATOM     11  C   UNL     1       8.332  -1.586  23.793  0.00  0.00    +0.214 A 
ENDROOT
BRANCH   1  13
ATOM     12  C   UNL     1       5.081  -2.958  23.922  0.00  0.00    +0.015 A 
ATOM     13  C   UNL     1       6.135  -2.597  23.063  0.00  0.00    +0.025 A 
ATOM     14  C   UNL     1       6.429  -3.450  21.979  0.00  0.00    +0.060 A 
ATOM     15  C   UNL     1       5.668  -4.604  21.785  0.00  0.00    +0.159 A 
ATOM     16  C   UNL     1       4.614  -4.932  22.642  0.00  0.00    +0.158 A 
ATOM     17  C   UNL     1       4.315  -4.098  23.707  0.00  0.00    +0.050 A 
BRANCH  15  18
ATOM     18  O   UNL     1       5.975  -5.461  20.764  0.00  0.00    -0.503 OA
ATOM     19  H   UNL     1       5.695  -4.987  19.952  0.00  0.00    +0.292 HD
ENDBRANCH  15  18
BRANCH  16  20
ATOM     20  O   UNL     1       3.927  -6.085  22.424  0.00  0.00    -0.503 OA
ATOM     21  H   UNL     1       3.796  -6.535  23.276  0.00  0.00    +0.292 HD
ENDBRANCH  16  20
ENDBRANCH   1  13
BRANCH   5  22
ATOM     22  O   UNL     1      10.515   2.247  23.245  0.00  0.00    -0.506 OA
ATOM     23  H   UNL     1      10.836   1.436  23.698  0.00  0.00    +0.292 HD
ENDBRANCH   5  22
BRANCH   7  24
ATOM     24  O   UNL     1       6.479   4.272  21.826  0.00  0.00    -0.507 OA
ATOM     25  H   UNL     1       6.488   4.263  20.862  0.00  0.00    +0.292 HD
ENDBRANCH   7  24
BRANCH  11  26
ATOM     26  O   UNL     1       9.103  -2.738  23.915  0.00  0.00    -0.453 OA
BRANCH  26  27
ATOM     27  C   UNL     1       9.396  -3.342  25.188  0.00  0.00    +0.340 C 
ATOM     28  O   UNL     1       8.344  -3.040  26.139  0.00  0.00    -0.331 OA
ATOM     29  C   UNL     1       7.333  -4.070  26.059  0.00  0.00    +0.179 C 
ATOM     30  C   UNL     1       8.024  -5.342  25.576  0.00  0.00    +0.180 C 
ATOM     31  C   UNL     1       9.397  -4.882  25.073  0.00  0.00    +0.214 C 
BRANCH  30  32
ATOM     32  O   UNL     1       7.231  -5.925  24.535  0.00  0.00    -0.386 OA
ATOM     33  H   UNL     1       6.745  -5.219  24.074  0.00  0.00    +0.210 HD
ENDBRANCH  30  32
BRANCH  31  34
ATOM     34  O   UNL     1      10.417  -5.497  25.880  0.00  0.00    -0.383 OA
ATOM     35  H   UNL     1      10.765  -4.847  26.516  0.00  0.00    +0.210 HD
ENDBRANCH  31  34
BRANCH  29  36
ATOM     36  C   UNL     1       6.633  -4.226  27.424  0.00  0.00    +0.190 C 
BRANCH  36  37
ATOM     37  O   UNL     1       7.021  -5.437  28.083  0.00  0.00    -0.392 OA
ATOM     38  H   UNL     1       6.348  -6.112  27.888  0.00  0.00    +0.210 HD
ENDBRANCH  36  37
ENDBRANCH  29  36
ENDBRANCH  26  27
ENDBRANCH  11  26
TORSDOF 11
ENDMDL
MODEL 2
REMARK VINA RESULT:      -7.0      2.456      6.989
REMARK  Name = 
REMARK  11 active torsions:
REMARK  status: ('A' for Active; 'I' for Inactive)
REMARK    1  A    between atoms: C_3  and  O_35
REMARK    2  A    between atoms: C_4  and  O_34
REMARK    3  A    between atoms: C_6  and  C_7
REMARK    4  A    between atoms: C_8  and  O_20
REMARK    5  A    between atoms: C_12  and  O_19
REMARK    6  A    between atoms: C_14  and  O_18
REMARK    7  A    between atoms: O_20  and  C_21
REMARK    8  A    between atoms: C_23  and  O_33
REMARK    9  A    between atoms: C_25  and  O_32
REMARK   10  A    between atoms: C_27  and  C_30
REMARK   11  A    between atoms: C_30  and  O_31
REMARK                            x       y       z     vdW  Elec       q    Type
REMARK                         _______ _______ _______ _____ _____    ______ ____
ROOT
ATOM      1  C   UNL     1       5.777  -2.169  24.674  0.00  0.00    +0.181 A 
ATOM      2  O   UNL     1       4.426  -2.487  24.838  0.00  0.00    -0.451 OA
ATOM      3  C   UNL     1       3.944  -3.665  24.330  0.00  0.00    +0.147 A 
ATOM      4  C   UNL     1       4.668  -4.422  23.424  0.00  0.00    +0.109 A 
ATOM      5  C   UNL     1       4.115  -5.617  22.931  0.00  0.00    +0.135 A 
ATOM      6  C   UNL     1       2.852  -6.047  23.342  0.00  0.00    +0.091 A 
ATOM      7  C   UNL     1       2.142  -5.281  24.254  0.00  0.00    +0.124 A 
ATOM      8  C   UNL     1       6.006  -3.941  23.034  0.00  0.00    +0.238 A 
ATOM      9  O   UNL     1       6.633  -4.555  22.172  0.00  0.00    -0.283 OA
ATOM     10  C   UNL     1       2.678  -4.095  24.755  0.00  0.00    +0.092 A 
ATOM     11  C   UNL     1       6.597  -2.764  23.766  0.00  0.00    +0.214 A 
ENDROOT
BRANCH   1  13
ATOM     12  C   UNL     1       5.404  -0.158  26.086  0.00  0.00    +0.015 A 
ATOM     13  C   UNL     1       6.220  -1.256  25.755  0.00  0.00    +0.025 A 
ATOM     14  C   UNL     1       7.511  -1.315  26.319  0.00  0.00    +0.060 A 
ATOM     15  C   UNL     1       7.932  -0.305  27.187  0.00  0.00    +0.159 A 
ATOM     16  C   UNL     1       7.095   0.765  27.514  0.00  0.00    +0.158 A 
ATOM     17  C   UNL     1       5.824   0.830  26.969  0.00  0.00    +0.050 A 
BRANCH  15  18
ATOM     18  O   UNL     1       9.199  -0.331  27.702  0.00  0.00    -0.503 OA
ATOM     19  H   UNL     1       9.780  -0.449  26.921  0.00  0.00    +0.292 HD
ENDBRANCH  15  18
BRANCH  16  20
ATOM     20  O   UNL     1       7.569   1.737  28.340  0.00  0.00    -0.503 OA
ATOM     21  H   UNL     1       8.057   2.388  27.806  0.00  0.00    +0.292 HD
ENDBRANCH  16  20
ENDBRANCH   1  13
BRANCH   5  22
ATOM     22  O   UNL     1       4.765  -6.429  22.041  0.00  0.00    -0.506 OA
ATOM     23  H   UNL     1       5.542  -5.942  21.690  0.00  0.00    +0.292 HD
ENDBRANCH   5  22
BRANCH   7  24
ATOM     24  O   UNL     1       0.911  -5.671  24.683  0.00  0.00    -0.507 OA
ATOM     25  H   UNL     1       0.813  -6.623  24.573  0.00  0.00    +0.292 HD
ENDBRANCH   7  24
BRANCH  11  26
ATOM     26  O   UNL     1       7.970  -2.607  23.595  0.00  0.00    -0.453 OA
BRANCH  26  27
ATOM     27  C   UNL     1       8.531  -1.831  22.521  0.00  0.00    +0.340 C 
ATOM     28  O   UNL     1       7.880  -0.537  22.444  0.00  0.00    -0.331 OA
ATOM     29  C   UNL     1       8.597   0.396  23.285  0.00  0.00    +0.179 C 
ATOM     30  C   UNL     1      10.042  -0.086  23.362  0.00  0.00    +0.180 C 
ATOM     31  C   UNL     1      10.016  -1.513  22.799  0.00  0.00    +0.214 C 
BRANCH  30  32
ATOM     32  O   UNL     1      10.464  -0.050  24.730  0.00  0.00    -0.386 OA
ATOM     33  H   UNL     1      11.115  -0.759  24.880  0.00  0.00    +0.210 HD
ENDBRANCH  30  32
BRANCH  31  34
ATOM     34  O   UNL     1      10.824  -1.556  21.609  0.00  0.00    -0.383 OA
ATOM     35  H   UNL     1      11.644  -1.050  21.754  0.00  0.00    +0.210 HD
ENDBRANCH  31  34
BRANCH  29  36
ATOM     36  C   UNL     1       8.450   1.825  22.726  0.00  0.00    +0.190 C 
BRANCH  36  37
ATOM     37  O   UNL     1       9.403   2.090  21.690  0.00  0.00    -0.392 OA
ATOM     38  H   UNL     1       9.858   1.255  21.482  0.00  0.00    +0.210 HD
ENDBRANCH  36  37
ENDBRANCH  29  36
ENDBRANCH  26  27
ENDBRANCH  11  26
TORSDOF 11
ENDMDL
MODEL 3
REMARK VINA RESULT:      -7.0      2.626      6.887
REMARK  Name = 
REMARK  11 active torsions:
REMARK  status: ('A' for Active; 'I' for Inactive)
REMARK    1  A    between atoms: C_3  and  O_35
REMARK    2  A    between atoms: C_4  and  O_34
REMARK    3  A    between atoms: C_6  and  C_7
REMARK    4  A    between atoms: C_8  and  O_20
REMARK    5  A    between atoms: C_12  and  O_19
REMARK    6  A    between atoms: C_14  and  O_18
REMARK    7  A    between atoms: O_20  and  C_21
REMARK    8  A    between atoms: C_23  and  O_33
REMARK    9  A    between atoms: C_25  and  O_32
REMARK   10  A    between atoms: C_27  and  C_30
REMARK   11  A    between atoms: C_30  and  O_31
REMARK                            x       y       z     vdW  Elec       q    Type
REMARK                         _______ _______ _______ _____ _____    ______ ____
ROOT
ATOM      1  C   UNL     1       8.548  -2.111  24.270  0.00  0.00    +0.181 A 
ATOM      2  O   UNL     1       8.410  -3.092  23.285  0.00  0.00    -0.451 OA
ATOM      3  C   UNL     1       7.425  -4.036  23.408  0.00  0.00    +0.147 A 
ATOM      4  C   UNL     1       6.741  -4.231  24.597  0.00  0.00    +0.109 A 
ATOM      5  C   UNL     1       5.747  -5.223  24.663  0.00  0.00    +0.135 A 
ATOM      6  C   UNL     1       5.442  -6.009  23.551  0.00  0.00    +0.091 A 
ATOM      7  C   UNL     1       6.131  -5.798  22.366  0.00  0.00    +0.124 A 
ATOM      8  C   UNL     1       7.081  -3.364  25.740  0.00  0.00    +0.238 A 
ATOM      9  O   UNL     1       6.543  -3.570  26.826  0.00  0.00    -0.283 OA
ATOM     10  C   UNL     1       7.118  -4.816  22.283  0.00  0.00    +0.092 A 
ATOM     11  C   UNL     1       8.009  -2.198  25.517  0.00  0.00    +0.214 A 
ENDROOT
BRANCH   1  13
ATOM     12  C   UNL     1      10.067  -0.157  24.499  0.00  0.00    +0.015 A 
ATOM     13  C   UNL     1       9.181  -0.898  23.697  0.00  0.00    +0.025 A 
ATOM     14  C   UNL     1       8.777  -0.340  22.466  0.00  0.00    +0.060 A 
ATOM     15  C   UNL     1       9.272   0.907  22.079  0.00  0.00    +0.159 A 
ATOM     16  C   UNL     1      10.165   1.615  22.886  0.00  0.00    +0.158 A 
ATOM     17  C   UNL     1      10.571   1.073  24.095  0.00  0.00    +0.050 A 
BRANCH  15  18
ATOM     18  O   UNL     1       8.850   1.476  20.909  0.00  0.00    -0.503 OA
ATOM     19  H   UNL     1       8.985   2.439  21.040  0.00  0.00    +0.292 HD
ENDBRANCH  15  18
BRANCH  16  20
ATOM     20  O   UNL     1      10.590   2.841  22.475  0.00  0.00    -0.503 OA
ATOM     21  H   UNL     1       9.812   3.402  22.315  0.00  0.00    +0.292 HD
ENDBRANCH  16  20
ENDBRANCH   1  13
BRANCH   5  22
ATOM     22  O   UNL     1       5.019  -5.475  25.794  0.00  0.00    -0.506 OA
ATOM     23  H   UNL     1       5.195  -4.758  26.441  0.00  0.00    +0.292 HD
ENDBRANCH   5  22
BRANCH   7  24
ATOM     24  O   UNL     1       5.858  -6.541  21.259  0.00  0.00    -0.507 OA
ATOM     25  H   UNL     1       4.988  -6.947  21.345  0.00  0.00    +0.292 HD
ENDBRANCH   7  24
BRANCH  11  26
ATOM     26  O   UNL     1       7.990  -1.241  26.528  0.00  0.00    -0.453 OA
BRANCH  26  27
ATOM     27  C   UNL     1       6.775  -0.614  26.975  0.00  0.00    +0.340 C 
ATOM     28  O   UNL     1       7.079   0.482  27.876  0.00  0.00    -0.331 OA
ATOM     29  C   UNL     1       7.234   1.692  27.101  0.00  0.00    +0.179 C 
ATOM     30  C   UNL     1       6.394   1.530  25.838  0.00  0.00    +0.180 C 
ATOM     31  C   UNL     1       6.032   0.040  25.790  0.00  0.00    +0.214 C 
BRANCH  30  32
ATOM     32  O   UNL     1       7.180   1.935  24.711  0.00  0.00    -0.386 OA
ATOM     33  H   UNL     1       6.723   2.661  24.250  0.00  0.00    +0.210 HD
ENDBRANCH  30  32
BRANCH  31  34
ATOM     34  O   UNL     1       4.603  -0.093  25.889  0.00  0.00    -0.383 OA
ATOM     35  H   UNL     1       4.320  -0.905  25.432  0.00  0.00    +0.210 HD
ENDBRANCH  31  34
BRANCH  29  36
ATOM     36  C   UNL     1       6.841   2.915  27.954  0.00  0.00    +0.190 C 
BRANCH  36  37
ATOM     37  O   UNL     1       7.591   2.974  29.172  0.00  0.00    -0.392 OA
ATOM     38  H   UNL     1       8.517   3.167  28.945  0.00  0.00    +0.210 HD
ENDBRANCH  36  37
ENDBRANCH  29  36
ENDBRANCH  26  27
ENDBRANCH  11  26
TORSDOF 11
ENDMDL
MODEL 4
REMARK VINA RESULT:      -7.0      2.820      7.882
REMARK  Name = 
REMARK  11 active torsions:
REMARK  status: ('A' for Active; 'I' for Inactive)
REMARK    1  A    between atoms: C_3  and  O_35
REMARK    2  A    between atoms: C_4  and  O_34
REMARK    3  A    between atoms: C_6  and  C_7
REMARK    4  A    between atoms: C_8  and  O_20
REMARK    5  A    between atoms: C_12  and  O_19
REMARK    6  A    between atoms: C_14  and  O_18
REMARK    7  A    between atoms: O_20  and  C_21
REMARK    8  A    between atoms: C_23  and  O_33
REMARK    9  A    between atoms: C_25  and  O_32
REMARK   10  A    between atoms: C_27  and  C_30
REMARK   11  A    between atoms: C_30  and  O_31
REMARK                            x       y       z     vdW  Elec       q    Type
REMARK                         _______ _______ _______ _____ _____    ______ ____
ROOT
ATOM      1  C   UNL     1       7.384  -0.497  25.179  0.00  0.00    +0.181 A 
ATOM      2  O   UNL     1       8.022  -1.566  25.814  0.00  0.00    -0.451 OA
ATOM      3  C   UNL     1       7.273  -2.611  26.288  0.00  0.00    +0.147 A 
ATOM      4  C   UNL     1       5.897  -2.527  26.417  0.00  0.00    +0.109 A 
ATOM      5  C   UNL     1       5.186  -3.631  26.920  0.00  0.00    +0.135 A 
ATOM      6  C   UNL     1       5.847  -4.803  27.289  0.00  0.00    +0.091 A 
ATOM      7  C   UNL     1       7.225  -4.874  27.150  0.00  0.00    +0.124 A 
ATOM      8  C   UNL     1       5.238  -1.278  25.994  0.00  0.00    +0.238 A 
ATOM      9  O   UNL     1       4.027  -1.152  26.172  0.00  0.00    -0.283 OA
ATOM     10  C   UNL     1       7.944  -3.789  26.650  0.00  0.00    +0.092 A 
ATOM     11  C   UNL     1       6.053  -0.232  25.279  0.00  0.00    +0.214 A 
ENDROOT
BRANCH   1  13
ATOM     12  C   UNL     1       9.335   0.985  24.759  0.00  0.00    +0.015 A 
ATOM     13  C   UNL     1       8.318   0.166  24.236  0.00  0.00    +0.025 A 
ATOM     14  C   UNL     1       8.107   0.181  22.841  0.00  0.00    +0.060 A 
ATOM     15  C   UNL     1       8.909   0.986  22.032  0.00  0.00    +0.159 A 
ATOM     16  C   UNL     1       9.925   1.778  22.574  0.00  0.00    +0.158 A 
ATOM     17  C   UNL     1      10.143   1.766  23.942  0.00  0.00    +0.050 A 
BRANCH  15  18
ATOM     18  O   UNL     1       8.681   1.042  20.684  0.00  0.00    -0.503 OA
ATOM     19  H   UNL     1       8.880   1.971  20.438  0.00  0.00    +0.292 HD
ENDBRANCH  15  18
BRANCH  16  20
ATOM     20  O   UNL     1      10.655   2.567  21.741  0.00  0.00    -0.503 OA
ATOM     21  H   UNL     1      10.998   2.020  21.014  0.00  0.00    +0.292 HD
ENDBRANCH  16  20
ENDBRANCH   1  13
BRANCH   5  22
ATOM     22  O   UNL     1       3.825  -3.637  27.070  0.00  0.00    -0.506 OA
ATOM     23  H   UNL     1       3.553  -2.771  27.447  0.00  0.00    +0.292 HD
ENDBRANCH   5  22
BRANCH   7  24
ATOM     24  O   UNL     1       7.904  -6.002  27.494  0.00  0.00    -0.507 OA
ATOM     25  H   UNL     1       8.406  -5.847  28.302  0.00  0.00    +0.292 HD
ENDBRANCH   7  24
BRANCH  11  26
ATOM     26  O   UNL     1       5.301   0.728  24.608  0.00  0.00    -0.453 OA
BRANCH  26  27
ATOM     27  C   UNL     1       5.297   2.114  24.992  0.00  0.00    +0.340 C 
ATOM     28  O   UNL     1       6.360   2.827  24.309  0.00  0.00    -0.331 OA
ATOM     29  C   UNL     1       5.849   3.335  23.055  0.00  0.00    +0.179 C 
ATOM     30  C   UNL     1       4.348   3.538  23.229  0.00  0.00    +0.180 C 
ATOM     31  C   UNL     1       3.995   2.804  24.529  0.00  0.00    +0.214 C 
BRANCH  30  32
ATOM     32  O   UNL     1       3.676   2.982  22.093  0.00  0.00    -0.386 OA
ATOM     33  H   UNL     1       3.412   2.067  22.297  0.00  0.00    +0.210 HD
ENDBRANCH  30  32
BRANCH  31  34
ATOM     34  O   UNL     1       3.505   3.762  25.484  0.00  0.00    -0.383 OA
ATOM     35  H   UNL     1       3.921   4.627  25.320  0.00  0.00    +0.210 HD
ENDBRANCH  31  34
BRANCH  29  36
ATOM     36  C   UNL     1       6.607   4.619  22.662  0.00  0.00    +0.190 C 
BRANCH  36  37
ATOM     37  O   UNL     1       7.860   4.324  22.035  0.00  0.00    -0.392 OA
ATOM     38  H   UNL     1       7.765   3.481  21.559  0.00  0.00    +0.210 HD
ENDBRANCH  36  37
ENDBRANCH  29  36
ENDBRANCH  26  27
ENDBRANCH  11  26
TORSDOF 11
ENDMDL
MODEL 5
REMARK VINA RESULT:      -6.8      2.608      7.498
REMARK  Name = 
REMARK  11 active torsions:
REMARK  status: ('A' for Active; 'I' for Inactive)
REMARK    1  A    between atoms: C_3  and  O_35
REMARK    2  A    between atoms: C_4  and  O_34
REMARK    3  A    between atoms: C_6  and  C_7
REMARK    4  A    between atoms: C_8  and  O_20
REMARK    5  A    between atoms: C_12  and  O_19
REMARK    6  A    between atoms: C_14  and  O_18
REMARK    7  A    between atoms: O_20  and  C_21
REMARK    8  A    between atoms: C_23  and  O_33
REMARK    9  A    between atoms: C_25  and  O_32
REMARK   10  A    between atoms: C_27  and  C_30
REMARK   11  A    between atoms: C_30  and  O_31
REMARK                            x       y       z     vdW  Elec       q    Type
REMARK                         _______ _______ _______ _____ _____    ______ ____
ROOT
ATOM      1  C   UNL     1       7.279  -0.791  25.453  0.00  0.00    +0.181 A 
ATOM      2  O   UNL     1       6.631  -1.901  26.000  0.00  0.00    -0.451 OA
ATOM      3  C   UNL     1       7.299  -3.094  26.088  0.00  0.00    +0.147 A 
ATOM      4  C   UNL     1       8.484  -3.323  25.409  0.00  0.00    +0.109 A 
ATOM      5  C   UNL     1       9.117  -4.573  25.532  0.00  0.00    +0.135 A 
ATOM      6  C   UNL     1       8.568  -5.580  26.327  0.00  0.00    +0.091 A 
ATOM      7  C   UNL     1       7.384  -5.334  27.005  0.00  0.00    +0.124 A 
ATOM      8  C   UNL     1       9.039  -2.224  24.598  0.00  0.00    +0.238 A 
ATOM      9  O   UNL     1      10.047  -2.429  23.924  0.00  0.00    -0.283 OA
ATOM     10  C   UNL     1       6.746  -4.099  26.896  0.00  0.00    +0.092 A 
ATOM     11  C   UNL     1       8.404  -0.860  24.689  0.00  0.00    +0.214 A 
ENDROOT
BRANCH   1  13
ATOM     12  C   UNL     1       5.317   0.699  25.782  0.00  0.00    +0.015 A 
ATOM     13  C   UNL     1       6.688   0.459  25.990  0.00  0.00    +0.025 A 
ATOM     14  C   UNL     1       7.472   1.508  26.512  0.00  0.00    +0.060 A 
ATOM     15  C   UNL     1       6.873   2.732  26.815  0.00  0.00    +0.159 A 
ATOM     16  C   UNL     1       5.506   2.940  26.617  0.00  0.00    +0.158 A 
ATOM     17  C   UNL     1       4.726   1.914  26.109  0.00  0.00    +0.050 A 
BRANCH  15  18
ATOM     18  O   UNL     1       7.635   3.770  27.278  0.00  0.00    -0.503 OA
ATOM     19  H   UNL     1       8.497   3.360  27.506  0.00  0.00    +0.292 HD
ENDBRANCH  15  18
BRANCH  16  20
ATOM     20  O   UNL     1       4.981   4.163  26.900  0.00  0.00    -0.503 OA
ATOM     21  H   UNL     1       5.700   4.751  27.188  0.00  0.00    +0.292 HD
ENDBRANCH  16  20
ENDBRANCH   1  13
BRANCH   5  22
ATOM     22  O   UNL     1      10.293  -4.879  24.903  0.00  0.00    -0.506 OA
ATOM     23  H   UNL     1      10.622  -5.732  25.261  0.00  0.00    +0.292 HD
ENDBRANCH   5  22
BRANCH   7  24
ATOM     24  O   UNL     1       6.821  -6.290  27.795  0.00  0.00    -0.507 OA
ATOM     25  H   UNL     1       7.053  -6.130  28.716  0.00  0.00    +0.292 HD
ENDBRANCH   7  24
BRANCH  11  26
ATOM     26  O   UNL     1       9.187   0.178  24.193  0.00  0.00    -0.453 OA
BRANCH  26  27
ATOM     27  C   UNL     1       8.990   0.734  22.880  0.00  0.00    +0.340 C 
ATOM     28  O   UNL     1       7.585   1.024  22.665  0.00  0.00    -0.331 OA
ATOM     29  C   UNL     1       7.315   2.374  23.108  0.00  0.00    +0.179 C 
ATOM     30  C   UNL     1       8.615   3.160  22.976  0.00  0.00    +0.180 C 
ATOM     31  C   UNL     1       9.701   2.099  22.756  0.00  0.00    +0.214 C 
BRANCH  30  32
ATOM     32  O   UNL     1       8.822   3.907  24.180  0.00  0.00    -0.386 OA
ATOM     33  H   UNL     1       9.636   4.434  24.090  0.00  0.00    +0.210 HD
ENDBRANCH  30  32
BRANCH  31  34
ATOM     34  O   UNL     1      10.291   2.301  21.460  0.00  0.00    -0.383 OA
ATOM     35  H   UNL     1      10.340   1.450  20.988  0.00  0.00    +0.210 HD
ENDBRANCH  31  34
BRANCH  29  36
ATOM     36  C   UNL     1       6.146   2.968  22.295  0.00  0.00    +0.190 C 
BRANCH  36  37
ATOM     37  O   UNL     1       6.404   4.324  21.911  0.00  0.00    -0.392 OA
ATOM     38  H   UNL     1       7.272   4.577  22.271  0.00  0.00    +0.210 HD
ENDBRANCH  36  37
ENDBRANCH  29  36
ENDBRANCH  26  27
ENDBRANCH  11  26
TORSDOF 11
ENDMDL
MODEL 6
REMARK VINA RESULT:      -6.8      2.738      7.086
REMARK  Name = 
REMARK  11 active torsions:
REMARK  status: ('A' for Active; 'I' for Inactive)
REMARK    1  A    between atoms: C_3  and  O_35
REMARK    2  A    between atoms: C_4  and  O_34
REMARK    3  A    between atoms: C_6  and  C_7
REMARK    4  A    between atoms: C_8  and  O_20
REMARK    5  A    between atoms: C_12  and  O_19
REMARK    6  A    between atoms: C_14  and  O_18
REMARK    7  A    between atoms: O_20  and  C_21
REMARK    8  A    between atoms: C_23  and  O_33
REMARK    9  A    between atoms: C_25  and  O_32
REMARK   10  A    between atoms: C_27  and  C_30
REMARK   11  A    between atoms: C_30  and  O_31
REMARK                            x       y       z     vdW  Elec       q    Type
REMARK                         _______ _______ _______ _____ _____    ______ ____
ROOT
ATOM      1  C   UNL     1       6.028  -0.738  25.333  0.00  0.00    +0.181 A 
ATOM      2  O   UNL     1       5.969  -1.790  26.251  0.00  0.00    -0.451 OA
ATOM      3  C   UNL     1       6.622  -2.963  25.975  0.00  0.00    +0.147 A 
ATOM      4  C   UNL     1       7.103  -3.253  24.709  0.00  0.00    +0.109 A 
ATOM      5  C   UNL     1       7.756  -4.478  24.486  0.00  0.00    +0.135 A 
ATOM      6  C   UNL     1       7.924  -5.400  25.520  0.00  0.00    +0.091 A 
ATOM      7  C   UNL     1       7.441  -5.093  26.783  0.00  0.00    +0.124 A 
ATOM      8  C   UNL     1       6.923  -2.241  23.652  0.00  0.00    +0.238 A 
ATOM      9  O   UNL     1       7.272  -2.508  22.504  0.00  0.00    -0.283 OA
ATOM     10  C   UNL     1       6.794  -3.881  27.021  0.00  0.00    +0.092 A 
ATOM     11  C   UNL     1       6.398  -0.880  24.031  0.00  0.00    +0.214 A 
ENDROOT
BRANCH   1  13
ATOM     12  C   UNL     1       4.843   1.435  25.550  0.00  0.00    +0.015 A 
ATOM     13  C   UNL     1       5.832   0.557  26.029  0.00  0.00    +0.025 A 
ATOM     14  C   UNL     1       6.724   1.035  27.011  0.00  0.00    +0.060 A 
ATOM     15  C   UNL     1       6.594   2.343  27.481  0.00  0.00    +0.159 A 
ATOM     16  C   UNL     1       5.592   3.190  27.003  0.00  0.00    +0.158 A 
ATOM     17  C   UNL     1       4.708   2.728  26.042  0.00  0.00    +0.050 A 
BRANCH  15  18
ATOM     18  O   UNL     1       7.484   2.830  28.400  0.00  0.00    -0.503 OA
ATOM     19  H   UNL     1       7.735   2.049  28.938  0.00  0.00    +0.292 HD
ENDBRANCH  15  18
BRANCH  16  20
ATOM     20  O   UNL     1       5.532   4.465  27.474  0.00  0.00    -0.503 OA
ATOM     21  H   UNL     1       6.246   4.983  27.063  0.00  0.00    +0.292 HD
ENDBRANCH  16  20
ENDBRANCH   1  13
BRANCH   5  22
ATOM     22  O   UNL     1       8.270  -4.840  23.270  0.00  0.00    -0.506 OA
ATOM     23  H   UNL     1       7.745  -4.395  22.569  0.00  0.00    +0.292 HD
ENDBRANCH   5  22
BRANCH   7  24
ATOM     24  O   UNL     1       7.591  -5.965  27.818  0.00  0.00    -0.507 OA
ATOM     25  H   UNL     1       8.522  -6.195  27.919  0.00  0.00    +0.292 HD
ENDBRANCH   7  24
BRANCH  11  26
ATOM     26  O   UNL     1       6.598   0.106  23.069  0.00  0.00    -0.453 OA
BRANCH  26  27
ATOM     27  C   UNL     1       7.683   1.049  23.143  0.00  0.00    +0.340 C 
ATOM     28  O   UNL     1       8.685   0.588  24.085  0.00  0.00    -0.331 OA
ATOM     29  C   UNL     1       9.648  -0.227  23.379  0.00  0.00    +0.179 C 
ATOM     30  C   UNL     1       9.662   0.246  21.929  0.00  0.00    +0.180 C 
ATOM     31  C   UNL     1       8.421   1.136  21.789  0.00  0.00    +0.214 C 
BRANCH  30  32
ATOM     32  O   UNL     1       9.607  -0.901  21.073  0.00  0.00    -0.386 OA
ATOM     33  H   UNL     1      10.378  -1.468  21.253  0.00  0.00    +0.210 HD
ENDBRANCH  30  32
BRANCH  31  34
ATOM     34  O   UNL     1       8.844   2.475  21.474  0.00  0.00    -0.383 OA
ATOM     35  H   UNL     1       9.617   2.441  20.881  0.00  0.00    +0.210 HD
ENDBRANCH  31  34
BRANCH  29  36
ATOM     36  C   UNL     1      11.021  -0.136  24.074  0.00  0.00    +0.190 C 
BRANCH  36  37
ATOM     37  O   UNL     1      10.968   0.686  25.246  0.00  0.00    -0.392 OA
ATOM     38  H   UNL     1      10.117   0.521  25.688  0.00  0.00    +0.210 HD
ENDBRANCH  36  37
ENDBRANCH  29  36
ENDBRANCH  26  27
ENDBRANCH  11  26
TORSDOF 11
ENDMDL
MODEL 7
REMARK VINA RESULT:      -6.8      1.880      2.599
REMARK  Name = 
REMARK  11 active torsions:
REMARK  status: ('A' for Active; 'I' for Inactive)
REMARK    1  A    between atoms: C_3  and  O_35
REMARK    2  A    between atoms: C_4  and  O_34
REMARK    3  A    between atoms: C_6  and  C_7
REMARK    4  A    between atoms: C_8  and  O_20
REMARK    5  A    between atoms: C_12  and  O_19
REMARK    6  A    between atoms: C_14  and  O_18
REMARK    7  A    between atoms: O_20  and  C_21
REMARK    8  A    between atoms: C_23  and  O_33
REMARK    9  A    between atoms: C_25  and  O_32
REMARK   10  A    between atoms: C_27  and  C_30
REMARK   11  A    between atoms: C_30  and  O_31
REMARK                            x       y       z     vdW  Elec       q    Type
REMARK                         _______ _______ _______ _____ _____    ______ ____
ROOT
ATOM      1  C   UNL     1       6.429  -1.673  23.586  0.00  0.00    +0.181 A 
ATOM      2  O   UNL     1       7.106  -0.916  22.625  0.00  0.00    -0.451 OA
ATOM      3  C   UNL     1       7.820   0.185  23.016  0.00  0.00    +0.147 A 
ATOM      4  C   UNL     1       7.675   0.744  24.276  0.00  0.00    +0.109 A 
ATOM      5  C   UNL     1       8.429   1.881  24.614  0.00  0.00    +0.135 A 
ATOM      6  C   UNL     1       9.318   2.451  23.701  0.00  0.00    +0.091 A 
ATOM      7  C   UNL     1       9.456   1.878  22.445  0.00  0.00    +0.124 A 
ATOM      8  C   UNL     1       6.742   0.097  25.215  0.00  0.00    +0.238 A 
ATOM      9  O   UNL     1       6.538   0.619  26.310  0.00  0.00    -0.283 OA
ATOM     10  C   UNL     1       8.717   0.747  22.096  0.00  0.00    +0.092 A 
ATOM     11  C   UNL     1       6.135  -1.230  24.839  0.00  0.00    +0.214 A 
ENDROOT
BRANCH   1  13
ATOM     12  C   UNL     1       7.321  -3.663  22.394  0.00  0.00    +0.015 A 
ATOM     13  C   UNL     1       6.268  -3.070  23.114  0.00  0.00    +0.025 A 
ATOM     14  C   UNL     1       5.036  -3.754  23.171  0.00  0.00    +0.060 A 
ATOM     15  C   UNL     1       4.904  -4.988  22.531  0.00  0.00    +0.159 A 
ATOM     16  C   UNL     1       5.971  -5.564  21.837  0.00  0.00    +0.158 A 
ATOM     17  C   UNL     1       7.186  -4.902  21.780  0.00  0.00    +0.050 A 
BRANCH  15  18
ATOM     18  O   UNL     1       3.699  -5.637  22.542  0.00  0.00    -0.503 OA
ATOM     19  H   UNL     1       3.853  -6.451  22.017  0.00  0.00    +0.292 HD
ENDBRANCH  15  18
BRANCH  16  20
ATOM     20  O   UNL     1       5.775  -6.754  21.206  0.00  0.00    -0.503 OA
ATOM     21  H   UNL     1       6.195  -7.457  21.731  0.00  0.00    +0.292 HD
ENDBRANCH  16  20
ENDBRANCH   1  13
BRANCH   5  22
ATOM     22  O   UNL     1       8.354   2.490  25.837  0.00  0.00    -0.506 OA
ATOM     23  H   UNL     1       9.160   2.256  26.348  0.00  0.00    +0.292 HD
ENDBRANCH   5  22
BRANCH   7  24
ATOM     24  O   UNL     1      10.316   2.402  21.530  0.00  0.00    -0.507 OA
ATOM     25  H   UNL     1       9.820   2.847  20.834  0.00  0.00    +0.292 HD
ENDBRANCH   7  24
BRANCH  11  26
ATOM     26  O   UNL     1       5.571  -1.931  25.901  0.00  0.00    -0.453 OA
BRANCH  26  27
ATOM     27  C   UNL     1       6.359  -2.467  26.979  0.00  0.00    +0.340 C 
ATOM     28  O   UNL     1       5.501  -3.110  27.956  0.00  0.00    -0.331 OA
ATOM     29  C   UNL     1       5.339  -4.500  27.590  0.00  0.00    +0.179 C 
ATOM     30  C   UNL     1       6.582  -4.908  26.807  0.00  0.00    +0.180 C 
ATOM     31  C   UNL     1       7.288  -3.589  26.467  0.00  0.00    +0.214 C 
BRANCH  30  32
ATOM     32  O   UNL     1       6.170  -5.621  25.635  0.00  0.00    -0.386 OA
ATOM     33  H   UNL     1       6.381  -5.086  24.849  0.00  0.00    +0.210 HD
ENDBRANCH  30  32
BRANCH  31  34
ATOM     34  O   UNL     1       8.578  -3.576  27.105  0.00  0.00    -0.383 OA
ATOM     35  H   UNL     1       8.502  -3.956  27.999  0.00  0.00    +0.210 HD
ENDBRANCH  31  34
BRANCH  29  36
ATOM     36  C   UNL     1       5.097  -5.349  28.855  0.00  0.00    +0.190 C 
BRANCH  36  37
ATOM     37  O   UNL     1       6.311  -5.581  29.577  0.00  0.00    -0.392 OA
ATOM     38  H   UNL     1       6.760  -4.725  29.691  0.00  0.00    +0.210 HD
ENDBRANCH  36  37
ENDBRANCH  29  36
ENDBRANCH  26  27
ENDBRANCH  11  26
TORSDOF 11
ENDMDL
MODEL 8
REMARK VINA RESULT:      -6.7      2.996      4.684
REMARK  Name = 
REMARK  11 active torsions:
REMARK  status: ('A' for Active; 'I' for Inactive)
REMARK    1  A    between atoms: C_3  and  O_35
REMARK    2  A    between atoms: C_4  and  O_34
REMARK    3  A    between atoms: C_6  and  C_7
REMARK    4  A    between atoms: C_8  and  O_20
REMARK    5  A    between atoms: C_12  and  O_19
REMARK    6  A    between atoms: C_14  and  O_18
REMARK    7  A    between atoms: O_20  and  C_21
REMARK    8  A    between atoms: C_23  and  O_33
REMARK    9  A    between atoms: C_25  and  O_32
REMARK   10  A    between atoms: C_27  and  C_30
REMARK   11  A    between atoms: C_30  and  O_31
REMARK                            x       y       z     vdW  Elec       q    Type
REMARK                         _______ _______ _______ _____ _____    ______ ____
ROOT
ATOM      1  C   UNL     1       7.988  -0.308  26.102  0.00  0.00    +0.181 A 
ATOM      2  O   UNL     1       7.879   0.796  25.251  0.00  0.00    -0.451 OA
ATOM      3  C   UNL     1       8.287   0.684  23.948  0.00  0.00    +0.147 A 
ATOM      4  C   UNL     1       9.057  -0.380  23.510  0.00  0.00    +0.109 A 
ATOM      5  C   UNL     1       9.453  -0.432  22.161  0.00  0.00    +0.135 A 
ATOM      6  C   UNL     1       9.080   0.569  21.264  0.00  0.00    +0.091 A 
ATOM      7  C   UNL     1       8.303   1.626  21.717  0.00  0.00    +0.124 A 
ATOM      8  C   UNL     1       9.410  -1.427  24.486  0.00  0.00    +0.238 A 
ATOM      9  O   UNL     1      10.157  -2.339  24.140  0.00  0.00    -0.283 OA
ATOM     10  C   UNL     1       7.900   1.691  23.051  0.00  0.00    +0.092 A 
ATOM     11  C   UNL     1       8.773  -1.392  25.852  0.00  0.00    +0.214 A 
ENDROOT
BRANCH   1  13
ATOM     12  C   UNL     1       5.748  -0.860  27.026  0.00  0.00    +0.015 A 
ATOM     13  C   UNL     1       6.986  -0.212  27.191  0.00  0.00    +0.025 A 
ATOM     14  C   UNL     1       7.134   0.664  28.287  0.00  0.00    +0.060 A 
ATOM     15  C   UNL     1       6.068   0.851  29.168  0.00  0.00    +0.159 A 
ATOM     16  C   UNL     1       4.855   0.182  28.992  0.00  0.00    +0.158 A 
ATOM     17  C   UNL     1       4.701  -0.684  27.923  0.00  0.00    +0.050 A 
BRANCH  15  18
ATOM     18  O   UNL     1       6.188   1.734  30.207  0.00  0.00    -0.503 OA
ATOM     19  H   UNL     1       6.266   1.168  31.004  0.00  0.00    +0.292 HD
ENDBRANCH  15  18
BRANCH  16  20
ATOM     20  O   UNL     1       3.839   0.427  29.865  0.00  0.00    -0.503 OA
ATOM     21  H   UNL     1       3.666   1.383  29.879  0.00  0.00    +0.292 HD
ENDBRANCH  16  20
ENDBRANCH   1  13
BRANCH   5  22
ATOM     22  O   UNL     1      10.206  -1.452  21.644  0.00  0.00    -0.506 OA
ATOM     23  H   UNL     1      10.157  -2.215  22.260  0.00  0.00    +0.292 HD
ENDBRANCH   5  22
BRANCH   7  24
ATOM     24  O   UNL     1       7.915   2.619  20.871  0.00  0.00    -0.507 OA
ATOM     25  H   UNL     1       8.688   3.105  20.562  0.00  0.00    +0.292 HD
ENDBRANCH   7  24
BRANCH  11  26
ATOM     26  O   UNL     1       8.870  -2.582  26.567  0.00  0.00    -0.453 OA
BRANCH  26  27
ATOM     27  C   UNL     1       7.830  -3.576  26.558  0.00  0.00    +0.340 C 
ATOM     28  O   UNL     1       7.166  -3.595  25.268  0.00  0.00    -0.331 OA
ATOM     29  C   UNL     1       7.853  -4.531  24.405  0.00  0.00    +0.179 C 
ATOM     30  C   UNL     1       8.505  -5.577  25.303  0.00  0.00    +0.180 C 
ATOM     31  C   UNL     1       8.428  -4.990  26.718  0.00  0.00    +0.214 C 
BRANCH  30  32
ATOM     32  O   UNL     1       9.855  -5.774  24.869  0.00  0.00    -0.386 OA
ATOM     33  H   UNL     1      10.459  -5.545  25.598  0.00  0.00    +0.210 HD
ENDBRANCH  30  32
BRANCH  31  34
ATOM     34  O   UNL     1       7.610  -5.849  27.532  0.00  0.00    -0.383 OA
ATOM     35  H   UNL     1       7.927  -5.824  28.453  0.00  0.00    +0.210 HD
ENDBRANCH  31  34
BRANCH  29  36
ATOM     36  C   UNL     1       6.863  -5.122  23.381  0.00  0.00    +0.190 C 
BRANCH  36  37
ATOM     37  O   UNL     1       7.528  -5.954  22.423  0.00  0.00    -0.392 OA
ATOM     38  H   UNL     1       7.267  -6.875  22.594  0.00  0.00    +0.210 HD
ENDBRANCH  36  37
ENDBRANCH  29  36
ENDBRANCH  26  27
ENDBRANCH  11  26
TORSDOF 11
ENDMDL
MODEL 9
REMARK VINA RESULT:      -6.6      2.756      3.787
REMARK  Name = 
REMARK  11 active torsions:
REMARK  status: ('A' for Active; 'I' for Inactive)
REMARK    1  A    between atoms: C_3  and  O_35
REMARK    2  A    between atoms: C_4  and  O_34
REMARK    3  A    between atoms: C_6  and  C_7
REMARK    4  A    between atoms: C_8  and  O_20
REMARK    5  A    between atoms: C_12  and  O_19
REMARK    6  A    between atoms: C_14  and  O_18
REMARK    7  A    between atoms: O_20  and  C_21
REMARK    8  A    between atoms: C_23  and  O_33
REMARK    9  A    between atoms: C_25  and  O_32
REMARK   10  A    between atoms: C_27  and  C_30
REMARK   11  A    between atoms: C_30  and  O_31
REMARK                            x       y       z     vdW  Elec       q    Type
REMARK                         _______ _______ _______ _____ _____    ______ ____
ROOT
ATOM      1  C   UNL     1       5.511  -3.019  24.498  0.00  0.00    +0.181 A 
ATOM      2  O   UNL     1       6.185  -2.534  23.374  0.00  0.00    -0.451 OA
ATOM      3  C   UNL     1       7.381  -1.886  23.534  0.00  0.00    +0.147 A 
ATOM      4  C   UNL     1       7.816  -1.444  24.773  0.00  0.00    +0.109 A 
ATOM      5  C   UNL     1       9.049  -0.776  24.870  0.00  0.00    +0.135 A 
ATOM      6  C   UNL     1       9.836  -0.553  23.739  0.00  0.00    +0.091 A 
ATOM      7  C   UNL     1       9.390  -1.006  22.507  0.00  0.00    +0.124 A 
ATOM      8  C   UNL     1       6.963  -1.720  25.943  0.00  0.00    +0.238 A 
ATOM      9  O   UNL     1       7.290  -1.270  27.040  0.00  0.00    -0.283 OA
ATOM     10  C   UNL     1       8.170  -1.673  22.394  0.00  0.00    +0.092 A 
ATOM     11  C   UNL     1       5.764  -2.618  25.774  0.00  0.00    +0.214 A 
ENDROOT
BRANCH   1  13
ATOM     12  C   UNL     1       5.184  -5.178  23.310  0.00  0.00    +0.015 A 
ATOM     13  C   UNL     1       4.644  -4.161  24.119  0.00  0.00    +0.025 A 
ATOM     14  C   UNL     1       3.253  -4.171  24.355  0.00  0.00    +0.060 A 
ATOM     15  C   UNL     1       2.467  -5.181  23.798  0.00  0.00    +0.159 A 
ATOM     16  C   UNL     1       3.030  -6.190  23.013  0.00  0.00    +0.158 A 
ATOM     17  C   UNL     1       4.395  -6.192  22.780  0.00  0.00    +0.050 A 
BRANCH  15  18
ATOM     18  O   UNL     1       1.111  -5.171  23.984  0.00  0.00    -0.503 OA
ATOM     19  H   UNL     1       0.979  -4.656  24.807  0.00  0.00    +0.292 HD
ENDBRANCH  15  18
BRANCH  16  20
ATOM     20  O   UNL     1       2.211  -7.131  22.470  0.00  0.00    -0.503 OA
ATOM     21  H   UNL     1       2.337  -7.967  22.950  0.00  0.00    +0.292 HD
ENDBRANCH  16  20
ENDBRANCH   1  13
BRANCH   5  22
ATOM     22  O   UNL     1       9.557  -0.316  26.055  0.00  0.00    -0.506 OA
ATOM     23  H   UNL     1       9.160   0.563  26.240  0.00  0.00    +0.292 HD
ENDBRANCH   5  22
BRANCH   7  24
ATOM     24  O   UNL     1      10.132  -0.813  21.382  0.00  0.00    -0.507 OA
ATOM     25  H   UNL     1      10.895  -1.401  21.390  0.00  0.00    +0.292 HD
ENDBRANCH   7  24
BRANCH  11  26
ATOM     26  O   UNL     1       5.238  -3.111  26.964  0.00  0.00    -0.453 OA
BRANCH  26  27
ATOM     27  C   UNL     1       5.979  -3.986  27.833  0.00  0.00    +0.340 C 
ATOM     28  O   UNL     1       5.138  -4.438  28.926  0.00  0.00    -0.331 OA
ATOM     29  C   UNL     1       4.470  -5.656  28.526  0.00  0.00    +0.179 C 
ATOM     30  C   UNL     1       5.358  -6.338  27.490  0.00  0.00    +0.180 C 
ATOM     31  C   UNL     1       6.388  -5.274  27.088  0.00  0.00    +0.214 C 
BRANCH  30  32
ATOM     32  O   UNL     1       4.542  -6.747  26.387  0.00  0.00    -0.386 OA
ATOM     33  H   UNL     1       3.908  -6.038  26.181  0.00  0.00    +0.210 HD
ENDBRANCH  30  32
BRANCH  31  34
ATOM     34  O   UNL     1       7.700  -5.736  27.457  0.00  0.00    -0.383 OA
ATOM     35  H   UNL     1       8.334  -5.512  26.753  0.00  0.00    +0.210 HD
ENDBRANCH  31  34
BRANCH  29  36
ATOM     36  C   UNL     1       4.183  -6.527  29.765  0.00  0.00    +0.190 C 
BRANCH  36  37
ATOM     37  O   UNL     1       3.603  -7.786  29.404  0.00  0.00    -0.392 OA
ATOM     38  H   UNL     1       2.647  -7.735  29.574  0.00  0.00    +0.210 HD
ENDBRANCH  36  37
ENDBRANCH  29  36
ENDBRANCH  26  27
ENDBRANCH  11  26
TORSDOF 11
ENDMDL
