MODEL 1
REMARK VINA RESULT:      -7.4      0.000      0.000
REMARK  Name = 
REMARK  16 active torsions:
REMARK  status: ('A' for Active; 'I' for Inactive)
REMARK    1  A    between atoms: C_2  and  O_47
REMARK    2  A    between atoms: C_4  and  O_46
REMARK    3  A    between atoms: C_6  and  O_45
REMARK    4  A    between atoms: C_7  and  O_10
REMARK    5  A    between atoms: O_10  and  C_11
REMARK    6  A    between atoms: C_11  and  C_12
REMARK    7  A    between atoms: C_13  and  O_44
REMARK    8  A    between atoms: C_15  and  O_43
REMARK    9  A    between atoms: C_16  and  O_42
REMARK   10  A    between atoms: C_17  and  O_20
REMARK   11  A    between atoms: O_20  and  C_21
REMARK   12  A    between atoms: C_22  and  C_34
REMARK   13  A    between atoms: C_26  and  O_33
REMARK   14  A    between atoms: C_28  and  O_32
REMARK   15  A    between atoms: C_36  and  O_41
REMARK   16  A    between atoms: C_37  and  O_40
REMARK                            x       y       z     vdW  Elec       q    Type
REMARK                         _______ _______ _______ _____ _____    ______ ____
ROOT
ATOM      1  C   UNL     1       9.712  -0.578  22.398  0.00  0.00    +0.179 C 
ATOM      2  O   UNL     1      10.008  -0.735  23.823  0.00  0.00    -0.331 OA
ATOM      3  C   UNL     1       8.853  -0.385  24.626  0.00  0.00    +0.340 C 
ATOM      4  C   UNL     1       8.634   1.131  24.504  0.00  0.00    +0.214 C 
ATOM      5  C   UNL     1       8.342   1.481  23.036  0.00  0.00    +0.180 C 
ATOM      6  C   UNL     1       9.430   0.910  22.099  0.00  0.00    +0.177 C 
ENDROOT
BRANCH   6   7
ATOM      7  O   UNL     1       9.068   1.110  20.735  0.00  0.00    -0.386 OA
ATOM      8  H   UNL     1       8.458   0.396  20.481  0.00  0.00    +0.210 HD
ENDBRANCH   6   7
BRANCH   5   9
ATOM      9  O   UNL     1       8.289   2.913  22.906  0.00  0.00    -0.386 OA
ATOM     10  H   UNL     1       8.901   3.264  23.584  0.00  0.00    +0.210 HD
ENDBRANCH   5   9
BRANCH   4  11
ATOM     11  O   UNL     1       9.819   1.867  24.898  0.00  0.00    -0.383 OA
ATOM     12  H   UNL     1       9.975   1.664  25.842  0.00  0.00    +0.210 HD
ENDBRANCH   4  11
BRANCH   3  13
ATOM     13  O   UNL     1       9.012  -0.787  25.995  0.00  0.00    -0.453 OA
BRANCH  13  14
ATOM     14  C   UNL     1       7.993  -1.628  26.469  0.00  0.00    +0.214 A 
ATOM     15  C   UNL     1       8.123  -3.125  26.360  0.00  0.00    +0.238 A 
ATOM     16  O   UNL     1       9.068  -3.634  25.767  0.00  0.00    -0.283 OA
ATOM     17  C   UNL     1       7.077  -3.960  26.973  0.00  0.00    +0.109 A 
ATOM     18  C   UNL     1       5.936  -3.317  27.434  0.00  0.00    +0.147 A 
ATOM     19  C   UNL     1       4.858  -4.063  27.919  0.00  0.00    +0.092 A 
ATOM     20  C   UNL     1       4.946  -5.453  27.953  0.00  0.00    +0.124 A 
ATOM     21  C   UNL     1       6.100  -6.107  27.539  0.00  0.00    +0.091 A 
ATOM     22  O   UNL     1       5.795  -1.954  27.432  0.00  0.00    -0.451 OA
ATOM     23  C   UNL     1       7.169  -5.359  27.053  0.00  0.00    +0.135 A 
ATOM     24  C   UNL     1       6.840  -1.145  26.984  0.00  0.00    +0.181 A 
BRANCH  24  25
ATOM     25  C   UNL     1       6.513   0.310  27.103  0.00  0.00    +0.025 A 
ATOM     26  C   UNL     1       5.471   0.849  26.317  0.00  0.00    +0.015 A 
ATOM     27  C   UNL     1       5.106   2.197  26.408  0.00  0.00    +0.050 A 
ATOM     28  C   UNL     1       5.788   3.024  27.281  0.00  0.00    +0.158 A 
ATOM     29  C   UNL     1       6.818   2.524  28.066  0.00  0.00    +0.159 A 
ATOM     30  C   UNL     1       7.171   1.177  27.998  0.00  0.00    +0.060 A 
BRANCH  29  31
ATOM     31  O   UNL     1       7.465   3.400  28.897  0.00  0.00    -0.503 OA
ATOM     32  H   UNL     1       7.409   3.055  29.805  0.00  0.00    +0.292 HD
ENDBRANCH  29  31
BRANCH  28  33
ATOM     33  O   UNL     1       5.438   4.341  27.369  0.00  0.00    -0.503 OA
ATOM     34  H   UNL     1       5.618   4.704  26.479  0.00  0.00    +0.292 HD
ENDBRANCH  28  33
ENDBRANCH  24  25
BRANCH  23  35
ATOM     35  O   UNL     1       8.304  -6.017  26.686  0.00  0.00    -0.506 OA
ATOM     36  H   UNL     1       8.564  -6.652  27.367  0.00  0.00    +0.292 HD
ENDBRANCH  23  35
BRANCH  20  37
ATOM     37  O   UNL     1       3.914  -6.230  28.391  0.00  0.00    -0.507 OA
ATOM     38  H   UNL     1       3.399  -5.742  29.055  0.00  0.00    +0.292 HD
ENDBRANCH  20  37
ENDBRANCH  13  14
ENDBRANCH   3  13
BRANCH   1  39
ATOM     39  C   UNL     1       8.597  -1.571  21.995  0.00  0.00    +0.197 C 
BRANCH  39  40
ATOM     40  O   UNL     1       8.567  -2.849  22.629  0.00  0.00    -0.346 OA
BRANCH  40  43
ATOM     41  C   UNL     1       5.019  -3.530  22.993  0.00  0.00    +0.197 C 
ATOM     42  O   UNL     1       6.332  -3.031  23.248  0.00  0.00    -0.346 OA
ATOM     43  C   UNL     1       7.305  -3.466  22.292  0.00  0.00    +0.281 C 
ATOM     44  C   UNL     1       7.434  -4.999  22.324  0.00  0.00    +0.201 C 
ATOM     45  C   UNL     1       6.045  -5.588  22.002  0.00  0.00    +0.178 C 
ATOM     46  C   UNL     1       4.988  -5.057  22.985  0.00  0.00    +0.171 C 
BRANCH  46  47
ATOM     47  O   UNL     1       5.236  -5.565  24.302  0.00  0.00    -0.387 OA
ATOM     48  H   UNL     1       6.176  -5.860  24.318  0.00  0.00    +0.210 HD
ENDBRANCH  46  47
BRANCH  45  49
ATOM     49  O   UNL     1       6.068  -7.017  21.979  0.00  0.00    -0.386 OA
ATOM     50  H   UNL     1       6.713  -7.289  21.298  0.00  0.00    +0.210 HD
ENDBRANCH  45  49
BRANCH  44  51
ATOM     51  O   UNL     1       7.864  -5.393  23.645  0.00  0.00    -0.384 OA
ATOM     52  H   UNL     1       7.198  -4.997  24.246  0.00  0.00    +0.210 HD
ENDBRANCH  44  51
ENDBRANCH  40  43
ENDBRANCH  39  40
ENDBRANCH   1  39
TORSDOF 16
ENDMDL
MODEL 2
REMARK VINA RESULT:      -7.2      2.540      7.627
REMARK  Name = 
REMARK  16 active torsions:
REMARK  status: ('A' for Active; 'I' for Inactive)
REMARK    1  A    between atoms: C_2  and  O_47
REMARK    2  A    between atoms: C_4  and  O_46
REMARK    3  A    between atoms: C_6  and  O_45
REMARK    4  A    between atoms: C_7  and  O_10
REMARK    5  A    between atoms: O_10  and  C_11
REMARK    6  A    between atoms: C_11  and  C_12
REMARK    7  A    between atoms: C_13  and  O_44
REMARK    8  A    between atoms: C_15  and  O_43
REMARK    9  A    between atoms: C_16  and  O_42
REMARK   10  A    between atoms: C_17  and  O_20
REMARK   11  A    between atoms: O_20  and  C_21
REMARK   12  A    between atoms: C_22  and  C_34
REMARK   13  A    between atoms: C_26  and  O_33
REMARK   14  A    between atoms: C_28  and  O_32
REMARK   15  A    between atoms: C_36  and  O_41
REMARK   16  A    between atoms: C_37  and  O_40
REMARK                            x       y       z     vdW  Elec       q    Type
REMARK                         _______ _______ _______ _____ _____    ______ ____
ROOT
ATOM      1  C   UNL     1       4.954   0.644  26.563  0.00  0.00    +0.179 C 
ATOM      2  O   UNL     1       5.187   1.576  25.459  0.00  0.00    -0.331 OA
ATOM      3  C   UNL     1       6.607   1.740  25.219  0.00  0.00    +0.340 C 
ATOM      4  C   UNL     1       7.205   2.496  26.416  0.00  0.00    +0.214 C 
ATOM      5  C   UNL     1       7.010   1.657  27.690  0.00  0.00    +0.180 C 
ATOM      6  C   UNL     1       5.532   1.242  27.864  0.00  0.00    +0.177 C 
ENDROOT
BRANCH   6   7
ATOM      7  O   UNL     1       5.393   0.342  28.960  0.00  0.00    -0.386 OA
ATOM      8  H   UNL     1       4.642  -0.246  28.769  0.00  0.00    +0.210 HD
ENDBRANCH   6   7
BRANCH   5   9
ATOM      9  O   UNL     1       7.435   2.435  28.822  0.00  0.00    -0.386 OA
ATOM     10  H   UNL     1       7.435   3.366  28.520  0.00  0.00    +0.210 HD
ENDBRANCH   5   9
BRANCH   4  11
ATOM     11  O   UNL     1       6.535   3.764  26.625  0.00  0.00    -0.383 OA
ATOM     12  H   UNL     1       7.077   4.266  27.265  0.00  0.00    +0.210 HD
ENDBRANCH   4  11
BRANCH   3  13
ATOM     13  O   UNL     1       6.866   2.421  23.982  0.00  0.00    -0.453 OA
BRANCH  13  14
ATOM     14  C   UNL     1       8.211   2.772  23.790  0.00  0.00    +0.214 A 
ATOM     15  C   UNL     1       8.655   4.206  23.921  0.00  0.00    +0.238 A 
ATOM     16  O   UNL     1       7.838   5.105  24.095  0.00  0.00    -0.283 OA
ATOM     17  C   UNL     1      10.093   4.501  23.821  0.00  0.00    +0.109 A 
ATOM     18  C   UNL     1      10.928   3.470  23.410  0.00  0.00    +0.147 A 
ATOM     19  C   UNL     1      12.285   3.716  23.183  0.00  0.00    +0.092 A 
ATOM     20  C   UNL     1      12.795   4.996  23.389  0.00  0.00    +0.124 A 
ATOM     21  C   UNL     1      11.980   6.025  23.844  0.00  0.00    +0.091 A 
ATOM     22  O   UNL     1      10.486   2.190  23.198  0.00  0.00    -0.451 OA
ATOM     23  C   UNL     1      10.628   5.776  24.065  0.00  0.00    +0.135 A 
ATOM     24  C   UNL     1       9.149   1.866  23.429  0.00  0.00    +0.181 A 
BRANCH  24  25
ATOM     25  C   UNL     1       8.873   0.417  23.188  0.00  0.00    +0.025 A 
ATOM     26  C   UNL     1       7.805   0.050  22.340  0.00  0.00    +0.015 A 
ATOM     27  C   UNL     1       7.518  -1.291  22.059  0.00  0.00    +0.050 A 
ATOM     28  C   UNL     1       8.294  -2.282  22.631  0.00  0.00    +0.158 A 
ATOM     29  C   UNL     1       9.352  -1.953  23.470  0.00  0.00    +0.159 A 
ATOM     30  C   UNL     1       9.657  -0.618  23.736  0.00  0.00    +0.060 A 
BRANCH  29  31
ATOM     31  O   UNL     1      10.069  -2.982  24.020  0.00  0.00    -0.503 OA
ATOM     32  H   UNL     1       9.481  -3.754  24.098  0.00  0.00    +0.292 HD
ENDBRANCH  29  31
BRANCH  28  33
ATOM     33  O   UNL     1       8.016  -3.591  22.363  0.00  0.00    -0.503 OA
ATOM     34  H   UNL     1       8.767  -4.087  22.746  0.00  0.00    +0.292 HD
ENDBRANCH  28  33
ENDBRANCH  24  25
BRANCH  23  35
ATOM     35  O   UNL     1       9.855   6.788  24.547  0.00  0.00    -0.506 OA
ATOM     36  H   UNL     1      10.380   7.592  24.663  0.00  0.00    +0.292 HD
ENDBRANCH  23  35
BRANCH  20  37
ATOM     37  O   UNL     1      14.104   5.296  23.155  0.00  0.00    -0.507 OA
ATOM     38  H   UNL     1      14.670   4.761  23.736  0.00  0.00    +0.292 HD
ENDBRANCH  20  37
ENDBRANCH  13  14
ENDBRANCH   3  13
BRANCH   1  39
ATOM     39  C   UNL     1       5.483  -0.756  26.169  0.00  0.00    +0.197 C 
BRANCH  39  40
ATOM     40  O   UNL     1       5.963  -1.613  27.205  0.00  0.00    -0.346 OA
BRANCH  40  43
ATOM     41  C   UNL     1       5.617  -5.214  27.511  0.00  0.00    +0.197 C 
ATOM     42  O   UNL     1       5.779  -3.839  27.855  0.00  0.00    -0.346 OA
ATOM     43  C   UNL     1       5.860  -2.970  26.720  0.00  0.00    +0.281 C 
ATOM     44  C   UNL     1       7.087  -3.327  25.864  0.00  0.00    +0.201 C 
ATOM     45  C   UNL     1       6.933  -4.796  25.421  0.00  0.00    +0.178 C 
ATOM     46  C   UNL     1       6.769  -5.717  26.643  0.00  0.00    +0.171 C 
BRANCH  46  47
ATOM     47  O   UNL     1       7.984  -5.754  27.403  0.00  0.00    -0.387 OA
ATOM     48  H   UNL     1       7.821  -5.225  28.219  0.00  0.00    +0.210 HD
ENDBRANCH  46  47
BRANCH  45  49
ATOM     49  O   UNL     1       8.017  -5.216  24.591  0.00  0.00    -0.386 OA
ATOM     50  H   UNL     1       8.838  -5.131  25.113  0.00  0.00    +0.210 HD
ENDBRANCH  45  49
BRANCH  44  51
ATOM     51  O   UNL     1       8.272  -3.156  26.671  0.00  0.00    -0.384 OA
ATOM     52  H   UNL     1       8.472  -4.057  27.004  0.00  0.00    +0.210 HD
ENDBRANCH  44  51
ENDBRANCH  40  43
ENDBRANCH  39  40
ENDBRANCH   1  39
TORSDOF 16
ENDMDL
MODEL 3
REMARK VINA RESULT:      -7.2      2.528      7.354
REMARK  Name = 
REMARK  16 active torsions:
REMARK  status: ('A' for Active; 'I' for Inactive)
REMARK    1  A    between atoms: C_2  and  O_47
REMARK    2  A    between atoms: C_4  and  O_46
REMARK    3  A    between atoms: C_6  and  O_45
REMARK    4  A    between atoms: C_7  and  O_10
REMARK    5  A    between atoms: O_10  and  C_11
REMARK    6  A    between atoms: C_11  and  C_12
REMARK    7  A    between atoms: C_13  and  O_44
REMARK    8  A    between atoms: C_15  and  O_43
REMARK    9  A    between atoms: C_16  and  O_42
REMARK   10  A    between atoms: C_17  and  O_20
REMARK   11  A    between atoms: O_20  and  C_21
REMARK   12  A    between atoms: C_22  and  C_34
REMARK   13  A    between atoms: C_26  and  O_33
REMARK   14  A    between atoms: C_28  and  O_32
REMARK   15  A    between atoms: C_36  and  O_41
REMARK   16  A    between atoms: C_37  and  O_40
REMARK                            x       y       z     vdW  Elec       q    Type
REMARK                         _______ _______ _______ _____ _____    ______ ____
ROOT
ATOM      1  C   UNL     1       4.875   0.131  26.208  0.00  0.00    +0.179 C 
ATOM      2  O   UNL     1       5.106   1.139  25.171  0.00  0.00    -0.331 OA
ATOM      3  C   UNL     1       6.524   1.394  25.014  0.00  0.00    +0.340 C 
ATOM      4  C   UNL     1       7.019   2.110  26.281  0.00  0.00    +0.214 C 
ATOM      5  C   UNL     1       6.812   1.188  27.494  0.00  0.00    +0.180 C 
ATOM      6  C   UNL     1       5.354   0.683  27.568  0.00  0.00    +0.177 C 
ENDROOT
BRANCH   6   7
ATOM      7  O   UNL     1       5.215  -0.286  28.604  0.00  0.00    -0.386 OA
ATOM      8  H   UNL     1       4.803   0.152  29.368  0.00  0.00    +0.210 HD
ENDBRANCH   6   7
BRANCH   5   9
ATOM      9  O   UNL     1       7.136   1.920  28.689  0.00  0.00    -0.386 OA
ATOM     10  H   UNL     1       7.957   2.413  28.485  0.00  0.00    +0.210 HD
ENDBRANCH   5   9
BRANCH   4  11
ATOM     11  O   UNL     1       6.268   3.325  26.526  0.00  0.00    -0.383 OA
ATOM     12  H   UNL     1       6.179   3.410  27.495  0.00  0.00    +0.210 HD
ENDBRANCH   4  11
BRANCH   3  13
ATOM     13  O   UNL     1       6.802   2.159  23.832  0.00  0.00    -0.453 OA
BRANCH  13  14
ATOM     14  C   UNL     1       8.144   2.548  23.703  0.00  0.00    +0.214 A 
ATOM     15  C   UNL     1       8.521   4.007  23.690  0.00  0.00    +0.238 A 
ATOM     16  O   UNL     1       7.659   4.881  23.689  0.00  0.00    -0.283 OA
ATOM     17  C   UNL     1       9.951   4.356  23.665  0.00  0.00    +0.109 A 
ATOM     18  C   UNL     1      10.855   3.324  23.449  0.00  0.00    +0.147 A 
ATOM     19  C   UNL     1      12.216   3.605  23.297  0.00  0.00    +0.092 A 
ATOM     20  C   UNL     1      12.658   4.924  23.384  0.00  0.00    +0.124 A 
ATOM     21  C   UNL     1      11.771   5.960  23.645  0.00  0.00    +0.091 A 
ATOM     22  O   UNL     1      10.480   2.009  23.363  0.00  0.00    -0.451 OA
ATOM     23  C   UNL     1      10.415   5.675  23.791  0.00  0.00    +0.135 A 
ATOM     24  C   UNL     1       9.142   1.652  23.528  0.00  0.00    +0.181 A 
BRANCH  24  25
ATOM     25  C   UNL     1       8.942   0.172  23.446  0.00  0.00    +0.025 A 
ATOM     26  C   UNL     1       8.650  -0.415  22.195  0.00  0.00    +0.015 A 
ATOM     27  C   UNL     1       8.479  -1.797  22.057  0.00  0.00    +0.050 A 
ATOM     28  C   UNL     1       8.589  -2.607  23.172  0.00  0.00    +0.158 A 
ATOM     29  C   UNL     1       8.874  -2.059  24.416  0.00  0.00    +0.159 A 
ATOM     30  C   UNL     1       9.069  -0.685  24.557  0.00  0.00    +0.060 A 
BRANCH  29  31
ATOM     31  O   UNL     1       8.952  -2.914  25.483  0.00  0.00    -0.503 OA
ATOM     32  H   UNL     1       9.543  -2.518  26.146  0.00  0.00    +0.292 HD
ENDBRANCH  29  31
BRANCH  28  33
ATOM     33  O   UNL     1       8.419  -3.955  23.042  0.00  0.00    -0.503 OA
ATOM     34  H   UNL     1       7.996  -4.067  22.167  0.00  0.00    +0.292 HD
ENDBRANCH  28  33
ENDBRANCH  24  25
BRANCH  23  35
ATOM     35  O   UNL     1       9.568   6.700  24.084  0.00  0.00    -0.506 OA
ATOM     36  H   UNL     1       9.799   7.101  24.933  0.00  0.00    +0.292 HD
ENDBRANCH  23  35
BRANCH  20  37
ATOM     37  O   UNL     1      13.970   5.256  23.216  0.00  0.00    -0.507 OA
ATOM     38  H   UNL     1      14.060   5.853  22.455  0.00  0.00    +0.292 HD
ENDBRANCH  20  37
ENDBRANCH  13  14
ENDBRANCH   3  13
BRANCH   1  39
ATOM     39  C   UNL     1       5.502  -1.211  25.765  0.00  0.00    +0.197 C 
BRANCH  39  40
ATOM     40  O   UNL     1       5.106  -1.761  24.509  0.00  0.00    -0.346 OA
BRANCH  40  43
ATOM     41  C   UNL     1       6.007  -5.171  25.372  0.00  0.00    +0.197 C 
ATOM     42  O   UNL     1       6.114  -3.777  25.086  0.00  0.00    -0.346 OA
ATOM     43  C   UNL     1       4.871  -3.172  24.714  0.00  0.00    +0.281 C 
ATOM     44  C   UNL     1       4.331  -3.816  23.425  0.00  0.00    +0.201 C 
ATOM     45  C   UNL     1       4.148  -5.323  23.701  0.00  0.00    +0.178 C 
ATOM     46  C   UNL     1       5.469  -5.952  24.175  0.00  0.00    +0.171 C 
BRANCH  46  47
ATOM     47  O   UNL     1       6.428  -5.953  23.111  0.00  0.00    -0.387 OA
ATOM     48  H   UNL     1       5.955  -5.641  22.305  0.00  0.00    +0.210 HD
ENDBRANCH  46  47
BRANCH  45  49
ATOM     49  O   UNL     1       3.618  -6.009  22.565  0.00  0.00    -0.386 OA
ATOM     50  H   UNL     1       3.239  -5.337  21.967  0.00  0.00    +0.210 HD
ENDBRANCH  45  49
BRANCH  44  51
ATOM     51  O   UNL     1       5.292  -3.602  22.370  0.00  0.00    -0.384 OA
ATOM     52  H   UNL     1       4.972  -2.797  21.908  0.00  0.00    +0.210 HD
ENDBRANCH  44  51
ENDBRANCH  40  43
ENDBRANCH  39  40
ENDBRANCH   1  39
TORSDOF 16
ENDMDL
MODEL 4
REMARK VINA RESULT:      -7.0      2.271      7.424
REMARK  Name = 
REMARK  16 active torsions:
REMARK  status: ('A' for Active; 'I' for Inactive)
REMARK    1  A    between atoms: C_2  and  O_47
REMARK    2  A    between atoms: C_4  and  O_46
REMARK    3  A    between atoms: C_6  and  O_45
REMARK    4  A    between atoms: C_7  and  O_10
REMARK    5  A    between atoms: O_10  and  C_11
REMARK    6  A    between atoms: C_11  and  C_12
REMARK    7  A    between atoms: C_13  and  O_44
REMARK    8  A    between atoms: C_15  and  O_43
REMARK    9  A    between atoms: C_16  and  O_42
REMARK   10  A    between atoms: C_17  and  O_20
REMARK   11  A    between atoms: O_20  and  C_21
REMARK   12  A    between atoms: C_22  and  C_34
REMARK   13  A    between atoms: C_26  and  O_33
REMARK   14  A    between atoms: C_28  and  O_32
REMARK   15  A    between atoms: C_36  and  O_41
REMARK   16  A    between atoms: C_37  and  O_40
REMARK                            x       y       z     vdW  Elec       q    Type
REMARK                         _______ _______ _______ _____ _____    ______ ____
ROOT
ATOM      1  C   UNL     1       5.140  -1.487  26.538  0.00  0.00    +0.179 C 
ATOM      2  O   UNL     1       5.148  -0.835  25.227  0.00  0.00    -0.331 OA
ATOM      3  C   UNL     1       5.891   0.409  25.280  0.00  0.00    +0.340 C 
ATOM      4  C   UNL     1       5.088   1.403  26.134  0.00  0.00    +0.214 C 
ATOM      5  C   UNL     1       4.952   0.846  27.561  0.00  0.00    +0.180 C 
ATOM      6  C   UNL     1       4.388  -0.592  27.547  0.00  0.00    +0.177 C 
ENDROOT
BRANCH   6   7
ATOM      7  O   UNL     1       4.410  -1.149  28.858  0.00  0.00    -0.386 OA
ATOM      8  H   UNL     1       4.803  -2.037  28.798  0.00  0.00    +0.210 HD
ENDBRANCH   6   7
BRANCH   5   9
ATOM      9  O   UNL     1       4.076   1.706  28.309  0.00  0.00    -0.386 OA
ATOM     10  H   UNL     1       3.969   2.514  27.766  0.00  0.00    +0.210 HD
ENDBRANCH   5   9
BRANCH   4  11
ATOM     11  O   UNL     1       3.749   1.586  25.610  0.00  0.00    -0.383 OA
ATOM     12  H   UNL     1       3.301   2.222  26.201  0.00  0.00    +0.210 HD
ENDBRANCH   4  11
BRANCH   3  13
ATOM     13  O   UNL     1       6.153   0.931  23.968  0.00  0.00    -0.453 OA
BRANCH  13  14
ATOM     14  C   UNL     1       7.429   1.495  23.819  0.00  0.00    +0.214 A 
ATOM     15  C   UNL     1       7.602   2.990  23.752  0.00  0.00    +0.238 A 
ATOM     16  O   UNL     1       6.629   3.737  23.722  0.00  0.00    -0.283 OA
ATOM     17  C   UNL     1       8.971   3.530  23.709  0.00  0.00    +0.109 A 
ATOM     18  C   UNL     1      10.008   2.624  23.527  0.00  0.00    +0.147 A 
ATOM     19  C   UNL     1      11.318   3.083  23.360  0.00  0.00    +0.092 A 
ATOM     20  C   UNL     1      11.575   4.452  23.396  0.00  0.00    +0.124 A 
ATOM     21  C   UNL     1      10.554   5.366  23.623  0.00  0.00    +0.091 A 
ATOM     22  O   UNL     1       9.817   1.268  23.490  0.00  0.00    -0.451 OA
ATOM     23  C   UNL     1       9.250   4.904  23.785  0.00  0.00    +0.135 A 
ATOM     24  C   UNL     1       8.540   0.738  23.674  0.00  0.00    +0.181 A 
BRANCH  24  25
ATOM     25  C   UNL     1       8.544  -0.757  23.647  0.00  0.00    +0.025 A 
ATOM     26  C   UNL     1       9.416  -1.460  24.508  0.00  0.00    +0.015 A 
ATOM     27  C   UNL     1       9.443  -2.859  24.543  0.00  0.00    +0.050 A 
ATOM     28  C   UNL     1       8.602  -3.572  23.708  0.00  0.00    +0.158 A 
ATOM     29  C   UNL     1       7.735  -2.909  22.849  0.00  0.00    +0.159 A 
ATOM     30  C   UNL     1       7.686  -1.516  22.826  0.00  0.00    +0.060 A 
BRANCH  29  31
ATOM     31  O   UNL     1       6.942  -3.674  22.034  0.00  0.00    -0.503 OA
ATOM     32  H   UNL     1       7.512  -4.106  21.375  0.00  0.00    +0.292 HD
ENDBRANCH  29  31
BRANCH  28  33
ATOM     33  O   UNL     1       8.629  -4.936  23.735  0.00  0.00    -0.503 OA
ATOM     34  H   UNL     1       8.824  -5.198  22.813  0.00  0.00    +0.292 HD
ENDBRANCH  28  33
ENDBRANCH  24  25
BRANCH  23  35
ATOM     35  O   UNL     1       8.270   5.813  24.043  0.00  0.00    -0.506 OA
ATOM     36  H   UNL     1       7.993   5.762  24.968  0.00  0.00    +0.292 HD
ENDBRANCH  23  35
BRANCH  20  37
ATOM     37  O   UNL     1      12.830   4.954  23.211  0.00  0.00    -0.507 OA
ATOM     38  H   UNL     1      13.069   4.895  22.271  0.00  0.00    +0.292 HD
ENDBRANCH  20  37
ENDBRANCH  13  14
ENDBRANCH   3  13
BRANCH   1  39
ATOM     39  C   UNL     1       6.588  -1.872  26.925  0.00  0.00    +0.197 C 
BRANCH  39  40
ATOM     40  O   UNL     1       6.971  -3.243  26.833  0.00  0.00    -0.346 OA
BRANCH  40  43
ATOM     41  C   UNL     1       4.363  -5.246  28.372  0.00  0.00    +0.197 C 
ATOM     42  O   UNL     1       5.564  -4.497  28.198  0.00  0.00    -0.346 OA
ATOM     43  C   UNL     1       5.759  -4.029  26.859  0.00  0.00    +0.281 C 
ATOM     44  C   UNL     1       5.874  -5.221  25.892  0.00  0.00    +0.201 C 
ATOM     45  C   UNL     1       4.571  -6.038  26.005  0.00  0.00    +0.178 C 
ATOM     46  C   UNL     1       4.327  -6.472  27.461  0.00  0.00    +0.171 C 
BRANCH  46  47
ATOM     47  O   UNL     1       5.318  -7.423  27.868  0.00  0.00    -0.387 OA
ATOM     48  H   UNL     1       5.007  -8.305  27.555  0.00  0.00    +0.210 HD
ENDBRANCH  46  47
BRANCH  45  49
ATOM     49  O   UNL     1       4.568  -7.158  25.117  0.00  0.00    -0.386 OA
ATOM     50  H   UNL     1       5.051  -7.883  25.558  0.00  0.00    +0.210 HD
ENDBRANCH  45  49
BRANCH  44  51
ATOM     51  O   UNL     1       7.013  -6.017  26.282  0.00  0.00    -0.384 OA
ATOM     52  H   UNL     1       6.879  -6.182  27.239  0.00  0.00    +0.210 HD
ENDBRANCH  44  51
ENDBRANCH  40  43
ENDBRANCH  39  40
ENDBRANCH   1  39
TORSDOF 16
ENDMDL
MODEL 5
REMARK VINA RESULT:      -6.9      2.370      6.862
REMARK  Name = 
REMARK  16 active torsions:
REMARK  status: ('A' for Active; 'I' for Inactive)
REMARK    1  A    between atoms: C_2  and  O_47
REMARK    2  A    between atoms: C_4  and  O_46
REMARK    3  A    between atoms: C_6  and  O_45
REMARK    4  A    between atoms: C_7  and  O_10
REMARK    5  A    between atoms: O_10  and  C_11
REMARK    6  A    between atoms: C_11  and  C_12
REMARK    7  A    between atoms: C_13  and  O_44
REMARK    8  A    between atoms: C_15  and  O_43
REMARK    9  A    between atoms: C_16  and  O_42
REMARK   10  A    between atoms: C_17  and  O_20
REMARK   11  A    between atoms: O_20  and  C_21
REMARK   12  A    between atoms: C_22  and  C_34
REMARK   13  A    between atoms: C_26  and  O_33
REMARK   14  A    between atoms: C_28  and  O_32
REMARK   15  A    between atoms: C_36  and  O_41
REMARK   16  A    between atoms: C_37  and  O_40
REMARK                            x       y       z     vdW  Elec       q    Type
REMARK                         _______ _______ _______ _____ _____    ______ ____
ROOT
ATOM      1  C   UNL     1       5.675   2.501  25.876  0.00  0.00    +0.179 C 
ATOM      2  O   UNL     1       6.616   1.445  26.251  0.00  0.00    -0.331 OA
ATOM      3  C   UNL     1       5.952   0.157  26.286  0.00  0.00    +0.340 C 
ATOM      4  C   UNL     1       4.977   0.160  27.474  0.00  0.00    +0.214 C 
ATOM      5  C   UNL     1       3.921   1.257  27.255  0.00  0.00    +0.180 C 
ATOM      6  C   UNL     1       4.586   2.621  26.964  0.00  0.00    +0.177 C 
ENDROOT
BRANCH   6   7
ATOM      7  O   UNL     1       3.601   3.591  26.615  0.00  0.00    -0.386 OA
ATOM      8  H   UNL     1       4.010   4.470  26.692  0.00  0.00    +0.210 HD
ENDBRANCH   6   7
BRANCH   5   9
ATOM      9  O   UNL     1       3.106   1.354  28.436  0.00  0.00    -0.386 OA
ATOM     10  H   UNL     1       3.502   0.735  29.083  0.00  0.00    +0.210 HD
ENDBRANCH   5   9
BRANCH   4  11
ATOM     11  O   UNL     1       5.661   0.458  28.716  0.00  0.00    -0.383 OA
ATOM     12  H   UNL     1       5.438   1.382  28.945  0.00  0.00    +0.210 HD
ENDBRANCH   4  11
BRANCH   3  13
ATOM     13  O   UNL     1       6.890  -0.926  26.376  0.00  0.00    -0.453 OA
BRANCH  13  14
ATOM     14  C   UNL     1       6.840  -1.821  25.296  0.00  0.00    +0.214 A 
ATOM     15  C   UNL     1       5.993  -3.064  25.371  0.00  0.00    +0.238 A 
ATOM     16  O   UNL     1       5.414  -3.371  26.408  0.00  0.00    -0.283 OA
ATOM     17  C   UNL     1       5.889  -3.908  24.169  0.00  0.00    +0.109 A 
ATOM     18  C   UNL     1       6.739  -3.616  23.110  0.00  0.00    +0.147 A 
ATOM     19  C   UNL     1       6.773  -4.449  21.988  0.00  0.00    +0.092 A 
ATOM     20  C   UNL     1       5.936  -5.562  21.934  0.00  0.00    +0.124 A 
ATOM     21  C   UNL     1       5.049  -5.839  22.966  0.00  0.00    +0.091 A 
ATOM     22  O   UNL     1       7.579  -2.533  23.103  0.00  0.00    -0.451 OA
ATOM     23  C   UNL     1       5.022  -5.008  24.083  0.00  0.00    +0.135 A 
ATOM     24  C   UNL     1       7.581  -1.644  24.179  0.00  0.00    +0.181 A 
BRANCH  24  25
ATOM     25  C   UNL     1       8.527  -0.506  23.964  0.00  0.00    +0.025 A 
ATOM     26  C   UNL     1       9.508  -0.232  24.942  0.00  0.00    +0.015 A 
ATOM     27  C   UNL     1      10.435   0.804  24.780  0.00  0.00    +0.050 A 
ATOM     28  C   UNL     1      10.384   1.584  23.640  0.00  0.00    +0.158 A 
ATOM     29  C   UNL     1       9.430   1.340  22.661  0.00  0.00    +0.159 A 
ATOM     30  C   UNL     1       8.518   0.295  22.805  0.00  0.00    +0.060 A 
BRANCH  29  31
ATOM     31  O   UNL     1       9.421   2.162  21.565  0.00  0.00    -0.503 OA
ATOM     32  H   UNL     1       9.796   3.021  21.826  0.00  0.00    +0.292 HD
ENDBRANCH  29  31
BRANCH  28  33
ATOM     33  O   UNL     1      11.284   2.599  23.480  0.00  0.00    -0.503 OA
ATOM     34  H   UNL     1      10.959   3.097  22.704  0.00  0.00    +0.292 HD
ENDBRANCH  28  33
ENDBRANCH  24  25
BRANCH  23  35
ATOM     35  O   UNL     1       4.118  -5.277  25.067  0.00  0.00    -0.506 OA
ATOM     36  H   UNL     1       3.693  -6.131  24.914  0.00  0.00    +0.292 HD
ENDBRANCH  23  35
BRANCH  20  37
ATOM     37  O   UNL     1       5.949  -6.422  20.876  0.00  0.00    -0.507 OA
ATOM     38  H   UNL     1       5.037  -6.603  20.593  0.00  0.00    +0.292 HD
ENDBRANCH  20  37
ENDBRANCH  13  14
ENDBRANCH   3  13
BRANCH   1  39
ATOM     39  C   UNL     1       5.166   2.245  24.438  0.00  0.00    +0.197 C 
BRANCH  39  40
ATOM     40  O   UNL     1       4.723   3.362  23.668  0.00  0.00    -0.346 OA
BRANCH  40  43
ATOM     41  C   UNL     1       6.067   6.715  23.299  0.00  0.00    +0.197 C 
ATOM     42  O   UNL     1       5.214   5.580  23.162  0.00  0.00    -0.346 OA
ATOM     43  C   UNL     1       5.700   4.414  23.837  0.00  0.00    +0.281 C 
ATOM     44  C   UNL     1       7.055   3.985  23.248  0.00  0.00    +0.201 C 
ATOM     45  C   UNL     1       8.031   5.166  23.420  0.00  0.00    +0.178 C 
ATOM     46  C   UNL     1       7.468   6.436  22.759  0.00  0.00    +0.171 C 
BRANCH  46  47
ATOM     47  O   UNL     1       7.429   6.279  21.335  0.00  0.00    -0.387 OA
ATOM     48  H   UNL     1       7.335   7.184  20.955  0.00  0.00    +0.210 HD
ENDBRANCH  46  47
BRANCH  45  49
ATOM     49  O   UNL     1       9.335   4.853  22.927  0.00  0.00    -0.386 OA
ATOM     50  H   UNL     1       9.897   4.643  23.697  0.00  0.00    +0.210 HD
ENDBRANCH  45  49
BRANCH  44  51
ATOM     51  O   UNL     1       6.868   3.674  21.850  0.00  0.00    -0.384 OA
ATOM     52  H   UNL     1       6.330   4.419  21.505  0.00  0.00    +0.210 HD
ENDBRANCH  44  51
ENDBRANCH  40  43
ENDBRANCH  39  40
ENDBRANCH   1  39
TORSDOF 16
ENDMDL
MODEL 6
REMARK VINA RESULT:      -6.9      1.761      5.462
REMARK  Name = 
REMARK  16 active torsions:
REMARK  status: ('A' for Active; 'I' for Inactive)
REMARK    1  A    between atoms: C_2  and  O_47
REMARK    2  A    between atoms: C_4  and  O_46
REMARK    3  A    between atoms: C_6  and  O_45
REMARK    4  A    between atoms: C_7  and  O_10
REMARK    5  A    between atoms: O_10  and  C_11
REMARK    6  A    between atoms: C_11  and  C_12
REMARK    7  A    between atoms: C_13  and  O_44
REMARK    8  A    between atoms: C_15  and  O_43
REMARK    9  A    between atoms: C_16  and  O_42
REMARK   10  A    between atoms: C_17  and  O_20
REMARK   11  A    between atoms: O_20  and  C_21
REMARK   12  A    between atoms: C_22  and  C_34
REMARK   13  A    between atoms: C_26  and  O_33
REMARK   14  A    between atoms: C_28  and  O_32
REMARK   15  A    between atoms: C_36  and  O_41
REMARK   16  A    between atoms: C_37  and  O_40
REMARK                            x       y       z     vdW  Elec       q    Type
REMARK                         _______ _______ _______ _____ _____    ______ ____
ROOT
ATOM      1  C   UNL     1       4.759  -0.237  27.403  0.00  0.00    +0.179 C 
ATOM      2  O   UNL     1       5.775  -0.258  26.348  0.00  0.00    -0.331 OA
ATOM      3  C   UNL     1       7.094  -0.462  26.913  0.00  0.00    +0.340 C 
ATOM      4  C   UNL     1       7.470   0.803  27.703  0.00  0.00    +0.214 C 
ATOM      5  C   UNL     1       6.464   0.998  28.849  0.00  0.00    +0.180 C 
ATOM      6  C   UNL     1       5.011   0.975  28.326  0.00  0.00    +0.177 C 
ENDROOT
BRANCH   6   7
ATOM      7  O   UNL     1       4.089   1.004  29.413  0.00  0.00    -0.386 OA
ATOM      8  H   UNL     1       3.360   0.395  29.201  0.00  0.00    +0.210 HD
ENDBRANCH   6   7
BRANCH   5   9
ATOM      9  O   UNL     1       6.732   2.259  29.487  0.00  0.00    -0.386 OA
ATOM     10  H   UNL     1       7.707   2.341  29.515  0.00  0.00    +0.210 HD
ENDBRANCH   5   9
BRANCH   4  11
ATOM     11  O   UNL     1       7.409   1.984  26.865  0.00  0.00    -0.383 OA
ATOM     12  H   UNL     1       8.320   2.332  26.804  0.00  0.00    +0.210 HD
ENDBRANCH   4  11
BRANCH   3  13
ATOM     13  O   UNL     1       8.068  -0.762  25.903  0.00  0.00    -0.453 OA
BRANCH  13  14
ATOM     14  C   UNL     1       7.601  -1.614  24.890  0.00  0.00    +0.214 A 
ATOM     15  C   UNL     1       7.386  -3.080  25.162  0.00  0.00    +0.238 A 
ATOM     16  O   UNL     1       7.710  -3.576  26.236  0.00  0.00    -0.283 OA
ATOM     17  C   UNL     1       6.789  -3.904  24.098  0.00  0.00    +0.109 A 
ATOM     18  C   UNL     1       6.651  -3.323  22.843  0.00  0.00    +0.147 A 
ATOM     19  C   UNL     1       6.201  -4.088  21.763  0.00  0.00    +0.092 A 
ATOM     20  C   UNL     1       5.875  -5.428  21.959  0.00  0.00    +0.124 A 
ATOM     21  C   UNL     1       5.965  -6.009  23.218  0.00  0.00    +0.091 A 
ATOM     22  O   UNL     1       6.948  -2.009  22.592  0.00  0.00    -0.451 OA
ATOM     23  C   UNL     1       6.418  -5.244  24.290  0.00  0.00    +0.135 A 
ATOM     24  C   UNL     1       7.380  -1.181  23.628  0.00  0.00    +0.181 A 
BRANCH  24  25
ATOM     25  C   UNL     1       7.607   0.223  23.166  0.00  0.00    +0.025 A 
ATOM     26  C   UNL     1       6.578   1.177  23.327  0.00  0.00    +0.015 A 
ATOM     27  C   UNL     1       6.746   2.510  22.936  0.00  0.00    +0.050 A 
ATOM     28  C   UNL     1       7.945   2.902  22.370  0.00  0.00    +0.158 A 
ATOM     29  C   UNL     1       8.976   1.987  22.197  0.00  0.00    +0.159 A 
ATOM     30  C   UNL     1       8.823   0.663  22.606  0.00  0.00    +0.060 A 
BRANCH  29  31
ATOM     31  O   UNL     1      10.131   2.436  21.614  0.00  0.00    -0.503 OA
ATOM     32  H   UNL     1       9.944   3.290  21.188  0.00  0.00    +0.292 HD
ENDBRANCH  29  31
BRANCH  28  33
ATOM     33  O   UNL     1       8.112   4.201  21.983  0.00  0.00    -0.503 OA
ATOM     34  H   UNL     1       7.285   4.426  21.511  0.00  0.00    +0.292 HD
ENDBRANCH  28  33
ENDBRANCH  24  25
BRANCH  23  35
ATOM     35  O   UNL     1       6.463  -5.822  25.523  0.00  0.00    -0.506 OA
ATOM     36  H   UNL     1       5.792  -5.438  26.104  0.00  0.00    +0.292 HD
ENDBRANCH  23  35
BRANCH  20  37
ATOM     37  O   UNL     1       5.458  -6.225  20.934  0.00  0.00    -0.507 OA
ATOM     38  H   UNL     1       6.229  -6.621  20.495  0.00  0.00    +0.292 HD
ENDBRANCH  20  37
ENDBRANCH  13  14
ENDBRANCH   3  13
BRANCH   1  39
ATOM     39  C   UNL     1       4.716  -1.618  28.098  0.00  0.00    +0.197 C 
BRANCH  39  40
ATOM     40  O   UNL     1       4.566  -2.781  27.284  0.00  0.00    -0.346 OA
BRANCH  40  43
ATOM     41  C   UNL     1       5.745  -5.697  29.098  0.00  0.00    +0.197 C 
ATOM     42  O   UNL     1       5.712  -4.584  28.207  0.00  0.00    -0.346 OA
ATOM     43  C   UNL     1       4.447  -3.914  28.173  0.00  0.00    +0.281 C 
ATOM     44  C   UNL     1       3.352  -4.872  27.674  0.00  0.00    +0.201 C 
ATOM     45  C   UNL     1       3.312  -6.075  28.639  0.00  0.00    +0.178 C 
ATOM     46  C   UNL     1       4.694  -6.744  28.730  0.00  0.00    +0.171 C 
BRANCH  46  47
ATOM     47  O   UNL     1       5.028  -7.366  27.484  0.00  0.00    -0.387 OA
ATOM     48  H   UNL     1       5.992  -7.567  27.519  0.00  0.00    +0.210 HD
ENDBRANCH  46  47
BRANCH  45  49
ATOM     49  O   UNL     1       2.298  -7.014  28.275  0.00  0.00    -0.386 OA
ATOM     50  H   UNL     1       2.181  -7.626  29.027  0.00  0.00    +0.210 HD
ENDBRANCH  45  49
BRANCH  44  51
ATOM     51  O   UNL     1       3.693  -5.299  26.338  0.00  0.00    -0.384 OA
ATOM     52  H   UNL     1       3.287  -6.188  26.255  0.00  0.00    +0.210 HD
ENDBRANCH  44  51
ENDBRANCH  40  43
ENDBRANCH  39  40
ENDBRANCH   1  39
TORSDOF 16
ENDMDL
MODEL 7
REMARK VINA RESULT:      -6.9      2.362      6.674
REMARK  Name = 
REMARK  16 active torsions:
REMARK  status: ('A' for Active; 'I' for Inactive)
REMARK    1  A    between atoms: C_2  and  O_47
REMARK    2  A    between atoms: C_4  and  O_46
REMARK    3  A    between atoms: C_6  and  O_45
REMARK    4  A    between atoms: C_7  and  O_10
REMARK    5  A    between atoms: O_10  and  C_11
REMARK    6  A    between atoms: C_11  and  C_12
REMARK    7  A    between atoms: C_13  and  O_44
REMARK    8  A    between atoms: C_15  and  O_43
REMARK    9  A    between atoms: C_16  and  O_42
REMARK   10  A    between atoms: C_17  and  O_20
REMARK   11  A    between atoms: O_20  and  C_21
REMARK   12  A    between atoms: C_22  and  C_34
REMARK   13  A    between atoms: C_26  and  O_33
REMARK   14  A    between atoms: C_28  and  O_32
REMARK   15  A    between atoms: C_36  and  O_41
REMARK   16  A    between atoms: C_37  and  O_40
REMARK                            x       y       z     vdW  Elec       q    Type
REMARK                         _______ _______ _______ _____ _____    ______ ____
ROOT
ATOM      1  C   UNL     1       6.300   2.335  26.186  0.00  0.00    +0.179 C 
ATOM      2  O   UNL     1       7.441   1.419  26.232  0.00  0.00    -0.331 OA
ATOM      3  C   UNL     1       7.053   0.148  26.811  0.00  0.00    +0.340 C 
ATOM      4  C   UNL     1       6.760   0.378  28.302  0.00  0.00    +0.214 C 
ATOM      5  C   UNL     1       5.587   1.363  28.438  0.00  0.00    +0.180 C 
ATOM      6  C   UNL     1       5.845   2.653  27.627  0.00  0.00    +0.177 C 
ENDROOT
BRANCH   6   7
ATOM      7  O   UNL     1       4.690   3.488  27.639  0.00  0.00    -0.386 OA
ATOM      8  H   UNL     1       4.368   3.538  28.555  0.00  0.00    +0.210 HD
ENDBRANCH   6   7
BRANCH   5   9
ATOM      9  O   UNL     1       5.418   1.689  29.829  0.00  0.00    -0.386 OA
ATOM     10  H   UNL     1       5.887   0.986  30.325  0.00  0.00    +0.210 HD
ENDBRANCH   5   9
BRANCH   4  11
ATOM     11  O   UNL     1       7.900   0.964  28.979  0.00  0.00    -0.383 OA
ATOM     12  H   UNL     1       8.673   0.825  28.397  0.00  0.00    +0.210 HD
ENDBRANCH   4  11
BRANCH   3  13
ATOM     13  O   UNL     1       8.061  -0.856  26.620  0.00  0.00    -0.453 OA
BRANCH  13  14
ATOM     14  C   UNL     1       7.791  -1.749  25.571  0.00  0.00    +0.214 A 
ATOM     15  C   UNL     1       7.135  -3.077  25.846  0.00  0.00    +0.238 A 
ATOM     16  O   UNL     1       6.919  -3.448  26.995  0.00  0.00    -0.283 OA
ATOM     17  C   UNL     1       6.774  -3.924  24.697  0.00  0.00    +0.109 A 
ATOM     18  C   UNL     1       7.243  -3.539  23.448  0.00  0.00    +0.147 A 
ATOM     19  C   UNL     1       7.034  -4.361  22.337  0.00  0.00    +0.092 A 
ATOM     20  C   UNL     1       6.337  -5.558  22.490  0.00  0.00    +0.124 A 
ATOM     21  C   UNL     1       5.823  -5.933  23.725  0.00  0.00    +0.091 A 
ATOM     22  O   UNL     1       7.928  -2.371  23.235  0.00  0.00    -0.451 OA
ATOM     23  C   UNL     1       6.037  -5.112  24.829  0.00  0.00    +0.135 A 
ATOM     24  C   UNL     1       8.151  -1.490  24.294  0.00  0.00    +0.181 A 
BRANCH  24  25
ATOM     25  C   UNL     1       8.871  -0.256  23.853  0.00  0.00    +0.025 A 
ATOM     26  C   UNL     1      10.096   0.085  24.468  0.00  0.00    +0.015 A 
ATOM     27  C   UNL     1      10.823   1.215  24.077  0.00  0.00    +0.050 A 
ATOM     28  C   UNL     1      10.328   2.023  23.070  0.00  0.00    +0.158 A 
ATOM     29  C   UNL     1       9.125   1.714  22.447  0.00  0.00    +0.159 A 
ATOM     30  C   UNL     1       8.407   0.578  22.816  0.00  0.00    +0.060 A 
BRANCH  29  31
ATOM     31  O   UNL     1       8.681   2.566  21.470  0.00  0.00    -0.503 OA
ATOM     32  H   UNL     1       9.263   3.345  21.460  0.00  0.00    +0.292 HD
ENDBRANCH  29  31
BRANCH  28  33
ATOM     33  O   UNL     1      11.033   3.127  22.689  0.00  0.00    -0.503 OA
ATOM     34  H   UNL     1      10.915   3.762  23.424  0.00  0.00    +0.292 HD
ENDBRANCH  28  33
ENDBRANCH  24  25
BRANCH  23  35
ATOM     35  O   UNL     1       5.493  -5.480  26.022  0.00  0.00    -0.506 OA
ATOM     36  H   UNL     1       5.407  -4.715  26.608  0.00  0.00    +0.292 HD
ENDBRANCH  23  35
BRANCH  20  37
ATOM     37  O   UNL     1       6.130  -6.410  21.445  0.00  0.00    -0.507 OA
ATOM     38  H   UNL     1       5.389  -7.003  21.651  0.00  0.00    +0.292 HD
ENDBRANCH  20  37
ENDBRANCH  13  14
ENDBRANCH   3  13
BRANCH   1  39
ATOM     39  C   UNL     1       5.215   1.753  25.249  0.00  0.00    +0.197 C 
BRANCH  39  40
ATOM     40  O   UNL     1       4.445   2.660  24.461  0.00  0.00    -0.346 OA
BRANCH  40  43
ATOM     41  C   UNL     1       5.006   6.245  24.343  0.00  0.00    +0.197 C 
ATOM     42  O   UNL     1       4.344   4.984  24.424  0.00  0.00    -0.346 OA
ATOM     43  C   UNL     1       5.228   3.864  24.304  0.00  0.00    +0.281 C 
ATOM     44  C   UNL     1       5.919   3.877  22.930  0.00  0.00    +0.201 C 
ATOM     45  C   UNL     1       6.694   5.205  22.813  0.00  0.00    +0.178 C 
ATOM     46  C   UNL     1       5.753   6.404  23.020  0.00  0.00    +0.171 C 
BRANCH  46  47
ATOM     47  O   UNL     1       4.824   6.499  21.933  0.00  0.00    -0.387 OA
ATOM     48  H   UNL     1       4.051   7.010  22.268  0.00  0.00    +0.210 HD
ENDBRANCH  46  47
BRANCH  45  49
ATOM     49  O   UNL     1       7.399   5.300  21.574  0.00  0.00    -0.386 OA
ATOM     50  H   UNL     1       7.194   6.172  21.186  0.00  0.00    +0.210 HD
ENDBRANCH  45  49
BRANCH  44  51
ATOM     51  O   UNL     1       4.903   3.786  21.907  0.00  0.00    -0.384 OA
ATOM     52  H   UNL     1       4.173   3.287  22.333  0.00  0.00    +0.210 HD
ENDBRANCH  44  51
ENDBRANCH  40  43
ENDBRANCH  39  40
ENDBRANCH   1  39
TORSDOF 16
ENDMDL
MODEL 8
REMARK VINA RESULT:      -6.9      2.026      4.628
REMARK  Name = 
REMARK  16 active torsions:
REMARK  status: ('A' for Active; 'I' for Inactive)
REMARK    1  A    between atoms: C_2  and  O_47
REMARK    2  A    between atoms: C_4  and  O_46
REMARK    3  A    between atoms: C_6  and  O_45
REMARK    4  A    between atoms: C_7  and  O_10
REMARK    5  A    between atoms: O_10  and  C_11
REMARK    6  A    between atoms: C_11  and  C_12
REMARK    7  A    between atoms: C_13  and  O_44
REMARK    8  A    between atoms: C_15  and  O_43
REMARK    9  A    between atoms: C_16  and  O_42
REMARK   10  A    between atoms: C_17  and  O_20
REMARK   11  A    between atoms: O_20  and  C_21
REMARK   12  A    between atoms: C_22  and  C_34
REMARK   13  A    between atoms: C_26  and  O_33
REMARK   14  A    between atoms: C_28  and  O_32
REMARK   15  A    between atoms: C_36  and  O_41
REMARK   16  A    between atoms: C_37  and  O_40
REMARK                            x       y       z     vdW  Elec       q    Type
REMARK                         _______ _______ _______ _____ _____    ______ ____
ROOT
ATOM      1  C   UNL     1       8.681  -0.008  22.627  0.00  0.00    +0.179 C 
ATOM      2  O   UNL     1       9.051  -0.774  23.819  0.00  0.00    -0.331 OA
ATOM      3  C   UNL     1       9.055   0.076  24.992  0.00  0.00    +0.340 C 
ATOM      4  C   UNL     1      10.229   1.059  24.860  0.00  0.00    +0.214 C 
ATOM      5  C   UNL     1      10.015   1.934  23.614  0.00  0.00    +0.180 C 
ATOM      6  C   UNL     1       9.756   1.068  22.361  0.00  0.00    +0.177 C 
ENDROOT
BRANCH   6   7
ATOM      7  O   UNL     1       9.410   1.890  21.249  0.00  0.00    -0.386 OA
ATOM      8  H   UNL     1      10.039   1.700  20.532  0.00  0.00    +0.210 HD
ENDBRANCH   6   7
BRANCH   5   9
ATOM      9  O   UNL     1      11.186   2.744  23.413  0.00  0.00    -0.386 OA
ATOM     10  H   UNL     1      11.379   3.152  24.282  0.00  0.00    +0.210 HD
ENDBRANCH   5   9
BRANCH   4  11
ATOM     11  O   UNL     1      11.486   0.358  24.687  0.00  0.00    -0.383 OA
ATOM     12  H   UNL     1      11.505   0.041  23.763  0.00  0.00    +0.210 HD
ENDBRANCH   4  11
BRANCH   3  13
ATOM     13  O   UNL     1       9.140  -0.687  26.205  0.00  0.00    -0.453 OA
BRANCH  13  14
ATOM     14  C   UNL     1       8.041  -1.530  26.432  0.00  0.00    +0.214 A 
ATOM     15  C   UNL     1       8.158  -3.016  26.212  0.00  0.00    +0.238 A 
ATOM     16  O   UNL     1       9.178  -3.505  25.736  0.00  0.00    -0.283 OA
ATOM     17  C   UNL     1       7.010  -3.865  26.572  0.00  0.00    +0.109 A 
ATOM     18  C   UNL     1       5.821  -3.224  26.898  0.00  0.00    +0.147 A 
ATOM     19  C   UNL     1       4.665  -3.972  27.135  0.00  0.00    +0.092 A 
ATOM     20  C   UNL     1       4.719  -5.363  27.059  0.00  0.00    +0.124 A 
ATOM     21  C   UNL     1       5.911  -6.017  26.779  0.00  0.00    +0.091 A 
ATOM     22  O   UNL     1       5.709  -1.862  26.995  0.00  0.00    -0.451 OA
ATOM     23  C   UNL     1       7.060  -5.267  26.540  0.00  0.00    +0.135 A 
ATOM     24  C   UNL     1       6.829  -1.054  26.796  0.00  0.00    +0.181 A 
BRANCH  24  25
ATOM     25  C   UNL     1       6.516   0.396  26.990  0.00  0.00    +0.025 A 
ATOM     26  C   UNL     1       5.503   0.993  26.207  0.00  0.00    +0.015 A 
ATOM     27  C   UNL     1       5.152   2.338  26.365  0.00  0.00    +0.050 A 
ATOM     28  C   UNL     1       5.817   3.105  27.305  0.00  0.00    +0.158 A 
ATOM     29  C   UNL     1       6.818   2.546  28.089  0.00  0.00    +0.159 A 
ATOM     30  C   UNL     1       7.157   1.200  27.952  0.00  0.00    +0.060 A 
BRANCH  29  31
ATOM     31  O   UNL     1       7.450   3.364  28.987  0.00  0.00    -0.503 OA
ATOM     32  H   UNL     1       8.366   3.495  28.686  0.00  0.00    +0.292 HD
ENDBRANCH  29  31
BRANCH  28  33
ATOM     33  O   UNL     1       5.480   4.418  27.459  0.00  0.00    -0.503 OA
ATOM     34  H   UNL     1       5.358   4.751  26.547  0.00  0.00    +0.292 HD
ENDBRANCH  28  33
ENDBRANCH  24  25
BRANCH  23  35
ATOM     35  O   UNL     1       8.227  -5.930  26.304  0.00  0.00    -0.506 OA
ATOM     36  H   UNL     1       8.655  -6.172  27.136  0.00  0.00    +0.292 HD
ENDBRANCH  23  35
BRANCH  20  37
ATOM     37  O   UNL     1       3.614  -6.138  27.254  0.00  0.00    -0.507 OA
ATOM     38  H   UNL     1       2.980  -5.988  26.533  0.00  0.00    +0.292 HD
ENDBRANCH  20  37
ENDBRANCH  13  14
ENDBRANCH   3  13
BRANCH   1  39
ATOM     39  C   UNL     1       7.232   0.510  22.783  0.00  0.00    +0.197 C 
BRANCH  39  40
ATOM     40  O   UNL     1       6.818   1.613  21.978  0.00  0.00    -0.346 OA
BRANCH  40  43
ATOM     41  C   UNL     1       4.325   4.031  23.035  0.00  0.00    +0.197 C 
ATOM     42  O   UNL     1       5.039   3.091  22.235  0.00  0.00    -0.346 OA
ATOM     43  C   UNL     1       6.226   2.590  22.862  0.00  0.00    +0.281 C 
ATOM     44  C   UNL     1       7.213   3.740  23.126  0.00  0.00    +0.201 C 
ATOM     45  C   UNL     1       6.501   4.764  24.034  0.00  0.00    +0.178 C 
ATOM     46  C   UNL     1       5.188   5.240  23.390  0.00  0.00    +0.171 C 
BRANCH  46  47
ATOM     47  O   UNL     1       5.464   6.015  22.216  0.00  0.00    -0.387 OA
ATOM     48  H   UNL     1       6.441   5.995  22.088  0.00  0.00    +0.210 HD
ENDBRANCH  46  47
BRANCH  45  49
ATOM     49  O   UNL     1       7.353   5.863  24.362  0.00  0.00    -0.386 OA
ATOM     50  H   UNL     1       7.142   6.592  23.747  0.00  0.00    +0.210 HD
ENDBRANCH  45  49
BRANCH  44  51
ATOM     51  O   UNL     1       7.567   4.338  21.860  0.00  0.00    -0.384 OA
ATOM     52  H   UNL     1       7.834   3.579  21.299  0.00  0.00    +0.210 HD
ENDBRANCH  44  51
ENDBRANCH  40  43
ENDBRANCH  39  40
ENDBRANCH   1  39
TORSDOF 16
ENDMDL
MODEL 9
REMARK VINA RESULT:      -6.8      3.484      6.647
REMARK  Name = 
REMARK  16 active torsions:
REMARK  status: ('A' for Active; 'I' for Inactive)
REMARK    1  A    between atoms: C_2  and  O_47
REMARK    2  A    between atoms: C_4  and  O_46
REMARK    3  A    between atoms: C_6  and  O_45
REMARK    4  A    between atoms: C_7  and  O_10
REMARK    5  A    between atoms: O_10  and  C_11
REMARK    6  A    between atoms: C_11  and  C_12
REMARK    7  A    between atoms: C_13  and  O_44
REMARK    8  A    between atoms: C_15  and  O_43
REMARK    9  A    between atoms: C_16  and  O_42
REMARK   10  A    between atoms: C_17  and  O_20
REMARK   11  A    between atoms: O_20  and  C_21
REMARK   12  A    between atoms: C_22  and  C_34
REMARK   13  A    between atoms: C_26  and  O_33
REMARK   14  A    between atoms: C_28  and  O_32
REMARK   15  A    between atoms: C_36  and  O_41
REMARK   16  A    between atoms: C_37  and  O_40
REMARK                            x       y       z     vdW  Elec       q    Type
REMARK                         _______ _______ _______ _____ _____    ______ ____
ROOT
ATOM      1  C   UNL     1       9.281  -0.857  24.323  0.00  0.00    +0.179 C 
ATOM      2  O   UNL     1       9.392   0.485  24.897  0.00  0.00    -0.331 OA
ATOM      3  C   UNL     1       8.443   1.387  24.275  0.00  0.00    +0.340 C 
ATOM      4  C   UNL     1       8.890   1.616  22.822  0.00  0.00    +0.214 C 
ATOM      5  C   UNL     1       8.865   0.275  22.071  0.00  0.00    +0.180 C 
ATOM      6  C   UNL     1       9.669  -0.804  22.829  0.00  0.00    +0.177 C 
ENDROOT
BRANCH   6   7
ATOM      7  O   UNL     1       9.512  -2.075  22.203  0.00  0.00    -0.386 OA
ATOM      8  H   UNL     1       8.949  -2.622  22.777  0.00  0.00    +0.210 HD
ENDBRANCH   6   7
BRANCH   5   9
ATOM      9  O   UNL     1       9.427   0.471  20.761  0.00  0.00    -0.386 OA
ATOM     10  H   UNL     1      10.377   0.660  20.905  0.00  0.00    +0.210 HD
ENDBRANCH   5   9
BRANCH   4  11
ATOM     11  O   UNL     1      10.247   2.122  22.763  0.00  0.00    -0.383 OA
ATOM     12  H   UNL     1      10.451   2.269  21.818  0.00  0.00    +0.210 HD
ENDBRANCH   4  11
BRANCH   3  13
ATOM     13  O   UNL     1       8.331   2.625  24.994  0.00  0.00    -0.453 OA
BRANCH  13  14
ATOM     14  C   UNL     1       7.425   3.536  24.430  0.00  0.00    +0.214 A 
ATOM     15  C   UNL     1       6.041   3.093  24.031  0.00  0.00    +0.238 A 
ATOM     16  O   UNL     1       5.716   1.911  24.094  0.00  0.00    -0.283 OA
ATOM     17  C   UNL     1       5.096   4.113  23.550  0.00  0.00    +0.109 A 
ATOM     18  C   UNL     1       5.600   5.383  23.303  0.00  0.00    +0.147 A 
ATOM     19  C   UNL     1       4.781   6.364  22.735  0.00  0.00    +0.092 A 
ATOM     20  C   UNL     1       3.454   6.062  22.438  0.00  0.00    +0.124 A 
ATOM     21  C   UNL     1       2.924   4.810  22.724  0.00  0.00    +0.091 A 
ATOM     22  O   UNL     1       6.893   5.741  23.580  0.00  0.00    -0.451 OA
ATOM     23  C   UNL     1       3.745   3.835  23.286  0.00  0.00    +0.135 A 
ATOM     24  C   UNL     1       7.760   4.820  24.170  0.00  0.00    +0.181 A 
BRANCH  24  25
ATOM     25  C   UNL     1       9.108   5.411  24.436  0.00  0.00    +0.025 A 
ATOM     26  C   UNL     1       9.289   6.232  25.571  0.00  0.00    +0.015 A 
ATOM     27  C   UNL     1      10.535   6.789  25.882  0.00  0.00    +0.050 A 
ATOM     28  C   UNL     1      11.613   6.537  25.055  0.00  0.00    +0.158 A 
ATOM     29  C   UNL     1      11.467   5.734  23.931  0.00  0.00    +0.159 A 
ATOM     30  C   UNL     1      10.234   5.157  23.628  0.00  0.00    +0.060 A 
BRANCH  29  31
ATOM     31  O   UNL     1      12.570   5.539  23.142  0.00  0.00    -0.503 OA
ATOM     32  H   UNL     1      13.254   5.104  23.681  0.00  0.00    +0.292 HD
ENDBRANCH  29  31
BRANCH  28  33
ATOM     33  O   UNL     1      12.829   7.082  25.352  0.00  0.00    -0.503 OA
ATOM     34  H   UNL     1      13.447   6.671  24.714  0.00  0.00    +0.292 HD
ENDBRANCH  28  33
ENDBRANCH  24  25
BRANCH  23  35
ATOM     35  O   UNL     1       3.197   2.627  23.592  0.00  0.00    -0.506 OA
ATOM     36  H   UNL     1       3.342   2.412  24.523  0.00  0.00    +0.292 HD
ENDBRANCH  23  35
BRANCH  20  37
ATOM     37  O   UNL     1       2.620   6.972  21.858  0.00  0.00    -0.507 OA
ATOM     38  H   UNL     1       1.798   7.034  22.372  0.00  0.00    +0.292 HD
ENDBRANCH  20  37
ENDBRANCH  13  14
ENDBRANCH   3  13
BRANCH   1  39
ATOM     39  C   UNL     1       7.879  -1.431  24.636  0.00  0.00    +0.197 C 
BRANCH  39  40
ATOM     40  O   UNL     1       7.034  -1.786  23.542  0.00  0.00    -0.346 OA
BRANCH  40  43
ATOM     41  C   UNL     1       7.455  -5.380  23.240  0.00  0.00    +0.197 C 
ATOM     42  O   UNL     1       7.672  -3.978  23.091  0.00  0.00    -0.346 OA
ATOM     43  C   UNL     1       6.666  -3.173  23.716  0.00  0.00    +0.281 C 
ATOM     44  C   UNL     1       5.294  -3.447  23.077  0.00  0.00    +0.201 C 
ATOM     45  C   UNL     1       4.989  -4.947  23.259  0.00  0.00    +0.178 C 
ATOM     46  C   UNL     1       6.111  -5.807  22.653  0.00  0.00    +0.171 C 
BRANCH  46  47
ATOM     47  O   UNL     1       6.126  -5.671  21.227  0.00  0.00    -0.387 OA
ATOM     48  H   UNL     1       5.639  -4.839  21.019  0.00  0.00    +0.210 HD
ENDBRANCH  46  47
BRANCH  45  49
ATOM     49  O   UNL     1       3.712  -5.298  22.721  0.00  0.00    -0.386 OA
ATOM     50  H   UNL     1       3.771  -5.219  21.749  0.00  0.00    +0.210 HD
ENDBRANCH  45  49
BRANCH  44  51
ATOM     51  O   UNL     1       5.366  -3.104  21.677  0.00  0.00    -0.384 OA
ATOM     52  H   UNL     1       4.431  -3.100  21.379  0.00  0.00    +0.210 HD
ENDBRANCH  44  51
ENDBRANCH  40  43
ENDBRANCH  39  40
ENDBRANCH   1  39
TORSDOF 16
ENDMDL
