MODEL 1
REMARK VINA RESULT:      -7.3      0.000      0.000
REMARK  Name = 
REMARK  16 active torsions:
REMARK  status: ('A' for Active; 'I' for Inactive)
REMARK    1  A    between atoms: C_1  and  C_2
REMARK    2  A    between atoms: C_4  and  O_52
REMARK    3  A    between atoms: C_6  and  O_51
REMARK    4  A    between atoms: C_8  and  O_50
REMARK    5  A    between atoms: C_10  and  O_13
REMARK    6  A    between atoms: O_13  and  C_14
REMARK    7  A    between atoms: C_16  and  O_49
REMARK    8  A    between atoms: C_21  and  C_41
REMARK    9  A    between atoms: C_22  and  O_25
REMARK   10  A    between atoms: O_25  and  C_26
REMARK   11  A    between atoms: C_28  and  O_40
REMARK   12  A    between atoms: C_30  and  O_39
REMARK   13  A    between atoms: C_32  and  O_38
REMARK   14  A    between atoms: C_34  and  C_37
REMARK   15  A    between atoms: C_43  and  O_48
REMARK   16  A    between atoms: C_44  and  O_47
REMARK                            x       y       z     vdW  Elec       q    Type
REMARK                         _______ _______ _______ _____ _____    ______ ____
ROOT
ATOM      1  C   UNL     1       8.882   0.605  24.256  0.00  0.00    +0.131 A 
ATOM      2  C   UNL     1       8.382  -0.246  25.234  0.00  0.00    +0.093 A 
ATOM      3  C   UNL     1       8.078  -1.575  24.934  0.00  0.00    +0.147 A 
ATOM      4  O   UNL     1       7.559  -2.298  25.963  0.00  0.00    -0.451 OA
ATOM      5  C   UNL     1       7.075  -3.571  25.729  0.00  0.00    +0.181 A 
ATOM      6  C   UNL     1       7.191  -4.228  24.553  0.00  0.00    +0.214 A 
ATOM      7  C   UNL     1       7.953  -3.527  23.456  0.00  0.00    +0.238 A 
ATOM      8  O   UNL     1       8.294  -4.141  22.451  0.00  0.00    -0.283 OA
ATOM      9  C   UNL     1       8.290  -2.097  23.667  0.00  0.00    +0.109 A 
ATOM     10  C   UNL     1       8.811  -1.246  22.685  0.00  0.00    +0.135 A 
ATOM     11  C   UNL     1       9.101   0.101  22.975  0.00  0.00    +0.092 A 
ENDROOT
BRANCH   5  12
ATOM     12  C   UNL     1       6.514  -4.078  26.994  0.00  0.00    +0.025 A 
ATOM     13  C   UNL     1       5.362  -3.480  27.532  0.00  0.00    +0.015 A 
ATOM     14  C   UNL     1       4.672  -4.094  28.580  0.00  0.00    +0.050 A 
ATOM     15  C   UNL     1       5.121  -5.314  29.061  0.00  0.00    +0.158 A 
ATOM     16  C   UNL     1       6.288  -5.891  28.570  0.00  0.00    +0.159 A 
ATOM     17  C   UNL     1       6.986  -5.287  27.531  0.00  0.00    +0.060 A 
BRANCH  15  18
ATOM     18  O   UNL     1       4.369  -5.978  29.987  0.00  0.00    -0.503 OA
ATOM     19  H   UNL     1       3.623  -6.349  29.475  0.00  0.00    +0.292 HD
ENDBRANCH  15  18
BRANCH  16  20
ATOM     20  O   UNL     1       6.690  -7.079  29.113  0.00  0.00    -0.503 OA
ATOM     21  H   UNL     1       6.097  -7.285  29.857  0.00  0.00    +0.292 HD
ENDBRANCH  16  20
ENDBRANCH   5  12
BRANCH  10  22
ATOM     22  O   UNL     1       9.019  -1.690  21.411  0.00  0.00    -0.506 OA
ATOM     23  H   UNL     1       9.087  -2.658  21.394  0.00  0.00    +0.292 HD
ENDBRANCH  10  22
BRANCH   1  24
ATOM     24  O   UNL     1       9.069   1.891  24.676  0.00  0.00    -0.461 OA
BRANCH  24  28
ATOM     25  C   UNL     1       9.290   6.077  25.515  0.00  0.00    +0.041 C 
ATOM     26  C   UNL     1       8.941   4.815  24.736  0.00  0.00    +0.150 C 
ATOM     27  O   UNL     1       8.290   3.933  25.655  0.00  0.00    -0.334 OA
ATOM     28  C   UNL     1       7.929   2.662  25.085  0.00  0.00    +0.339 C 
ATOM     29  C   UNL     1       7.000   2.844  23.870  0.00  0.00    +0.214 C 
ATOM     30  C   UNL     1       7.630   3.802  22.854  0.00  0.00    +0.180 C 
ATOM     31  C   UNL     1       8.039   5.122  23.535  0.00  0.00    +0.174 C 
BRANCH  29  32
ATOM     32  O   UNL     1       5.723   3.371  24.274  0.00  0.00    -0.383 OA
ATOM     33  H   UNL     1       5.894   4.317  24.465  0.00  0.00    +0.210 HD
ENDBRANCH  29  32
BRANCH  30  34
ATOM     34  O   UNL     1       6.679   4.087  21.819  0.00  0.00    -0.386 OA
ATOM     35  H   UNL     1       6.511   5.049  21.895  0.00  0.00    +0.210 HD
ENDBRANCH  30  34
BRANCH  31  36
ATOM     36  O   UNL     1       8.698   5.926  22.547  0.00  0.00    -0.387 OA
ATOM     37  H   UNL     1       8.499   6.856  22.754  0.00  0.00    +0.210 HD
ENDBRANCH  31  36
ENDBRANCH  24  28
ENDBRANCH   1  24
BRANCH   6  38
ATOM     38  O   UNL     1       6.826  -5.525  24.267  0.00  0.00    -0.453 OA
BRANCH  38  39
ATOM     39  C   UNL     1       5.434  -5.870  24.190  0.00  0.00    +0.339 C 
ATOM     40  O   UNL     1       4.816  -5.923  25.478  0.00  0.00    -0.334 OA
ATOM     41  C   UNL     1       3.383  -6.087  25.470  0.00  0.00    +0.150 C 
ATOM     42  C   UNL     1       2.995  -7.547  25.218  0.00  0.00    +0.041 C 
ATOM     43  C   UNL     1       2.651  -5.109  24.520  0.00  0.00    +0.174 C 
ATOM     44  C   UNL     1       3.299  -5.097  23.137  0.00  0.00    +0.180 C 
ATOM     45  C   UNL     1       4.791  -4.803  23.285  0.00  0.00    +0.214 C 
BRANCH  43  46
ATOM     46  O   UNL     1       2.697  -3.790  25.082  0.00  0.00    -0.387 OA
ATOM     47  H   UNL     1       3.269  -3.821  25.868  0.00  0.00    +0.210 HD
ENDBRANCH  43  46
BRANCH  44  48
ATOM     48  O   UNL     1       3.094  -6.361  22.489  0.00  0.00    -0.386 OA
ATOM     49  H   UNL     1       3.952  -6.831  22.530  0.00  0.00    +0.210 HD
ENDBRANCH  44  48
BRANCH  45  50
ATOM     50  O   UNL     1       5.385  -4.824  21.974  0.00  0.00    -0.383 OA
ATOM     51  H   UNL     1       6.305  -5.127  22.115  0.00  0.00    +0.210 HD
ENDBRANCH  45  50
ENDBRANCH  38  39
ENDBRANCH   6  38
TORSDOF 14
ENDMDL
MODEL 2
REMARK VINA RESULT:      -7.2      2.586      9.083
REMARK  Name = 
REMARK  16 active torsions:
REMARK  status: ('A' for Active; 'I' for Inactive)
REMARK    1  A    between atoms: C_1  and  C_2
REMARK    2  A    between atoms: C_4  and  O_52
REMARK    3  A    between atoms: C_6  and  O_51
REMARK    4  A    between atoms: C_8  and  O_50
REMARK    5  A    between atoms: C_10  and  O_13
REMARK    6  A    between atoms: O_13  and  C_14
REMARK    7  A    between atoms: C_16  and  O_49
REMARK    8  A    between atoms: C_21  and  C_41
REMARK    9  A    between atoms: C_22  and  O_25
REMARK   10  A    between atoms: O_25  and  C_26
REMARK   11  A    between atoms: C_28  and  O_40
REMARK   12  A    between atoms: C_30  and  O_39
REMARK   13  A    between atoms: C_32  and  O_38
REMARK   14  A    between atoms: C_34  and  C_37
REMARK   15  A    between atoms: C_43  and  O_48
REMARK   16  A    between atoms: C_44  and  O_47
REMARK                            x       y       z     vdW  Elec       q    Type
REMARK                         _______ _______ _______ _____ _____    ______ ____
ROOT
ATOM      1  C   UNL     1       4.922  -5.848  23.947  0.00  0.00    +0.131 A 
ATOM      2  C   UNL     1       4.991  -4.648  24.645  0.00  0.00    +0.093 A 
ATOM      3  C   UNL     1       6.051  -3.763  24.436  0.00  0.00    +0.147 A 
ATOM      4  O   UNL     1       6.029  -2.641  25.205  0.00  0.00    -0.451 OA
ATOM      5  C   UNL     1       7.112  -1.782  25.192  0.00  0.00    +0.181 A 
ATOM      6  C   UNL     1       8.172  -1.902  24.361  0.00  0.00    +0.214 A 
ATOM      7  C   UNL     1       8.120  -3.020  23.351  0.00  0.00    +0.238 A 
ATOM      8  O   UNL     1       8.924  -3.055  22.426  0.00  0.00    -0.283 OA
ATOM      9  C   UNL     1       7.049  -4.034  23.512  0.00  0.00    +0.109 A 
ATOM     10  C   UNL     1       6.971  -5.235  22.795  0.00  0.00    +0.135 A 
ATOM     11  C   UNL     1       5.916  -6.141  23.015  0.00  0.00    +0.092 A 
ENDROOT
BRANCH   5  12
ATOM     12  C   UNL     1       6.844  -0.707  26.164  0.00  0.00    +0.025 A 
ATOM     13  C   UNL     1       5.557  -0.151  26.248  0.00  0.00    +0.015 A 
ATOM     14  C   UNL     1       5.215   0.678  27.319  0.00  0.00    +0.050 A 
ATOM     15  C   UNL     1       6.153   0.923  28.310  0.00  0.00    +0.158 A 
ATOM     16  C   UNL     1       7.446   0.419  28.211  0.00  0.00    +0.159 A 
ATOM     17  C   UNL     1       7.799  -0.404  27.148  0.00  0.00    +0.060 A 
BRANCH  15  18
ATOM     18  O   UNL     1       5.774   1.619  29.422  0.00  0.00    -0.503 OA
ATOM     19  H   UNL     1       4.915   1.226  29.675  0.00  0.00    +0.292 HD
ENDBRANCH  15  18
BRANCH  16  20
ATOM     20  O   UNL     1       8.328   0.727  29.209  0.00  0.00    -0.503 OA
ATOM     21  H   UNL     1       8.118   1.621  29.531  0.00  0.00    +0.292 HD
ENDBRANCH  16  20
ENDBRANCH   5  12
BRANCH  10  22
ATOM     22  O   UNL     1       7.935  -5.575  21.890  0.00  0.00    -0.506 OA
ATOM     23  H   UNL     1       7.958  -6.536  21.760  0.00  0.00    +0.292 HD
ENDBRANCH  10  22
BRANCH   1  24
ATOM     24  O   UNL     1       3.869  -6.641  24.303  0.00  0.00    -0.461 OA
BRANCH  24  28
ATOM     25  C   UNL     1       0.822  -8.216  21.750  0.00  0.00    +0.041 C 
ATOM     26  C   UNL     1       1.561  -7.937  23.053  0.00  0.00    +0.150 C 
ATOM     27  O   UNL     1       1.805  -6.529  23.094  0.00  0.00    -0.334 OA
ATOM     28  C   UNL     1       2.541  -6.098  24.253  0.00  0.00    +0.339 C 
ATOM     29  C   UNL     1       1.806  -6.484  25.550  0.00  0.00    +0.214 C 
ATOM     30  C   UNL     1       1.490  -7.984  25.560  0.00  0.00    +0.180 C 
ATOM     31  C   UNL     1       0.748  -8.389  24.272  0.00  0.00    +0.174 C 
BRANCH  29  32
ATOM     32  O   UNL     1       0.574  -5.751  25.681  0.00  0.00    -0.383 OA
ATOM     33  H   UNL     1       0.845  -4.864  25.998  0.00  0.00    +0.210 HD
ENDBRANCH  29  32
BRANCH  30  34
ATOM     34  O   UNL     1       0.661  -8.286  26.691  0.00  0.00    -0.386 OA
ATOM     35  H   UNL     1       0.148  -7.466  26.847  0.00  0.00    +0.210 HD
ENDBRANCH  30  34
BRANCH  31  36
ATOM     36  O   UNL     1       0.568  -9.812  24.313  0.00  0.00    -0.387 OA
ATOM     37  H   UNL     1       0.919 -10.170  23.479  0.00  0.00    +0.210 HD
ENDBRANCH  31  36
ENDBRANCH  24  28
ENDBRANCH   1  24
BRANCH   6  38
ATOM     38  O   UNL     1       9.239  -1.041  24.219  0.00  0.00    -0.453 OA
BRANCH  38  39
ATOM     39  C   UNL     1       9.027   0.264  23.661  0.00  0.00    +0.339 C 
ATOM     40  O   UNL     1       9.039   1.290  24.657  0.00  0.00    -0.334 OA
ATOM     41  C   UNL     1       9.013   2.641  24.154  0.00  0.00    +0.150 C 
ATOM     42  C   UNL     1       7.595   3.049  23.745  0.00  0.00    +0.041 C 
ATOM     43  C   UNL     1      10.050   2.910  23.038  0.00  0.00    +0.174 C 
ATOM     44  C   UNL     1       9.993   1.828  21.962  0.00  0.00    +0.180 C 
ATOM     45  C   UNL     1      10.145   0.457  22.619  0.00  0.00    +0.214 C 
BRANCH  43  46
ATOM     46  O   UNL     1      11.361   2.941  23.617  0.00  0.00    -0.387 OA
ATOM     47  H   UNL     1      11.349   3.580  24.350  0.00  0.00    +0.210 HD
ENDBRANCH  43  46
BRANCH  44  48
ATOM     48  O   UNL     1       8.751   1.912  21.248  0.00  0.00    -0.386 OA
ATOM     49  H   UNL     1       8.768   1.192  20.584  0.00  0.00    +0.210 HD
ENDBRANCH  44  48
BRANCH  45  50
ATOM     50  O   UNL     1      10.061  -0.547  21.591  0.00  0.00    -0.383 OA
ATOM     51  H   UNL     1      10.808  -1.154  21.765  0.00  0.00    +0.210 HD
ENDBRANCH  45  50
ENDBRANCH  38  39
ENDBRANCH   6  38
TORSDOF 14
ENDMDL
MODEL 3
REMARK VINA RESULT:      -7.2      2.242      3.769
REMARK  Name = 
REMARK  16 active torsions:
REMARK  status: ('A' for Active; 'I' for Inactive)
REMARK    1  A    between atoms: C_1  and  C_2
REMARK    2  A    between atoms: C_4  and  O_52
REMARK    3  A    between atoms: C_6  and  O_51
REMARK    4  A    between atoms: C_8  and  O_50
REMARK    5  A    between atoms: C_10  and  O_13
REMARK    6  A    between atoms: O_13  and  C_14
REMARK    7  A    between atoms: C_16  and  O_49
REMARK    8  A    between atoms: C_21  and  C_41
REMARK    9  A    between atoms: C_22  and  O_25
REMARK   10  A    between atoms: O_25  and  C_26
REMARK   11  A    between atoms: C_28  and  O_40
REMARK   12  A    between atoms: C_30  and  O_39
REMARK   13  A    between atoms: C_32  and  O_38
REMARK   14  A    between atoms: C_34  and  C_37
REMARK   15  A    between atoms: C_43  and  O_48
REMARK   16  A    between atoms: C_44  and  O_47
REMARK                            x       y       z     vdW  Elec       q    Type
REMARK                         _______ _______ _______ _____ _____    ______ ____
ROOT
ATOM      1  C   UNL     1       8.991  -0.923  24.847  0.00  0.00    +0.131 A 
ATOM      2  C   UNL     1       7.775  -0.963  25.519  0.00  0.00    +0.093 A 
ATOM      3  C   UNL     1       7.175  -2.184  25.834  0.00  0.00    +0.147 A 
ATOM      4  O   UNL     1       5.969  -2.094  26.458  0.00  0.00    -0.451 OA
ATOM      5  C   UNL     1       5.219  -3.236  26.666  0.00  0.00    +0.181 A 
ATOM      6  C   UNL     1       5.652  -4.490  26.407  0.00  0.00    +0.214 A 
ATOM      7  C   UNL     1       7.069  -4.632  25.912  0.00  0.00    +0.238 A 
ATOM      8  O   UNL     1       7.603  -5.735  25.873  0.00  0.00    -0.283 OA
ATOM      9  C   UNL     1       7.779  -3.391  25.516  0.00  0.00    +0.109 A 
ATOM     10  C   UNL     1       9.014  -3.352  24.855  0.00  0.00    +0.135 A 
ATOM     11  C   UNL     1       9.614  -2.125  24.516  0.00  0.00    +0.092 A 
ENDROOT
BRANCH   5  12
ATOM     12  C   UNL     1       3.946  -2.830  27.285  0.00  0.00    +0.025 A 
ATOM     13  C   UNL     1       3.848  -2.745  28.684  0.00  0.00    +0.015 A 
ATOM     14  C   UNL     1       2.746  -2.127  29.278  0.00  0.00    +0.050 A 
ATOM     15  C   UNL     1       1.764  -1.574  28.470  0.00  0.00    +0.158 A 
ATOM     16  C   UNL     1       1.825  -1.696  27.086  0.00  0.00    +0.159 A 
ATOM     17  C   UNL     1       2.914  -2.314  26.483  0.00  0.00    +0.060 A 
BRANCH  15  18
ATOM     18  O   UNL     1       0.761  -0.851  29.049  0.00  0.00    -0.503 OA
ATOM     19  H   UNL     1       0.331  -1.479  29.664  0.00  0.00    +0.292 HD
ENDBRANCH  15  18
BRANCH  16  20
ATOM     20  O   UNL     1       0.806  -1.155  26.353  0.00  0.00    -0.503 OA
ATOM     21  H   UNL     1       0.073  -1.795  26.339  0.00  0.00    +0.292 HD
ENDBRANCH  16  20
ENDBRANCH   5  12
BRANCH  10  22
ATOM     22  O   UNL     1       9.649  -4.504  24.490  0.00  0.00    -0.506 OA
ATOM     23  H   UNL     1       9.026  -5.120  24.072  0.00  0.00    +0.292 HD
ENDBRANCH  10  22
BRANCH   1  24
ATOM     24  O   UNL     1       9.422   0.337  24.547  0.00  0.00    -0.461 OA
BRANCH  24  28
ATOM     25  C   UNL     1       6.639   3.579  24.403  0.00  0.00    +0.041 C 
ATOM     26  C   UNL     1       7.991   2.881  24.322  0.00  0.00    +0.150 C 
ATOM     27  O   UNL     1       7.816   1.747  23.467  0.00  0.00    -0.334 OA
ATOM     28  C   UNL     1       9.000   0.943  23.316  0.00  0.00    +0.339 C 
ATOM     29  C   UNL     1      10.168   1.777  22.756  0.00  0.00    +0.214 C 
ATOM     30  C   UNL     1      10.393   3.026  23.616  0.00  0.00    +0.180 C 
ATOM     31  C   UNL     1       9.080   3.814  23.780  0.00  0.00    +0.174 C 
BRANCH  29  32
ATOM     32  O   UNL     1       9.903   2.188  21.403  0.00  0.00    -0.383 OA
ATOM     33  H   UNL     1       8.987   1.889  21.226  0.00  0.00    +0.210 HD
ENDBRANCH  29  32
BRANCH  30  34
ATOM     34  O   UNL     1      11.366   3.868  22.981  0.00  0.00    -0.386 OA
ATOM     35  H   UNL     1      10.894   4.711  22.818  0.00  0.00    +0.210 HD
ENDBRANCH  30  34
BRANCH  31  36
ATOM     36  O   UNL     1       9.348   4.912  24.663  0.00  0.00    -0.387 OA
ATOM     37  H   UNL     1      10.304   4.903  24.851  0.00  0.00    +0.210 HD
ENDBRANCH  31  36
ENDBRANCH  24  28
ENDBRANCH   1  24
BRANCH   6  38
ATOM     38  O   UNL     1       5.010  -5.680  26.674  0.00  0.00    -0.453 OA
BRANCH  38  39
ATOM     39  C   UNL     1       3.835  -6.035  25.929  0.00  0.00    +0.339 C 
ATOM     40  O   UNL     1       4.147  -6.765  24.739  0.00  0.00    -0.334 OA
ATOM     41  C   UNL     1       3.013  -7.310  24.033  0.00  0.00    +0.150 C 
ATOM     42  C   UNL     1       2.316  -6.235  23.196  0.00  0.00    +0.041 C 
ATOM     43  C   UNL     1       2.027  -8.083  24.942  0.00  0.00    +0.174 C 
ATOM     44  C   UNL     1       1.673  -7.270  26.185  0.00  0.00    +0.180 C 
ATOM     45  C   UNL     1       2.960  -6.853  26.896  0.00  0.00    +0.214 C 
BRANCH  43  46
ATOM     46  O   UNL     1       2.630  -9.323  25.336  0.00  0.00    -0.387 OA
ATOM     47  H   UNL     1       3.499  -9.122  25.723  0.00  0.00    +0.210 HD
ENDBRANCH  43  46
BRANCH  44  48
ATOM     48  O   UNL     1       0.904  -6.116  25.814  0.00  0.00    -0.386 OA
ATOM     49  H   UNL     1       0.754  -5.611  26.639  0.00  0.00    +0.210 HD
ENDBRANCH  44  48
BRANCH  45  50
ATOM     50  O   UNL     1       2.603  -6.066  28.047  0.00  0.00    -0.383 OA
ATOM     51  H   UNL     1       1.667  -5.815  27.906  0.00  0.00    +0.210 HD
ENDBRANCH  45  50
ENDBRANCH  38  39
ENDBRANCH   6  38
TORSDOF 14
ENDMDL
MODEL 4
REMARK VINA RESULT:      -7.1      1.666      2.844
REMARK  Name = 
REMARK  16 active torsions:
REMARK  status: ('A' for Active; 'I' for Inactive)
REMARK    1  A    between atoms: C_1  and  C_2
REMARK    2  A    between atoms: C_4  and  O_52
REMARK    3  A    between atoms: C_6  and  O_51
REMARK    4  A    between atoms: C_8  and  O_50
REMARK    5  A    between atoms: C_10  and  O_13
REMARK    6  A    between atoms: O_13  and  C_14
REMARK    7  A    between atoms: C_16  and  O_49
REMARK    8  A    between atoms: C_21  and  C_41
REMARK    9  A    between atoms: C_22  and  O_25
REMARK   10  A    between atoms: O_25  and  C_26
REMARK   11  A    between atoms: C_28  and  O_40
REMARK   12  A    between atoms: C_30  and  O_39
REMARK   13  A    between atoms: C_32  and  O_38
REMARK   14  A    between atoms: C_34  and  C_37
REMARK   15  A    between atoms: C_43  and  O_48
REMARK   16  A    between atoms: C_44  and  O_47
REMARK                            x       y       z     vdW  Elec       q    Type
REMARK                         _______ _______ _______ _____ _____    ______ ____
ROOT
ATOM      1  C   UNL     1       9.629   0.541  24.596  0.00  0.00    +0.131 A 
ATOM      2  C   UNL     1       8.589   0.119  25.415  0.00  0.00    +0.093 A 
ATOM      3  C   UNL     1       8.166  -1.212  25.400  0.00  0.00    +0.147 A 
ATOM      4  O   UNL     1       7.114  -1.496  26.217  0.00  0.00    -0.451 OA
ATOM      5  C   UNL     1       6.517  -2.740  26.155  0.00  0.00    +0.181 A 
ATOM      6  C   UNL     1       6.982  -3.775  25.419  0.00  0.00    +0.214 A 
ATOM      7  C   UNL     1       8.270  -3.549  24.668  0.00  0.00    +0.238 A 
ATOM      8  O   UNL     1       8.868  -4.497  24.169  0.00  0.00    -0.283 OA
ATOM      9  C   UNL     1       8.782  -2.158  24.596  0.00  0.00    +0.109 A 
ATOM     10  C   UNL     1       9.843  -1.738  23.783  0.00  0.00    +0.135 A 
ATOM     11  C   UNL     1      10.261  -0.394  23.778  0.00  0.00    +0.092 A 
ENDROOT
BRANCH   5  12
ATOM     12  C   UNL     1       5.374  -2.736  27.085  0.00  0.00    +0.025 A 
ATOM     13  C   UNL     1       4.195  -2.057  26.736  0.00  0.00    +0.015 A 
ATOM     14  C   UNL     1       3.025  -2.248  27.474  0.00  0.00    +0.050 A 
ATOM     15  C   UNL     1       3.036  -3.136  28.538  0.00  0.00    +0.158 A 
ATOM     16  C   UNL     1       4.209  -3.776  28.924  0.00  0.00    +0.159 A 
ATOM     17  C   UNL     1       5.380  -3.590  28.200  0.00  0.00    +0.060 A 
BRANCH  15  18
ATOM     18  O   UNL     1       1.860  -3.425  29.170  0.00  0.00    -0.503 OA
ATOM     19  H   UNL     1       1.266  -3.727  28.454  0.00  0.00    +0.292 HD
ENDBRANCH  15  18
BRANCH  16  20
ATOM     20  O   UNL     1       4.153  -4.614  30.002  0.00  0.00    -0.503 OA
ATOM     21  H   UNL     1       4.261  -4.077  30.807  0.00  0.00    +0.292 HD
ENDBRANCH  16  20
ENDBRANCH   5  12
BRANCH  10  22
ATOM     22  O   UNL     1      10.475  -2.615  22.948  0.00  0.00    -0.506 OA
ATOM     23  H   UNL     1      10.897  -2.142  22.214  0.00  0.00    +0.292 HD
ENDBRANCH  10  22
BRANCH   1  24
ATOM     24  O   UNL     1       9.888   1.879  24.667  0.00  0.00    -0.461 OA
BRANCH  24  28
ATOM     25  C   UNL     1       6.952   3.450  21.986  0.00  0.00    +0.041 C 
ATOM     26  C   UNL     1       8.036   3.474  23.057  0.00  0.00    +0.150 C 
ATOM     27  O   UNL     1       9.129   2.703  22.551  0.00  0.00    -0.334 OA
ATOM     28  C   UNL     1      10.233   2.586  23.466  0.00  0.00    +0.339 C 
ATOM     29  C   UNL     1      10.778   3.974  23.855  0.00  0.00    +0.214 C 
ATOM     30  C   UNL     1       9.647   4.863  24.384  0.00  0.00    +0.180 C 
ATOM     31  C   UNL     1       8.478   4.905  23.383  0.00  0.00    +0.174 C 
BRANCH  29  32
ATOM     32  O   UNL     1      11.386   4.623  22.724  0.00  0.00    -0.383 OA
ATOM     33  H   UNL     1      10.781   4.439  21.976  0.00  0.00    +0.210 HD
ENDBRANCH  29  32
BRANCH  30  34
ATOM     34  O   UNL     1      10.144   6.195  24.578  0.00  0.00    -0.386 OA
ATOM     35  H   UNL     1       9.878   6.428  25.491  0.00  0.00    +0.210 HD
ENDBRANCH  30  34
BRANCH  31  36
ATOM     36  O   UNL     1       7.429   5.679  23.983  0.00  0.00    -0.387 OA
ATOM     37  H   UNL     1       6.978   5.102  24.625  0.00  0.00    +0.210 HD
ENDBRANCH  31  36
ENDBRANCH  24  28
ENDBRANCH   1  24
BRANCH   6  38
ATOM     38  O   UNL     1       6.505  -5.067  25.378  0.00  0.00    -0.453 OA
BRANCH  38  39
ATOM     39  C   UNL     1       5.089  -5.301  25.395  0.00  0.00    +0.339 C 
ATOM     40  O   UNL     1       4.490  -5.108  24.111  0.00  0.00    -0.334 OA
ATOM     41  C   UNL     1       3.105  -5.498  24.009  0.00  0.00    +0.150 C 
ATOM     42  C   UNL     1       2.186  -4.427  24.603  0.00  0.00    +0.041 C 
ATOM     43  C   UNL     1       2.813  -6.909  24.575  0.00  0.00    +0.174 C 
ATOM     44  C   UNL     1       3.423  -7.080  25.964  0.00  0.00    +0.180 C 
ATOM     45  C   UNL     1       4.912  -6.744  25.904  0.00  0.00    +0.214 C 
BRANCH  43  46
ATOM     46  O   UNL     1       3.361  -7.891  23.686  0.00  0.00    -0.387 OA
ATOM     47  H   UNL     1       4.165  -7.516  23.288  0.00  0.00    +0.210 HD
ENDBRANCH  43  46
BRANCH  44  48
ATOM     48  O   UNL     1       2.750  -6.230  26.904  0.00  0.00    -0.386 OA
ATOM     49  H   UNL     1       3.093  -5.326  26.750  0.00  0.00    +0.210 HD
ENDBRANCH  44  48
BRANCH  45  50
ATOM     50  O   UNL     1       5.459  -6.886  27.228  0.00  0.00    -0.383 OA
ATOM     51  H   UNL     1       6.022  -6.096  27.358  0.00  0.00    +0.210 HD
ENDBRANCH  45  50
ENDBRANCH  38  39
ENDBRANCH   6  38
TORSDOF 14
ENDMDL
MODEL 5
REMARK VINA RESULT:      -7.1      1.590      2.186
REMARK  Name = 
REMARK  16 active torsions:
REMARK  status: ('A' for Active; 'I' for Inactive)
REMARK    1  A    between atoms: C_1  and  C_2
REMARK    2  A    between atoms: C_4  and  O_52
REMARK    3  A    between atoms: C_6  and  O_51
REMARK    4  A    between atoms: C_8  and  O_50
REMARK    5  A    between atoms: C_10  and  O_13
REMARK    6  A    between atoms: O_13  and  C_14
REMARK    7  A    between atoms: C_16  and  O_49
REMARK    8  A    between atoms: C_21  and  C_41
REMARK    9  A    between atoms: C_22  and  O_25
REMARK   10  A    between atoms: O_25  and  C_26
REMARK   11  A    between atoms: C_28  and  O_40
REMARK   12  A    between atoms: C_30  and  O_39
REMARK   13  A    between atoms: C_32  and  O_38
REMARK   14  A    between atoms: C_34  and  C_37
REMARK   15  A    between atoms: C_43  and  O_48
REMARK   16  A    between atoms: C_44  and  O_47
REMARK                            x       y       z     vdW  Elec       q    Type
REMARK                         _______ _______ _______ _____ _____    ______ ____
ROOT
ATOM      1  C   UNL     1       9.465   1.414  24.400  0.00  0.00    +0.131 A 
ATOM      2  C   UNL     1       8.477   0.853  25.201  0.00  0.00    +0.093 A 
ATOM      3  C   UNL     1       8.316  -0.532  25.268  0.00  0.00    +0.147 A 
ATOM      4  O   UNL     1       7.292  -0.959  26.055  0.00  0.00    -0.451 OA
ATOM      5  C   UNL     1       6.946  -2.298  26.062  0.00  0.00    +0.181 A 
ATOM      6  C   UNL     1       7.642  -3.269  25.428  0.00  0.00    +0.214 A 
ATOM      7  C   UNL     1       8.906  -2.848  24.722  0.00  0.00    +0.238 A 
ATOM      8  O   UNL     1       9.702  -3.692  24.324  0.00  0.00    -0.283 OA
ATOM      9  C   UNL     1       9.148  -1.392  24.567  0.00  0.00    +0.109 A 
ATOM     10  C   UNL     1      10.156  -0.829  23.774  0.00  0.00    +0.135 A 
ATOM     11  C   UNL     1      10.311   0.567  23.685  0.00  0.00    +0.092 A 
ENDROOT
BRANCH   5  12
ATOM     12  C   UNL     1       5.770  -2.454  26.935  0.00  0.00    +0.025 A 
ATOM     13  C   UNL     1       4.677  -1.582  26.793  0.00  0.00    +0.015 A 
ATOM     14  C   UNL     1       3.464  -1.863  27.425  0.00  0.00    +0.050 A 
ATOM     15  C   UNL     1       3.344  -3.026  28.171  0.00  0.00    +0.158 A 
ATOM     16  C   UNL     1       4.433  -3.870  28.360  0.00  0.00    +0.159 A 
ATOM     17  C   UNL     1       5.647  -3.599  27.740  0.00  0.00    +0.060 A 
BRANCH  15  18
ATOM     18  O   UNL     1       2.121  -3.367  28.672  0.00  0.00    -0.503 OA
ATOM     19  H   UNL     1       1.936  -2.686  29.351  0.00  0.00    +0.292 HD
ENDBRANCH  15  18
BRANCH  16  20
ATOM     20  O   UNL     1       4.251  -4.982  29.133  0.00  0.00    -0.503 OA
ATOM     21  H   UNL     1       3.491  -5.475  28.777  0.00  0.00    +0.292 HD
ENDBRANCH  16  20
ENDBRANCH   5  12
BRANCH  10  22
ATOM     22  O   UNL     1      10.992  -1.619  23.038  0.00  0.00    -0.506 OA
ATOM     23  H   UNL     1      11.553  -2.157  23.619  0.00  0.00    +0.292 HD
ENDBRANCH  10  22
BRANCH   1  24
ATOM     24  O   UNL     1       9.461   2.779  24.381  0.00  0.00    -0.461 OA
BRANCH  24  28
ATOM     25  C   UNL     1       9.178   7.045  24.404  0.00  0.00    +0.041 C 
ATOM     26  C   UNL     1       8.877   5.617  23.965  0.00  0.00    +0.150 C 
ATOM     27  O   UNL     1       8.594   4.874  25.153  0.00  0.00    -0.334 OA
ATOM     28  C   UNL     1       8.328   3.479  24.918  0.00  0.00    +0.339 C 
ATOM     29  C   UNL     1       7.139   3.297  23.956  0.00  0.00    +0.214 C 
ATOM     30  C   UNL     1       7.368   4.092  22.666  0.00  0.00    +0.180 C 
ATOM     31  C   UNL     1       7.697   5.563  22.988  0.00  0.00    +0.174 C 
BRANCH  29  32
ATOM     32  O   UNL     1       5.913   3.743  24.563  0.00  0.00    -0.383 OA
ATOM     33  H   UNL     1       6.196   4.236  25.362  0.00  0.00    +0.210 HD
ENDBRANCH  29  32
BRANCH  30  34
ATOM     34  O   UNL     1       6.180   4.045  21.864  0.00  0.00    -0.386 OA
ATOM     35  H   UNL     1       5.578   4.697  22.276  0.00  0.00    +0.210 HD
ENDBRANCH  30  34
BRANCH  31  36
ATOM     36  O   UNL     1       7.984   6.218  21.745  0.00  0.00    -0.387 OA
ATOM     37  H   UNL     1       7.368   6.967  21.665  0.00  0.00    +0.210 HD
ENDBRANCH  31  36
ENDBRANCH  24  28
ENDBRANCH   1  24
BRANCH   6  38
ATOM     38  O   UNL     1       7.423  -4.629  25.464  0.00  0.00    -0.453 OA
BRANCH  38  39
ATOM     39  C   UNL     1       6.568  -5.235  24.484  0.00  0.00    +0.339 C 
ATOM     40  O   UNL     1       5.329  -4.538  24.337  0.00  0.00    -0.334 OA
ATOM     41  C   UNL     1       4.494  -4.981  23.247  0.00  0.00    +0.150 C 
ATOM     42  C   UNL     1       3.737  -6.259  23.616  0.00  0.00    +0.041 C 
ATOM     43  C   UNL     1       5.247  -5.108  21.900  0.00  0.00    +0.174 C 
ATOM     44  C   UNL     1       6.546  -5.893  22.068  0.00  0.00    +0.180 C 
ATOM     45  C   UNL     1       7.381  -5.251  23.175  0.00  0.00    +0.214 C 
BRANCH  43  46
ATOM     46  O   UNL     1       5.540  -3.795  21.404  0.00  0.00    -0.387 OA
ATOM     47  H   UNL     1       6.125  -3.892  20.633  0.00  0.00    +0.210 HD
ENDBRANCH  43  46
BRANCH  44  48
ATOM     48  O   UNL     1       6.254  -7.262  22.384  0.00  0.00    -0.386 OA
ATOM     49  H   UNL     1       6.583  -7.792  21.629  0.00  0.00    +0.210 HD
ENDBRANCH  44  48
BRANCH  45  50
ATOM     50  O   UNL     1       8.586  -6.021  23.335  0.00  0.00    -0.383 OA
ATOM     51  H   UNL     1       9.241  -5.597  22.744  0.00  0.00    +0.210 HD
ENDBRANCH  45  50
ENDBRANCH  38  39
ENDBRANCH   6  38
TORSDOF 14
ENDMDL
MODEL 6
REMARK VINA RESULT:      -7.1      2.113      9.225
REMARK  Name = 
REMARK  16 active torsions:
REMARK  status: ('A' for Active; 'I' for Inactive)
REMARK    1  A    between atoms: C_1  and  C_2
REMARK    2  A    between atoms: C_4  and  O_52
REMARK    3  A    between atoms: C_6  and  O_51
REMARK    4  A    between atoms: C_8  and  O_50
REMARK    5  A    between atoms: C_10  and  O_13
REMARK    6  A    between atoms: O_13  and  C_14
REMARK    7  A    between atoms: C_16  and  O_49
REMARK    8  A    between atoms: C_21  and  C_41
REMARK    9  A    between atoms: C_22  and  O_25
REMARK   10  A    between atoms: O_25  and  C_26
REMARK   11  A    between atoms: C_28  and  O_40
REMARK   12  A    between atoms: C_30  and  O_39
REMARK   13  A    between atoms: C_32  and  O_38
REMARK   14  A    between atoms: C_34  and  C_37
REMARK   15  A    between atoms: C_43  and  O_48
REMARK   16  A    between atoms: C_44  and  O_47
REMARK                            x       y       z     vdW  Elec       q    Type
REMARK                         _______ _______ _______ _____ _____    ______ ____
ROOT
ATOM      1  C   UNL     1       6.244  -2.898  22.979  0.00  0.00    +0.131 A 
ATOM      2  C   UNL     1       5.911  -1.861  23.842  0.00  0.00    +0.093 A 
ATOM      3  C   UNL     1       6.774  -0.778  24.021  0.00  0.00    +0.147 A 
ATOM      4  O   UNL     1       6.356   0.154  24.920  0.00  0.00    -0.451 OA
ATOM      5  C   UNL     1       7.208   1.177  25.290  0.00  0.00    +0.181 A 
ATOM      6  C   UNL     1       8.414   1.410  24.724  0.00  0.00    +0.214 A 
ATOM      7  C   UNL     1       8.809   0.515  23.576  0.00  0.00    +0.238 A 
ATOM      8  O   UNL     1       9.771   0.802  22.871  0.00  0.00    -0.283 OA
ATOM      9  C   UNL     1       7.972  -0.685  23.329  0.00  0.00    +0.109 A 
ATOM     10  C   UNL     1       8.301  -1.721  22.445  0.00  0.00    +0.135 A 
ATOM     11  C   UNL     1       7.445  -2.825  22.275  0.00  0.00    +0.092 A 
ENDROOT
BRANCH   5  12
ATOM     12  C   UNL     1       6.524   1.981  26.318  0.00  0.00    +0.025 A 
ATOM     13  C   UNL     1       7.052   2.042  27.619  0.00  0.00    +0.015 A 
ATOM     14  C   UNL     1       6.574   2.985  28.531  0.00  0.00    +0.050 A 
ATOM     15  C   UNL     1       5.593   3.878  28.128  0.00  0.00    +0.158 A 
ATOM     16  C   UNL     1       5.028   3.796  26.860  0.00  0.00    +0.159 A 
ATOM     17  C   UNL     1       5.492   2.858  25.945  0.00  0.00    +0.060 A 
BRANCH  15  18
ATOM     18  O   UNL     1       5.228   4.885  28.975  0.00  0.00    -0.503 OA
ATOM     19  H   UNL     1       5.994   4.990  29.575  0.00  0.00    +0.292 HD
ENDBRANCH  15  18
BRANCH  16  20
ATOM     20  O   UNL     1       4.044   4.687  26.542  0.00  0.00    -0.503 OA
ATOM     21  H   UNL     1       3.185   4.254  26.691  0.00  0.00    +0.292 HD
ENDBRANCH  16  20
ENDBRANCH   5  12
BRANCH  10  22
ATOM     22  O   UNL     1       9.478  -1.703  21.752  0.00  0.00    -0.506 OA
ATOM     23  H   UNL     1      10.176  -1.281  22.277  0.00  0.00    +0.292 HD
ENDBRANCH  10  22
BRANCH   1  24
ATOM     24  O   UNL     1       5.338  -3.919  22.956  0.00  0.00    -0.461 OA
BRANCH  24  28
ATOM     25  C   UNL     1       7.338  -4.827  26.623  0.00  0.00    +0.041 C 
ATOM     26  C   UNL     1       6.195  -4.785  25.617  0.00  0.00    +0.150 C 
ATOM     27  O   UNL     1       6.723  -5.261  24.376  0.00  0.00    -0.334 OA
ATOM     28  C   UNL     1       5.773  -5.244  23.295  0.00  0.00    +0.339 C 
ATOM     29  C   UNL     1       4.534  -6.094  23.633  0.00  0.00    +0.214 C 
ATOM     30  C   UNL     1       3.931  -5.651  24.971  0.00  0.00    +0.180 C 
ATOM     31  C   UNL     1       5.008  -5.642  26.073  0.00  0.00    +0.174 C 
BRANCH  29  32
ATOM     32  O   UNL     1       4.875  -7.489  23.719  0.00  0.00    -0.383 OA
ATOM     33  H   UNL     1       4.610  -7.756  24.624  0.00  0.00    +0.210 HD
ENDBRANCH  29  32
BRANCH  30  34
ATOM     34  O   UNL     1       2.889  -6.562  25.345  0.00  0.00    -0.386 OA
ATOM     35  H   UNL     1       3.067  -6.770  26.285  0.00  0.00    +0.210 HD
ENDBRANCH  30  34
BRANCH  31  36
ATOM     36  O   UNL     1       4.393  -5.135  27.266  0.00  0.00    -0.387 OA
ATOM     37  H   UNL     1       3.431  -5.136  27.117  0.00  0.00    +0.210 HD
ENDBRANCH  31  36
ENDBRANCH  24  28
ENDBRANCH   1  24
BRANCH   6  38
ATOM     38  O   UNL     1       9.275   2.458  24.965  0.00  0.00    -0.453 OA
BRANCH  38  39
ATOM     39  C   UNL     1       8.899   3.788  24.581  0.00  0.00    +0.339 C 
ATOM     40  O   UNL     1       8.459   4.571  25.694  0.00  0.00    -0.334 OA
ATOM     41  C   UNL     1       8.235   5.969  25.418  0.00  0.00    +0.150 C 
ATOM     42  C   UNL     1       6.886   6.185  24.727  0.00  0.00    +0.041 C 
ATOM     43  C   UNL     1       9.402   6.648  24.661  0.00  0.00    +0.174 C 
ATOM     44  C   UNL     1       9.829   5.819  23.452  0.00  0.00    +0.180 C 
ATOM     45  C   UNL     1      10.142   4.394  23.905  0.00  0.00    +0.214 C 
BRANCH  43  46
ATOM     46  O   UNL     1      10.513   6.799  25.555  0.00  0.00    -0.387 OA
ATOM     47  H   UNL     1      10.839   7.711  25.474  0.00  0.00    +0.210 HD
ENDBRANCH  43  46
BRANCH  44  48
ATOM     48  O   UNL     1       8.786   5.819  22.465  0.00  0.00    -0.386 OA
ATOM     49  H   UNL     1       8.667   6.752  22.194  0.00  0.00    +0.210 HD
ENDBRANCH  44  48
BRANCH  45  50
ATOM     50  O   UNL     1      10.515   3.626  22.746  0.00  0.00    -0.383 OA
ATOM     51  H   UNL     1      10.155   2.730  22.906  0.00  0.00    +0.210 HD
ENDBRANCH  45  50
ENDBRANCH  38  39
ENDBRANCH   6  38
TORSDOF 14
ENDMDL
MODEL 7
REMARK VINA RESULT:      -7.0      2.167      9.389
REMARK  Name = 
REMARK  16 active torsions:
REMARK  status: ('A' for Active; 'I' for Inactive)
REMARK    1  A    between atoms: C_1  and  C_2
REMARK    2  A    between atoms: C_4  and  O_52
REMARK    3  A    between atoms: C_6  and  O_51
REMARK    4  A    between atoms: C_8  and  O_50
REMARK    5  A    between atoms: C_10  and  O_13
REMARK    6  A    between atoms: O_13  and  C_14
REMARK    7  A    between atoms: C_16  and  O_49
REMARK    8  A    between atoms: C_21  and  C_41
REMARK    9  A    between atoms: C_22  and  O_25
REMARK   10  A    between atoms: O_25  and  C_26
REMARK   11  A    between atoms: C_28  and  O_40
REMARK   12  A    between atoms: C_30  and  O_39
REMARK   13  A    between atoms: C_32  and  O_38
REMARK   14  A    between atoms: C_34  and  C_37
REMARK   15  A    between atoms: C_43  and  O_48
REMARK   16  A    between atoms: C_44  and  O_47
REMARK                            x       y       z     vdW  Elec       q    Type
REMARK                         _______ _______ _______ _____ _____    ______ ____
ROOT
ATOM      1  C   UNL     1       6.010  -3.194  23.237  0.00  0.00    +0.131 A 
ATOM      2  C   UNL     1       5.712  -2.149  24.103  0.00  0.00    +0.093 A 
ATOM      3  C   UNL     1       6.568  -1.051  24.216  0.00  0.00    +0.147 A 
ATOM      4  O   UNL     1       6.189  -0.112  25.125  0.00  0.00    -0.451 OA
ATOM      5  C   UNL     1       7.045   0.929  25.430  0.00  0.00    +0.181 A 
ATOM      6  C   UNL     1       8.212   1.170  24.791  0.00  0.00    +0.214 A 
ATOM      7  C   UNL     1       8.553   0.264  23.635  0.00  0.00    +0.238 A 
ATOM      8  O   UNL     1       9.468   0.554  22.871  0.00  0.00    -0.283 OA
ATOM      9  C   UNL     1       7.722  -0.952  23.454  0.00  0.00    +0.109 A 
ATOM     10  C   UNL     1       8.014  -1.996  22.567  0.00  0.00    +0.135 A 
ATOM     11  C   UNL     1       7.167  -3.114  22.462  0.00  0.00    +0.092 A 
ENDROOT
BRANCH   5  12
ATOM     12  C   UNL     1       6.410   1.738  26.485  0.00  0.00    +0.025 A 
ATOM     13  C   UNL     1       7.013   1.827  27.751  0.00  0.00    +0.015 A 
ATOM     14  C   UNL     1       6.575   2.777  28.676  0.00  0.00    +0.050 A 
ATOM     15  C   UNL     1       5.557   3.649  28.319  0.00  0.00    +0.158 A 
ATOM     16  C   UNL     1       4.920   3.538  27.088  0.00  0.00    +0.159 A 
ATOM     17  C   UNL     1       5.344   2.593  26.161  0.00  0.00    +0.060 A 
BRANCH  15  18
ATOM     18  O   UNL     1       5.226   4.663  29.171  0.00  0.00    -0.503 OA
ATOM     19  H   UNL     1       5.955   4.682  29.823  0.00  0.00    +0.292 HD
ENDBRANCH  15  18
BRANCH  16  20
ATOM     20  O   UNL     1       3.904   4.410  26.815  0.00  0.00    -0.503 OA
ATOM     21  H   UNL     1       4.252   5.104  26.228  0.00  0.00    +0.292 HD
ENDBRANCH  16  20
ENDBRANCH   5  12
BRANCH  10  22
ATOM     22  O   UNL     1       9.148  -1.971  21.807  0.00  0.00    -0.506 OA
ATOM     23  H   UNL     1       9.813  -2.580  22.166  0.00  0.00    +0.292 HD
ENDBRANCH  10  22
BRANCH   1  24
ATOM     24  O   UNL     1       5.120  -4.227  23.281  0.00  0.00    -0.461 OA
BRANCH  24  28
ATOM     25  C   UNL     1       1.289  -6.017  22.650  0.00  0.00    +0.041 C 
ATOM     26  C   UNL     1       2.695  -5.867  23.216  0.00  0.00    +0.150 C 
ATOM     27  O   UNL     1       2.789  -4.537  23.734  0.00  0.00    -0.334 OA
ATOM     28  C   UNL     1       4.082  -4.211  24.273  0.00  0.00    +0.339 C 
ATOM     29  C   UNL     1       4.471  -5.182  25.403  0.00  0.00    +0.214 C 
ATOM     30  C   UNL     1       4.368  -6.633  24.921  0.00  0.00    +0.180 C 
ATOM     31  C   UNL     1       2.979  -6.903  24.310  0.00  0.00    +0.174 C 
BRANCH  29  32
ATOM     32  O   UNL     1       3.613  -5.012  26.546  0.00  0.00    -0.383 OA
ATOM     33  H   UNL     1       4.115  -5.396  27.294  0.00  0.00    +0.210 HD
ENDBRANCH  29  32
BRANCH  30  34
ATOM     34  O   UNL     1       4.568  -7.517  26.032  0.00  0.00    -0.386 OA
ATOM     35  H   UNL     1       5.351  -7.156  26.497  0.00  0.00    +0.210 HD
ENDBRANCH  30  34
BRANCH  31  36
ATOM     36  O   UNL     1       2.989  -8.245  23.803  0.00  0.00    -0.387 OA
ATOM     37  H   UNL     1       2.711  -8.829  24.531  0.00  0.00    +0.210 HD
ENDBRANCH  31  36
ENDBRANCH  24  28
ENDBRANCH   1  24
BRANCH   6  38
ATOM     38  O   UNL     1       9.070   2.234  24.967  0.00  0.00    -0.453 OA
BRANCH  38  39
ATOM     39  C   UNL     1       8.650   3.554  24.592  0.00  0.00    +0.339 C 
ATOM     40  O   UNL     1       8.318   4.361  25.725  0.00  0.00    -0.334 OA
ATOM     41  C   UNL     1       8.060   5.751  25.440  0.00  0.00    +0.150 C 
ATOM     42  C   UNL     1       6.648   5.947  24.881  0.00  0.00    +0.041 C 
ATOM     43  C   UNL     1       9.142   6.417  24.556  0.00  0.00    +0.174 C 
ATOM     44  C   UNL     1       9.452   5.561  23.330  0.00  0.00    +0.180 C 
ATOM     45  C   UNL     1       9.817   4.148  23.782  0.00  0.00    +0.214 C 
BRANCH  43  46
ATOM     46  O   UNL     1      10.335   6.592  25.332  0.00  0.00    -0.387 OA
ATOM     47  H   UNL     1      10.212   6.126  26.177  0.00  0.00    +0.210 HD
ENDBRANCH  43  46
BRANCH  44  48
ATOM     48  O   UNL     1       8.318   5.534  22.451  0.00  0.00    -0.386 OA
ATOM     49  H   UNL     1       7.551   5.276  23.003  0.00  0.00    +0.210 HD
ENDBRANCH  44  48
BRANCH  45  50
ATOM     50  O   UNL     1      10.079   3.354  22.610  0.00  0.00    -0.383 OA
ATOM     51  H   UNL     1       9.199   3.058  22.300  0.00  0.00    +0.210 HD
ENDBRANCH  45  50
ENDBRANCH  38  39
ENDBRANCH   6  38
TORSDOF 14
ENDMDL
MODEL 8
REMARK VINA RESULT:      -7.0      2.062      9.840
REMARK  Name = 
REMARK  16 active torsions:
REMARK  status: ('A' for Active; 'I' for Inactive)
REMARK    1  A    between atoms: C_1  and  C_2
REMARK    2  A    between atoms: C_4  and  O_52
REMARK    3  A    between atoms: C_6  and  O_51
REMARK    4  A    between atoms: C_8  and  O_50
REMARK    5  A    between atoms: C_10  and  O_13
REMARK    6  A    between atoms: O_13  and  C_14
REMARK    7  A    between atoms: C_16  and  O_49
REMARK    8  A    between atoms: C_21  and  C_41
REMARK    9  A    between atoms: C_22  and  O_25
REMARK   10  A    between atoms: O_25  and  C_26
REMARK   11  A    between atoms: C_28  and  O_40
REMARK   12  A    between atoms: C_30  and  O_39
REMARK   13  A    between atoms: C_32  and  O_38
REMARK   14  A    between atoms: C_34  and  C_37
REMARK   15  A    between atoms: C_43  and  O_48
REMARK   16  A    between atoms: C_44  and  O_47
REMARK                            x       y       z     vdW  Elec       q    Type
REMARK                         _______ _______ _______ _____ _____    ______ ____
ROOT
ATOM      1  C   UNL     1       7.169  -2.967  23.742  0.00  0.00    +0.131 A 
ATOM      2  C   UNL     1       6.382  -1.821  23.757  0.00  0.00    +0.093 A 
ATOM      3  C   UNL     1       6.914  -0.588  23.377  0.00  0.00    +0.147 A 
ATOM      4  O   UNL     1       6.058   0.466  23.470  0.00  0.00    -0.451 OA
ATOM      5  C   UNL     1       6.530   1.750  23.275  0.00  0.00    +0.181 A 
ATOM      6  C   UNL     1       7.783   2.049  22.864  0.00  0.00    +0.214 A 
ATOM      7  C   UNL     1       8.690   0.886  22.550  0.00  0.00    +0.238 A 
ATOM      8  O   UNL     1       9.751   1.070  21.962  0.00  0.00    -0.283 OA
ATOM      9  C   UNL     1       8.227  -0.466  22.950  0.00  0.00    +0.109 A 
ATOM     10  C   UNL     1       9.016  -1.623  22.918  0.00  0.00    +0.135 A 
ATOM     11  C   UNL     1       8.493  -2.867  23.318  0.00  0.00    +0.092 A 
ENDROOT
BRANCH   5  12
ATOM     12  C   UNL     1       5.411   2.680  23.507  0.00  0.00    +0.025 A 
ATOM     13  C   UNL     1       5.077   3.052  24.821  0.00  0.00    +0.015 A 
ATOM     14  C   UNL     1       4.199   4.113  25.052  0.00  0.00    +0.050 A 
ATOM     15  C   UNL     1       3.684   4.812  23.971  0.00  0.00    +0.158 A 
ATOM     16  C   UNL     1       3.968   4.422  22.666  0.00  0.00    +0.159 A 
ATOM     17  C   UNL     1       4.837   3.364  22.423  0.00  0.00    +0.060 A 
BRANCH  15  18
ATOM     18  O   UNL     1       2.939   5.932  24.202  0.00  0.00    -0.503 OA
ATOM     19  H   UNL     1       2.570   6.165  23.326  0.00  0.00    +0.292 HD
ENDBRANCH  15  18
BRANCH  16  20
ATOM     20  O   UNL     1       3.401   5.136  21.649  0.00  0.00    -0.503 OA
ATOM     21  H   UNL     1       3.582   6.080  21.806  0.00  0.00    +0.292 HD
ENDBRANCH  16  20
ENDBRANCH   5  12
BRANCH  10  22
ATOM     22  O   UNL     1      10.325  -1.568  22.531  0.00  0.00    -0.506 OA
ATOM     23  H   UNL     1      10.461  -2.073  21.714  0.00  0.00    +0.292 HD
ENDBRANCH  10  22
BRANCH   1  24
ATOM     24  O   UNL     1       6.535  -4.086  24.201  0.00  0.00    -0.461 OA
BRANCH  24  28
ATOM     25  C   UNL     1       2.725  -5.611  23.003  0.00  0.00    +0.041 C 
ATOM     26  C   UNL     1       4.026  -5.537  23.793  0.00  0.00    +0.150 C 
ATOM     27  O   UNL     1       4.144  -4.192  24.265  0.00  0.00    -0.334 OA
ATOM     28  C   UNL     1       5.353  -3.937  25.002  0.00  0.00    +0.339 C 
ATOM     29  C   UNL     1       5.466  -4.873  26.220  0.00  0.00    +0.214 C 
ATOM     30  C   UNL     1       5.323  -6.336  25.785  0.00  0.00    +0.180 C 
ATOM     31  C   UNL     1       4.037  -6.532  24.959  0.00  0.00    +0.174 C 
BRANCH  29  32
ATOM     32  O   UNL     1       4.447  -4.577  27.192  0.00  0.00    -0.383 OA
ATOM     33  H   UNL     1       3.627  -4.468  26.668  0.00  0.00    +0.210 HD
ENDBRANCH  29  32
BRANCH  30  34
ATOM     34  O   UNL     1       5.261  -7.172  26.950  0.00  0.00    -0.386 OA
ATOM     35  H   UNL     1       5.563  -6.597  27.683  0.00  0.00    +0.210 HD
ENDBRANCH  30  34
BRANCH  31  36
ATOM     36  O   UNL     1       4.018  -7.896  24.516  0.00  0.00    -0.387 OA
ATOM     37  H   UNL     1       3.635  -8.427  25.237  0.00  0.00    +0.210 HD
ENDBRANCH  31  36
ENDBRANCH  24  28
ENDBRANCH   1  24
BRANCH   6  38
ATOM     38  O   UNL     1       8.301   3.288  22.555  0.00  0.00    -0.453 OA
BRANCH  38  39
ATOM     39  C   UNL     1       8.116   4.381  23.466  0.00  0.00    +0.339 C 
ATOM     40  O   UNL     1       8.940   4.264  24.629  0.00  0.00    -0.334 OA
ATOM     41  C   UNL     1       8.943   5.411  25.504  0.00  0.00    +0.150 C 
ATOM     42  C   UNL     1       7.692   5.435  26.386  0.00  0.00    +0.041 C 
ATOM     43  C   UNL     1       9.173   6.753  24.768  0.00  0.00    +0.174 C 
ATOM     44  C   UNL     1       8.254   6.879  23.555  0.00  0.00    +0.180 C 
ATOM     45  C   UNL     1       8.434   5.654  22.659  0.00  0.00    +0.214 C 
BRANCH  43  46
ATOM     46  O   UNL     1      10.540   6.824  24.344  0.00  0.00    -0.387 OA
ATOM     47  H   UNL     1      10.981   7.512  24.872  0.00  0.00    +0.210 HD
ENDBRANCH  43  46
BRANCH  44  48
ATOM     48  O   UNL     1       6.890   6.997  23.983  0.00  0.00    -0.386 OA
ATOM     49  H   UNL     1       6.463   7.626  23.366  0.00  0.00    +0.210 HD
ENDBRANCH  44  48
BRANCH  45  50
ATOM     50  O   UNL     1       7.541   5.781  21.538  0.00  0.00    -0.383 OA
ATOM     51  H   UNL     1       6.796   5.176  21.734  0.00  0.00    +0.210 HD
ENDBRANCH  45  50
ENDBRANCH  38  39
ENDBRANCH   6  38
TORSDOF 14
ENDMDL
MODEL 9
REMARK VINA RESULT:      -6.9      2.166      9.353
REMARK  Name = 
REMARK  16 active torsions:
REMARK  status: ('A' for Active; 'I' for Inactive)
REMARK    1  A    between atoms: C_1  and  C_2
REMARK    2  A    between atoms: C_4  and  O_52
REMARK    3  A    between atoms: C_6  and  O_51
REMARK    4  A    between atoms: C_8  and  O_50
REMARK    5  A    between atoms: C_10  and  O_13
REMARK    6  A    between atoms: O_13  and  C_14
REMARK    7  A    between atoms: C_16  and  O_49
REMARK    8  A    between atoms: C_21  and  C_41
REMARK    9  A    between atoms: C_22  and  O_25
REMARK   10  A    between atoms: O_25  and  C_26
REMARK   11  A    between atoms: C_28  and  O_40
REMARK   12  A    between atoms: C_30  and  O_39
REMARK   13  A    between atoms: C_32  and  O_38
REMARK   14  A    between atoms: C_34  and  C_37
REMARK   15  A    between atoms: C_43  and  O_48
REMARK   16  A    between atoms: C_44  and  O_47
REMARK                            x       y       z     vdW  Elec       q    Type
REMARK                         _______ _______ _______ _____ _____    ______ ____
ROOT
ATOM      1  C   UNL     1       7.680  -2.917  24.229  0.00  0.00    +0.131 A 
ATOM      2  C   UNL     1       6.776  -1.860  24.203  0.00  0.00    +0.093 A 
ATOM      3  C   UNL     1       7.154  -0.613  23.703  0.00  0.00    +0.147 A 
ATOM      4  O   UNL     1       6.196   0.351  23.766  0.00  0.00    -0.451 OA
ATOM      5  C   UNL     1       6.517   1.657  23.448  0.00  0.00    +0.181 A 
ATOM      6  C   UNL     1       7.709   2.049  22.945  0.00  0.00    +0.214 A 
ATOM      7  C   UNL     1       8.719   0.964  22.667  0.00  0.00    +0.238 A 
ATOM      8  O   UNL     1       9.723   1.209  22.007  0.00  0.00    -0.283 OA
ATOM      9  C   UNL     1       8.424  -0.392  23.192  0.00  0.00    +0.109 A 
ATOM     10  C   UNL     1       9.330  -1.460  23.201  0.00  0.00    +0.135 A 
ATOM     11  C   UNL     1       8.963  -2.715  23.723  0.00  0.00    +0.092 A 
ENDROOT
BRANCH   5  12
ATOM     12  C   UNL     1       5.318   2.483  23.675  0.00  0.00    +0.025 A 
ATOM     13  C   UNL     1       4.659   3.068  22.581  0.00  0.00    +0.015 A 
ATOM     14  C   UNL     1       3.393   3.636  22.741  0.00  0.00    +0.050 A 
ATOM     15  C   UNL     1       2.784   3.590  23.986  0.00  0.00    +0.158 A 
ATOM     16  C   UNL     1       3.447   3.057  25.087  0.00  0.00    +0.159 A 
ATOM     17  C   UNL     1       4.709   2.494  24.941  0.00  0.00    +0.060 A 
BRANCH  15  18
ATOM     18  O   UNL     1       1.494   4.020  24.107  0.00  0.00    -0.503 OA
ATOM     19  H   UNL     1       1.571   4.986  24.240  0.00  0.00    +0.292 HD
ENDBRANCH  15  18
BRANCH  16  20
ATOM     20  O   UNL     1       2.799   3.074  26.290  0.00  0.00    -0.503 OA
ATOM     21  H   UNL     1       2.185   3.829  26.290  0.00  0.00    +0.292 HD
ENDBRANCH  16  20
ENDBRANCH   5  12
BRANCH  10  22
ATOM     22  O   UNL     1      10.604  -1.302  22.737  0.00  0.00    -0.506 OA
ATOM     23  H   UNL     1      10.891  -2.091  22.251  0.00  0.00    +0.292 HD
ENDBRANCH  10  22
BRANCH   1  24
ATOM     24  O   UNL     1       7.193  -4.054  24.806  0.00  0.00    -0.461 OA
BRANCH  24  28
ATOM     25  C   UNL     1       4.639  -2.408  27.814  0.00  0.00    +0.041 C 
ATOM     26  C   UNL     1       5.249  -3.479  26.919  0.00  0.00    +0.150 C 
ATOM     27  O   UNL     1       6.669  -3.350  27.035  0.00  0.00    -0.334 OA
ATOM     28  C   UNL     1       7.407  -4.269  26.209  0.00  0.00    +0.339 C 
ATOM     29  C   UNL     1       7.040  -5.728  26.542  0.00  0.00    +0.214 C 
ATOM     30  C   UNL     1       5.523  -5.930  26.460  0.00  0.00    +0.180 C 
ATOM     31  C   UNL     1       4.791  -4.884  27.324  0.00  0.00    +0.174 C 
BRANCH  29  32
ATOM     32  O   UNL     1       7.484  -6.081  27.865  0.00  0.00    -0.383 OA
ATOM     33  H   UNL     1       6.894  -6.814  28.137  0.00  0.00    +0.210 HD
ENDBRANCH  29  32
BRANCH  30  34
ATOM     34  O   UNL     1       5.194  -7.242  26.937  0.00  0.00    -0.386 OA
ATOM     35  H   UNL     1       6.050  -7.623  27.222  0.00  0.00    +0.210 HD
ENDBRANCH  30  34
BRANCH  31  36
ATOM     36  O   UNL     1       3.383  -5.079  27.127  0.00  0.00    -0.387 OA
ATOM     37  H   UNL     1       3.241  -5.208  26.173  0.00  0.00    +0.210 HD
ENDBRANCH  31  36
ENDBRANCH  24  28
ENDBRANCH   1  24
BRANCH   6  38
ATOM     38  O   UNL     1       8.075   3.306  22.515  0.00  0.00    -0.453 OA
BRANCH  38  39
ATOM     39  C   UNL     1       7.994   4.417  23.419  0.00  0.00    +0.339 C 
ATOM     40  O   UNL     1       8.855   4.261  24.551  0.00  0.00    -0.334 OA
ATOM     41  C   UNL     1       8.962   5.415  25.411  0.00  0.00    +0.150 C 
ATOM     42  C   UNL     1       7.751   5.523  26.341  0.00  0.00    +0.041 C 
ATOM     43  C   UNL     1       9.243   6.733  24.651  0.00  0.00    +0.174 C 
ATOM     44  C   UNL     1       8.286   6.903  23.473  0.00  0.00    +0.180 C 
ATOM     45  C   UNL     1       8.356   5.660  22.586  0.00  0.00    +0.214 C 
BRANCH  43  46
ATOM     46  O   UNL     1      10.594   6.717  24.172  0.00  0.00    -0.387 OA
ATOM     47  H   UNL     1      10.583   6.385  23.258  0.00  0.00    +0.210 HD
ENDBRANCH  43  46
BRANCH  44  48
ATOM     48  O   UNL     1       6.949   7.107  23.952  0.00  0.00    -0.386 OA
ATOM     49  H   UNL     1       6.407   7.326  23.166  0.00  0.00    +0.210 HD
ENDBRANCH  44  48
BRANCH  45  50
ATOM     50  O   UNL     1       7.428   5.831  21.499  0.00  0.00    -0.383 OA
ATOM     51  H   UNL     1       7.754   5.241  20.789  0.00  0.00    +0.210 HD
ENDBRANCH  45  50
ENDBRANCH  38  39
ENDBRANCH   6  38
TORSDOF 14
ENDMDL
