MODEL 1
REMARK VINA RESULT:      -6.8      0.000      0.000
REMARK  Name = 
REMARK  15 active torsions:
REMARK  status: ('A' for Active; 'I' for Inactive)
REMARK    1  A    between atoms: C_1  and  C_2
REMARK    2  A    between atoms: C_3  and  O_35
REMARK    3  A    between atoms: C_5  and  O_34
REMARK    4  A    between atoms: C_6  and  O_33
REMARK    5  A    between atoms: C_8  and  O_11
REMARK    6  A    between atoms: O_11  and  C_12
REMARK    7  A    between atoms: C_13  and  C_25
REMARK    8  A    between atoms: C_17  and  O_24
REMARK    9  A    between atoms: C_19  and  O_23
REMARK   10  A    between atoms: C_27  and  O_32
REMARK   11  A    between atoms: C_28  and  O_31
REMARK   12  A    between atoms: O_35  and  C_36
REMARK   13  A    between atoms: C_36  and  C_38
REMARK   14  A    between atoms: C_38  and  C_39
REMARK   15  A    between atoms: C_39  and  O_41
REMARK                            x       y       z     vdW  Elec       q    Type
REMARK                         _______ _______ _______ _____ _____    ______ ____
ROOT
ATOM      1  C   UNL     1       7.881  -2.136  25.288  0.00  0.00    +0.214 A 
ATOM      2  C   UNL     1       7.244  -3.489  25.449  0.00  0.00    +0.238 A 
ATOM      3  O   UNL     1       7.103  -4.030  26.540  0.00  0.00    -0.283 OA
ATOM      4  C   UNL     1       6.832  -4.209  24.253  0.00  0.00    +0.109 A 
ATOM      5  C   UNL     1       7.216  -3.690  23.024  0.00  0.00    +0.147 A 
ATOM      6  C   UNL     1       6.911  -4.401  21.860  0.00  0.00    +0.092 A 
ATOM      7  C   UNL     1       6.230  -5.619  21.954  0.00  0.00    +0.124 A 
ATOM      8  C   UNL     1       5.831  -6.134  23.180  0.00  0.00    +0.091 A 
ATOM      9  O   UNL     1       7.902  -2.507  22.893  0.00  0.00    -0.451 OA
ATOM     10  C   UNL     1       6.122  -5.422  24.332  0.00  0.00    +0.135 A 
ATOM     11  C   UNL     1       8.199  -1.748  24.028  0.00  0.00    +0.181 A 
ENDROOT
BRANCH  11  12
ATOM     12  C   UNL     1       8.899  -0.460  23.714  0.00  0.00    +0.025 A 
ATOM     13  C   UNL     1      10.073  -0.088  24.404  0.00  0.00    +0.015 A 
ATOM     14  C   UNL     1      10.754   1.105  24.110  0.00  0.00    +0.050 A 
ATOM     15  C   UNL     1      10.265   1.941  23.121  0.00  0.00    +0.158 A 
ATOM     16  C   UNL     1       9.092   1.621  22.448  0.00  0.00    +0.159 A 
ATOM     17  C   UNL     1       8.398   0.446  22.753  0.00  0.00    +0.060 A 
BRANCH  15  18
ATOM     18  O   UNL     1      10.943   3.084  22.805  0.00  0.00    -0.503 OA
ATOM     19  H   UNL     1      10.939   3.112  21.827  0.00  0.00    +0.292 HD
ENDBRANCH  15  18
BRANCH  16  20
ATOM     20  O   UNL     1       8.650   2.486  21.485  0.00  0.00    -0.503 OA
ATOM     21  H   UNL     1       8.362   1.954  20.721  0.00  0.00    +0.292 HD
ENDBRANCH  16  20
ENDBRANCH  11  12
BRANCH   7  22
ATOM     22  O   UNL     1       5.924  -6.362  20.854  0.00  0.00    -0.507 OA
ATOM     23  H   UNL     1       5.174  -6.942  21.059  0.00  0.00    +0.292 HD
ENDBRANCH   7  22
BRANCH  10  24
ATOM     24  O   UNL     1       5.694  -5.916  25.532  0.00  0.00    -0.506 OA
ATOM     25  H   UNL     1       6.189  -5.516  26.264  0.00  0.00    +0.292 HD
ENDBRANCH  10  24
BRANCH   1  26
ATOM     26  O   UNL     1       8.157  -1.321  26.390  0.00  0.00    -0.453 OA
BRANCH  26  30
ATOM     27  C   UNL     1       4.161  -0.948  27.820  0.00  0.00    +0.042 C 
ATOM     28  C   UNL     1       4.745  -0.022  26.743  0.00  0.00    +0.163 C 
ATOM     29  O   UNL     1       5.924  -0.570  26.115  0.00  0.00    -0.333 OA
ATOM     30  C   UNL     1       7.048  -0.654  27.014  0.00  0.00    +0.340 C 
ATOM     31  C   UNL     1       7.458   0.762  27.508  0.00  0.00    +0.215 C 
ATOM     32  C   UNL     1       6.246   1.407  28.199  0.00  0.00    +0.192 C 
ATOM     33  C   UNL     1       5.014   1.399  27.277  0.00  0.00    +0.236 C 
BRANCH  31  34
ATOM     34  O   UNL     1       7.943   1.581  26.417  0.00  0.00    -0.383 OA
ATOM     35  H   UNL     1       7.156   1.775  25.873  0.00  0.00    +0.210 HD
ENDBRANCH  31  34
BRANCH  32  36
ATOM     36  O   UNL     1       6.572   2.752  28.592  0.00  0.00    -0.385 OA
ATOM     37  H   UNL     1       6.933   3.206  27.802  0.00  0.00    +0.210 HD
ENDBRANCH  32  36
BRANCH  33  38
ATOM     38  O   UNL     1       5.368   2.299  26.199  0.00  0.00    -0.456 OA
BRANCH  38  39
ATOM     39  C   UNL     1       4.640   2.337  25.070  0.00  0.00    +0.318 C 
ATOM     40  O   UNL     1       3.427   2.491  25.022  0.00  0.00    -0.250 OA
BRANCH  39  41
ATOM     41  C   UNL     1       5.495   2.063  23.869  0.00  0.00    +0.240 C 
BRANCH  41  42
ATOM     42  C   UNL     1       5.304   3.010  22.716  0.00  0.00    +0.316 C 
ATOM     43  O   UNL     1       6.149   3.751  22.235  0.00  0.00    -0.250 OA
BRANCH  42  44
ATOM     44  O   UNL     1       4.035   2.983  22.235  0.00  0.00    -0.480 OA
ATOM     45  H   UNL     1       3.341   2.874  22.913  0.00  0.00    +0.295 HD
ENDBRANCH  42  44
ENDBRANCH  41  42
ENDBRANCH  39  41
ENDBRANCH  38  39
ENDBRANCH  33  38
ENDBRANCH  26  30
ENDBRANCH   1  26
TORSDOF 14
ENDMDL
MODEL 2
REMARK VINA RESULT:      -6.8      1.996      5.670
REMARK  Name = 
REMARK  15 active torsions:
REMARK  status: ('A' for Active; 'I' for Inactive)
REMARK    1  A    between atoms: C_1  and  C_2
REMARK    2  A    between atoms: C_3  and  O_35
REMARK    3  A    between atoms: C_5  and  O_34
REMARK    4  A    between atoms: C_6  and  O_33
REMARK    5  A    between atoms: C_8  and  O_11
REMARK    6  A    between atoms: O_11  and  C_12
REMARK    7  A    between atoms: C_13  and  C_25
REMARK    8  A    between atoms: C_17  and  O_24
REMARK    9  A    between atoms: C_19  and  O_23
REMARK   10  A    between atoms: C_27  and  O_32
REMARK   11  A    between atoms: C_28  and  O_31
REMARK   12  A    between atoms: O_35  and  C_36
REMARK   13  A    between atoms: C_36  and  C_38
REMARK   14  A    between atoms: C_38  and  C_39
REMARK   15  A    between atoms: C_39  and  O_41
REMARK                            x       y       z     vdW  Elec       q    Type
REMARK                         _______ _______ _______ _____ _____    ______ ____
ROOT
ATOM      1  C   UNL     1       6.002  -1.099  25.061  0.00  0.00    +0.214 A 
ATOM      2  C   UNL     1       5.893  -2.381  24.283  0.00  0.00    +0.238 A 
ATOM      3  O   UNL     1       5.876  -2.413  23.057  0.00  0.00    -0.283 OA
ATOM      4  C   UNL     1       5.743  -3.629  25.017  0.00  0.00    +0.109 A 
ATOM      5  C   UNL     1       5.525  -3.549  26.385  0.00  0.00    +0.147 A 
ATOM      6  C   UNL     1       5.292  -4.723  27.107  0.00  0.00    +0.092 A 
ATOM      7  C   UNL     1       5.280  -5.952  26.439  0.00  0.00    +0.124 A 
ATOM      8  C   UNL     1       5.512  -6.038  25.073  0.00  0.00    +0.091 A 
ATOM      9  O   UNL     1       5.511  -2.360  27.073  0.00  0.00    -0.451 OA
ATOM     10  C   UNL     1       5.757  -4.875  24.362  0.00  0.00    +0.135 A 
ATOM     11  C   UNL     1       5.771  -1.165  26.396  0.00  0.00    +0.181 A 
ENDROOT
BRANCH  11  12
ATOM     12  C   UNL     1       5.775   0.036  27.294  0.00  0.00    +0.025 A 
ATOM     13  C   UNL     1       4.614   0.822  27.455  0.00  0.00    +0.015 A 
ATOM     14  C   UNL     1       4.592   1.939  28.307  0.00  0.00    +0.050 A 
ATOM     15  C   UNL     1       5.735   2.283  29.006  0.00  0.00    +0.158 A 
ATOM     16  C   UNL     1       6.905   1.551  28.842  0.00  0.00    +0.159 A 
ATOM     17  C   UNL     1       6.939   0.452  27.978  0.00  0.00    +0.060 A 
BRANCH  15  18
ATOM     18  O   UNL     1       5.710   3.345  29.865  0.00  0.00    -0.503 OA
ATOM     19  H   UNL     1       4.766   3.596  29.922  0.00  0.00    +0.292 HD
ENDBRANCH  15  18
BRANCH  16  20
ATOM     20  O   UNL     1       8.008   1.939  29.553  0.00  0.00    -0.503 OA
ATOM     21  H   UNL     1       7.871   1.669  30.479  0.00  0.00    +0.292 HD
ENDBRANCH  16  20
ENDBRANCH  11  12
BRANCH   7  22
ATOM     22  O   UNL     1       5.039  -7.125  27.090  0.00  0.00    -0.507 OA
ATOM     23  H   UNL     1       4.638  -6.934  27.953  0.00  0.00    +0.292 HD
ENDBRANCH   7  22
BRANCH  10  24
ATOM     24  O   UNL     1       6.023  -4.970  23.025  0.00  0.00    -0.506 OA
ATOM     25  H   UNL     1       6.476  -4.173  22.708  0.00  0.00    +0.292 HD
ENDBRANCH  10  24
BRANCH   1  26
ATOM     26  O   UNL     1       6.305   0.114  24.436  0.00  0.00    -0.453 OA
BRANCH  26  30
ATOM     27  C   UNL     1      10.536  -0.134  24.868  0.00  0.00    +0.042 C 
ATOM     28  C   UNL     1       9.786   1.205  24.823  0.00  0.00    +0.163 C 
ATOM     29  O   UNL     1       8.375   1.064  25.098  0.00  0.00    -0.333 OA
ATOM     30  C   UNL     1       7.673   0.344  24.064  0.00  0.00    +0.340 C 
ATOM     31  C   UNL     1       7.761   1.109  22.713  0.00  0.00    +0.215 C 
ATOM     32  C   UNL     1       9.243   1.289  22.351  0.00  0.00    +0.192 C 
ATOM     33  C   UNL     1      10.016   1.960  23.499  0.00  0.00    +0.236 C 
BRANCH  31  34
ATOM     34  O   UNL     1       7.074   2.381  22.782  0.00  0.00    -0.383 OA
ATOM     35  H   UNL     1       7.050   2.709  21.863  0.00  0.00    +0.210 HD
ENDBRANCH  31  34
BRANCH  32  36
ATOM     36  O   UNL     1       9.355   2.067  21.146  0.00  0.00    -0.385 OA
ATOM     37  H   UNL     1      10.263   2.434  21.121  0.00  0.00    +0.210 HD
ENDBRANCH  32  36
BRANCH  33  38
ATOM     38  O   UNL     1       9.469   3.299  23.564  0.00  0.00    -0.456 OA
BRANCH  38  39
ATOM     39  C   UNL     1      10.275   4.362  23.728  0.00  0.00    +0.318 C 
ATOM     40  O   UNL     1       9.905   5.477  24.070  0.00  0.00    -0.250 OA
BRANCH  39  41
ATOM     41  C   UNL     1      11.685   4.035  23.336  0.00  0.00    +0.240 C 
BRANCH  41  42
ATOM     42  C   UNL     1      12.572   5.222  23.079  0.00  0.00    +0.316 C 
ATOM     43  O   UNL     1      13.004   5.587  21.996  0.00  0.00    -0.250 OA
BRANCH  42  44
ATOM     44  O   UNL     1      12.885   5.885  24.222  0.00  0.00    -0.480 OA
ATOM     45  H   UNL     1      12.380   6.706  24.373  0.00  0.00    +0.295 HD
ENDBRANCH  42  44
ENDBRANCH  41  42
ENDBRANCH  39  41
ENDBRANCH  38  39
ENDBRANCH  33  38
ENDBRANCH  26  30
ENDBRANCH   1  26
TORSDOF 14
ENDMDL
MODEL 3
REMARK VINA RESULT:      -6.7      2.577      7.467
REMARK  Name = 
REMARK  15 active torsions:
REMARK  status: ('A' for Active; 'I' for Inactive)
REMARK    1  A    between atoms: C_1  and  C_2
REMARK    2  A    between atoms: C_3  and  O_35
REMARK    3  A    between atoms: C_5  and  O_34
REMARK    4  A    between atoms: C_6  and  O_33
REMARK    5  A    between atoms: C_8  and  O_11
REMARK    6  A    between atoms: O_11  and  C_12
REMARK    7  A    between atoms: C_13  and  C_25
REMARK    8  A    between atoms: C_17  and  O_24
REMARK    9  A    between atoms: C_19  and  O_23
REMARK   10  A    between atoms: C_27  and  O_32
REMARK   11  A    between atoms: C_28  and  O_31
REMARK   12  A    between atoms: O_35  and  C_36
REMARK   13  A    between atoms: C_36  and  C_38
REMARK   14  A    between atoms: C_38  and  C_39
REMARK   15  A    between atoms: C_39  and  O_41
REMARK                            x       y       z     vdW  Elec       q    Type
REMARK                         _______ _______ _______ _____ _____    ______ ____
ROOT
ATOM      1  C   UNL     1       7.429  -2.674  24.831  0.00  0.00    +0.214 A 
ATOM      2  C   UNL     1       8.598  -2.434  23.916  0.00  0.00    +0.238 A 
ATOM      3  O   UNL     1       9.498  -3.253  23.762  0.00  0.00    -0.283 OA
ATOM      4  C   UNL     1       8.693  -1.153  23.231  0.00  0.00    +0.109 A 
ATOM      5  C   UNL     1       7.800  -0.158  23.601  0.00  0.00    +0.147 A 
ATOM      6  C   UNL     1       7.918   1.110  23.024  0.00  0.00    +0.092 A 
ATOM      7  C   UNL     1       8.932   1.353  22.092  0.00  0.00    +0.124 A 
ATOM      8  C   UNL     1       9.818   0.355  21.708  0.00  0.00    +0.091 A 
ATOM      9  O   UNL     1       6.803  -0.352  24.526  0.00  0.00    -0.451 OA
ATOM     10  C   UNL     1       9.692  -0.905  22.270  0.00  0.00    +0.135 A 
ATOM     11  C   UNL     1       6.630  -1.613  25.103  0.00  0.00    +0.181 A 
ENDROOT
BRANCH  11  12
ATOM     12  C   UNL     1       5.467  -1.677  26.048  0.00  0.00    +0.025 A 
ATOM     13  C   UNL     1       5.647  -1.456  27.431  0.00  0.00    +0.015 A 
ATOM     14  C   UNL     1       4.568  -1.491  28.329  0.00  0.00    +0.050 A 
ATOM     15  C   UNL     1       3.295  -1.752  27.853  0.00  0.00    +0.158 A 
ATOM     16  C   UNL     1       3.090  -2.010  26.503  0.00  0.00    +0.159 A 
ATOM     17  C   UNL     1       4.164  -1.997  25.608  0.00  0.00    +0.060 A 
BRANCH  15  18
ATOM     18  O   UNL     1       2.236  -1.752  28.716  0.00  0.00    -0.503 OA
ATOM     19  H   UNL     1       1.887  -2.665  28.680  0.00  0.00    +0.292 HD
ENDBRANCH  15  18
BRANCH  16  20
ATOM     20  O   UNL     1       1.812  -2.268  26.087  0.00  0.00    -0.503 OA
ATOM     21  H   UNL     1       1.260  -1.506  26.341  0.00  0.00    +0.292 HD
ENDBRANCH  16  20
ENDBRANCH  11  12
BRANCH   7  22
ATOM     22  O   UNL     1       9.105   2.575  21.514  0.00  0.00    -0.507 OA
ATOM     23  H   UNL     1       8.259   2.876  21.145  0.00  0.00    +0.292 HD
ENDBRANCH   7  22
BRANCH  10  24
ATOM     24  O   UNL     1      10.543  -1.892  21.860  0.00  0.00    -0.506 OA
ATOM     25  H   UNL     1      11.176  -1.551  21.209  0.00  0.00    +0.292 HD
ENDBRANCH  10  24
BRANCH   1  26
ATOM     26  O   UNL     1       7.187  -3.929  25.397  0.00  0.00    -0.453 OA
BRANCH  26  30
ATOM     27  C   UNL     1       6.233  -5.937  21.762  0.00  0.00    +0.042 C 
ATOM     28  C   UNL     1       5.174  -5.225  22.617  0.00  0.00    +0.163 C 
ATOM     29  O   UNL     1       5.749  -4.277  23.542  0.00  0.00    -0.333 OA
ATOM     30  C   UNL     1       6.529  -4.909  24.578  0.00  0.00    +0.340 C 
ATOM     31  C   UNL     1       5.634  -5.844  25.439  0.00  0.00    +0.215 C 
ATOM     32  C   UNL     1       4.992  -6.891  24.516  0.00  0.00    +0.192 C 
ATOM     33  C   UNL     1       4.249  -6.217  23.349  0.00  0.00    +0.236 C 
BRANCH  31  34
ATOM     34  O   UNL     1       4.633  -5.092  26.166  0.00  0.00    -0.383 OA
ATOM     35  H   UNL     1       4.656  -5.447  27.075  0.00  0.00    +0.210 HD
ENDBRANCH  31  34
BRANCH  32  36
ATOM     36  O   UNL     1       4.092  -7.718  25.275  0.00  0.00    -0.385 OA
ATOM     37  H   UNL     1       4.627  -8.185  25.951  0.00  0.00    +0.210 HD
ENDBRANCH  32  36
BRANCH  33  38
ATOM     38  O   UNL     1       3.143  -5.528  23.979  0.00  0.00    -0.456 OA
BRANCH  38  39
ATOM     39  C   UNL     1       1.886  -5.693  23.531  0.00  0.00    +0.318 C 
ATOM     40  O   UNL     1       1.583  -5.965  22.378  0.00  0.00    -0.250 OA
BRANCH  39  41
ATOM     41  C   UNL     1       0.888  -5.401  24.610  0.00  0.00    +0.240 C 
BRANCH  41  42
ATOM     42  C   UNL     1       1.303  -5.810  25.997  0.00  0.00    +0.316 C 
ATOM     43  O   UNL     1       1.517  -5.065  26.942  0.00  0.00    -0.250 OA
BRANCH  42  44
ATOM     44  O   UNL     1       1.445  -7.155  26.114  0.00  0.00    -0.480 OA
ATOM     45  H   UNL     1       1.166  -7.668  25.331  0.00  0.00    +0.295 HD
ENDBRANCH  42  44
ENDBRANCH  41  42
ENDBRANCH  39  41
ENDBRANCH  38  39
ENDBRANCH  33  38
ENDBRANCH  26  30
ENDBRANCH   1  26
TORSDOF 14
ENDMDL
MODEL 4
REMARK VINA RESULT:      -6.6      2.080      5.199
REMARK  Name = 
REMARK  15 active torsions:
REMARK  status: ('A' for Active; 'I' for Inactive)
REMARK    1  A    between atoms: C_1  and  C_2
REMARK    2  A    between atoms: C_3  and  O_35
REMARK    3  A    between atoms: C_5  and  O_34
REMARK    4  A    between atoms: C_6  and  O_33
REMARK    5  A    between atoms: C_8  and  O_11
REMARK    6  A    between atoms: O_11  and  C_12
REMARK    7  A    between atoms: C_13  and  C_25
REMARK    8  A    between atoms: C_17  and  O_24
REMARK    9  A    between atoms: C_19  and  O_23
REMARK   10  A    between atoms: C_27  and  O_32
REMARK   11  A    between atoms: C_28  and  O_31
REMARK   12  A    between atoms: O_35  and  C_36
REMARK   13  A    between atoms: C_36  and  C_38
REMARK   14  A    between atoms: C_38  and  C_39
REMARK   15  A    between atoms: C_39  and  O_41
REMARK                            x       y       z     vdW  Elec       q    Type
REMARK                         _______ _______ _______ _____ _____    ______ ____
ROOT
ATOM      1  C   UNL     1       5.731  -1.430  25.268  0.00  0.00    +0.214 A 
ATOM      2  C   UNL     1       5.612  -2.771  24.598  0.00  0.00    +0.238 A 
ATOM      3  O   UNL     1       5.498  -2.898  23.383  0.00  0.00    -0.283 OA
ATOM      4  C   UNL     1       5.570  -3.964  25.431  0.00  0.00    +0.109 A 
ATOM      5  C   UNL     1       5.458  -3.786  26.803  0.00  0.00    +0.147 A 
ATOM      6  C   UNL     1       5.330  -4.908  27.627  0.00  0.00    +0.092 A 
ATOM      7  C   UNL     1       5.314  -6.185  27.055  0.00  0.00    +0.124 A 
ATOM      8  C   UNL     1       5.440  -6.367  25.684  0.00  0.00    +0.091 A 
ATOM      9  O   UNL     1       5.452  -2.549  27.400  0.00  0.00    -0.451 OA
ATOM     10  C   UNL     1       5.581  -5.255  24.871  0.00  0.00    +0.135 A 
ATOM     11  C   UNL     1       5.610  -1.401  26.618  0.00  0.00    +0.181 A 
ENDROOT
BRANCH  11  12
ATOM     12  C   UNL     1       5.639  -0.135  27.421  0.00  0.00    +0.025 A 
ATOM     13  C   UNL     1       4.466   0.628  27.608  0.00  0.00    +0.015 A 
ATOM     14  C   UNL     1       4.468   1.806  28.374  0.00  0.00    +0.050 A 
ATOM     15  C   UNL     1       5.647   2.234  28.960  0.00  0.00    +0.158 A 
ATOM     16  C   UNL     1       6.826   1.524  28.766  0.00  0.00    +0.159 A 
ATOM     17  C   UNL     1       6.834   0.364  27.986  0.00  0.00    +0.060 A 
BRANCH  15  18
ATOM     18  O   UNL     1       5.648   3.358  29.737  0.00  0.00    -0.503 OA
ATOM     19  H   UNL     1       6.567   3.431  30.065  0.00  0.00    +0.292 HD
ENDBRANCH  15  18
BRANCH  16  20
ATOM     20  O   UNL     1       7.963   1.995  29.362  0.00  0.00    -0.503 OA
ATOM     21  H   UNL     1       7.692   2.528  30.132  0.00  0.00    +0.292 HD
ENDBRANCH  16  20
ENDBRANCH  11  12
BRANCH   7  22
ATOM     22  O   UNL     1       5.171  -7.312  27.808  0.00  0.00    -0.507 OA
ATOM     23  H   UNL     1       4.983  -8.064  27.224  0.00  0.00    +0.292 HD
ENDBRANCH   7  22
BRANCH  10  24
ATOM     24  O   UNL     1       5.742  -5.443  23.527  0.00  0.00    -0.506 OA
ATOM     25  H   UNL     1       6.434  -6.102  23.354  0.00  0.00    +0.292 HD
ENDBRANCH  10  24
BRANCH   1  26
ATOM     26  O   UNL     1       5.935  -0.259  24.531  0.00  0.00    -0.453 OA
BRANCH  26  30
ATOM     27  C   UNL     1      10.139   0.191  25.057  0.00  0.00    +0.042 C 
ATOM     28  C   UNL     1       9.229   1.353  24.634  0.00  0.00    +0.163 C 
ATOM     29  O   UNL     1       7.836   1.105  24.923  0.00  0.00    -0.333 OA
ATOM     30  C   UNL     1       7.279   0.041  24.123  0.00  0.00    +0.340 C 
ATOM     31  C   UNL     1       7.333   0.410  22.614  0.00  0.00    +0.215 C 
ATOM     32  C   UNL     1       8.796   0.681  22.231  0.00  0.00    +0.192 C 
ATOM     33  C   UNL     1       9.424   1.739  23.154  0.00  0.00    +0.236 C 
BRANCH  31  34
ATOM     34  O   UNL     1       6.489   1.548  22.319  0.00  0.00    -0.383 OA
ATOM     35  H   UNL     1       5.687   1.172  21.909  0.00  0.00    +0.210 HD
ENDBRANCH  31  34
BRANCH  32  36
ATOM     36  O   UNL     1       8.865   1.105  20.858  0.00  0.00    -0.385 OA
ATOM     37  H   UNL     1       9.657   1.676  20.770  0.00  0.00    +0.210 HD
ENDBRANCH  32  36
BRANCH  33  38
ATOM     38  O   UNL     1       8.710   2.958  22.838  0.00  0.00    -0.456 OA
BRANCH  38  39
ATOM     39  C   UNL     1       9.045   4.121  23.424  0.00  0.00    +0.318 C 
ATOM     40  O   UNL     1      10.155   4.393  23.858  0.00  0.00    -0.250 OA
BRANCH  39  41
ATOM     41  C   UNL     1       7.849   5.013  23.571  0.00  0.00    +0.240 C 
BRANCH  41  42
ATOM     42  C   UNL     1       7.151   5.368  22.286  0.00  0.00    +0.316 C 
ATOM     43  O   UNL     1       7.258   6.416  21.666  0.00  0.00    -0.250 OA
BRANCH  42  44
ATOM     44  O   UNL     1       6.332   4.375  21.856  0.00  0.00    -0.480 OA
ATOM     45  H   UNL     1       5.429   4.397  22.226  0.00  0.00    +0.295 HD
ENDBRANCH  42  44
ENDBRANCH  41  42
ENDBRANCH  39  41
ENDBRANCH  38  39
ENDBRANCH  33  38
ENDBRANCH  26  30
ENDBRANCH   1  26
TORSDOF 14
ENDMDL
MODEL 5
REMARK VINA RESULT:      -6.6      1.967      6.527
REMARK  Name = 
REMARK  15 active torsions:
REMARK  status: ('A' for Active; 'I' for Inactive)
REMARK    1  A    between atoms: C_1  and  C_2
REMARK    2  A    between atoms: C_3  and  O_35
REMARK    3  A    between atoms: C_5  and  O_34
REMARK    4  A    between atoms: C_6  and  O_33
REMARK    5  A    between atoms: C_8  and  O_11
REMARK    6  A    between atoms: O_11  and  C_12
REMARK    7  A    between atoms: C_13  and  C_25
REMARK    8  A    between atoms: C_17  and  O_24
REMARK    9  A    between atoms: C_19  and  O_23
REMARK   10  A    between atoms: C_27  and  O_32
REMARK   11  A    between atoms: C_28  and  O_31
REMARK   12  A    between atoms: O_35  and  C_36
REMARK   13  A    between atoms: C_36  and  C_38
REMARK   14  A    between atoms: C_38  and  C_39
REMARK   15  A    between atoms: C_39  and  O_41
REMARK                            x       y       z     vdW  Elec       q    Type
REMARK                         _______ _______ _______ _____ _____    ______ ____
ROOT
ATOM      1  C   UNL     1       6.957  -0.508  26.128  0.00  0.00    +0.214 A 
ATOM      2  C   UNL     1       5.821  -0.954  27.007  0.00  0.00    +0.238 A 
ATOM      3  O   UNL     1       5.800  -2.049  27.558  0.00  0.00    -0.283 OA
ATOM      4  C   UNL     1       4.674  -0.072  27.161  0.00  0.00    +0.109 A 
ATOM      5  C   UNL     1       4.609   1.049  26.345  0.00  0.00    +0.147 A 
ATOM      6  C   UNL     1       3.480   1.871  26.407  0.00  0.00    +0.092 A 
ATOM      7  C   UNL     1       2.440   1.550  27.284  0.00  0.00    +0.124 A 
ATOM      8  C   UNL     1       2.507   0.437  28.112  0.00  0.00    +0.091 A 
ATOM      9  O   UNL     1       5.602   1.388  25.458  0.00  0.00    -0.451 OA
ATOM     10  C   UNL     1       3.632  -0.369  28.060  0.00  0.00    +0.135 A 
ATOM     11  C   UNL     1       6.762   0.611  25.387  0.00  0.00    +0.181 A 
ENDROOT
BRANCH  11  12
ATOM     12  C   UNL     1       7.772   1.143  24.414  0.00  0.00    +0.025 A 
ATOM     13  C   UNL     1       8.830   1.968  24.850  0.00  0.00    +0.015 A 
ATOM     14  C   UNL     1       9.798   2.460  23.958  0.00  0.00    +0.050 A 
ATOM     15  C   UNL     1       9.715   2.130  22.617  0.00  0.00    +0.158 A 
ATOM     16  C   UNL     1       8.665   1.348  22.149  0.00  0.00    +0.159 A 
ATOM     17  C   UNL     1       7.687   0.876  23.029  0.00  0.00    +0.060 A 
BRANCH  15  18
ATOM     18  O   UNL     1      10.673   2.573  21.750  0.00  0.00    -0.503 OA
ATOM     19  H   UNL     1      10.195   2.728  20.910  0.00  0.00    +0.292 HD
ENDBRANCH  15  18
BRANCH  16  20
ATOM     20  O   UNL     1       8.628   1.058  20.813  0.00  0.00    -0.503 OA
ATOM     21  H   UNL     1       8.435   1.887  20.337  0.00  0.00    +0.292 HD
ENDBRANCH  16  20
ENDBRANCH  11  12
BRANCH   7  22
ATOM     22  O   UNL     1       1.309   2.305  27.371  0.00  0.00    -0.507 OA
ATOM     23  H   UNL     1       1.022   2.344  28.297  0.00  0.00    +0.292 HD
ENDBRANCH   7  22
BRANCH  10  24
ATOM     24  O   UNL     1       3.709  -1.440  28.905  0.00  0.00    -0.506 OA
ATOM     25  H   UNL     1       2.945  -2.027  28.785  0.00  0.00    +0.292 HD
ENDBRANCH  10  24
BRANCH   1  26
ATOM     26  O   UNL     1       8.154  -1.226  26.057  0.00  0.00    -0.453 OA
BRANCH  26  30
ATOM     27  C   UNL     1       7.657  -3.223  22.327  0.00  0.00    +0.042 C 
ATOM     28  C   UNL     1       6.924  -3.659  23.603  0.00  0.00    +0.163 C 
ATOM     29  O   UNL     1       6.898  -2.627  24.613  0.00  0.00    -0.333 OA
ATOM     30  C   UNL     1       8.204  -2.342  25.154  0.00  0.00    +0.340 C 
ATOM     31  C   UNL     1       8.788  -3.600  25.857  0.00  0.00    +0.215 C 
ATOM     32  C   UNL     1       8.853  -4.744  24.834  0.00  0.00    +0.192 C 
ATOM     33  C   UNL     1       7.481  -4.977  24.177  0.00  0.00    +0.236 C 
BRANCH  31  34
ATOM     34  O   UNL     1       8.002  -3.968  27.016  0.00  0.00    -0.383 OA
ATOM     35  H   UNL     1       8.410  -3.491  27.764  0.00  0.00    +0.210 HD
ENDBRANCH  31  34
BRANCH  32  36
ATOM     36  O   UNL     1       9.312  -5.945  25.480  0.00  0.00    -0.385 OA
ATOM     37  H   UNL     1       9.530  -5.711  26.407  0.00  0.00    +0.210 HD
ENDBRANCH  32  36
BRANCH  33  38
ATOM     38  O   UNL     1       6.648  -5.468  25.253  0.00  0.00    -0.456 OA
BRANCH  38  39
ATOM     39  C   UNL     1       5.495  -6.110  24.991  0.00  0.00    +0.318 C 
ATOM     40  O   UNL     1       5.139  -6.488  23.883  0.00  0.00    -0.250 OA
BRANCH  39  41
ATOM     41  C   UNL     1       4.646  -6.215  26.222  0.00  0.00    +0.240 C 
BRANCH  41  42
ATOM     42  C   UNL     1       5.400  -6.220  27.523  0.00  0.00    +0.316 C 
ATOM     43  O   UNL     1       5.794  -7.203  28.132  0.00  0.00    -0.250 OA
BRANCH  42  44
ATOM     44  O   UNL     1       5.604  -4.966  28.003  0.00  0.00    -0.480 OA
ATOM     45  H   UNL     1       6.471  -4.824  28.429  0.00  0.00    +0.295 HD
ENDBRANCH  42  44
ENDBRANCH  41  42
ENDBRANCH  39  41
ENDBRANCH  38  39
ENDBRANCH  33  38
ENDBRANCH  26  30
ENDBRANCH   1  26
TORSDOF 14
ENDMDL
MODEL 6
REMARK VINA RESULT:      -6.6      2.255      7.696
REMARK  Name = 
REMARK  15 active torsions:
REMARK  status: ('A' for Active; 'I' for Inactive)
REMARK    1  A    between atoms: C_1  and  C_2
REMARK    2  A    between atoms: C_3  and  O_35
REMARK    3  A    between atoms: C_5  and  O_34
REMARK    4  A    between atoms: C_6  and  O_33
REMARK    5  A    between atoms: C_8  and  O_11
REMARK    6  A    between atoms: O_11  and  C_12
REMARK    7  A    between atoms: C_13  and  C_25
REMARK    8  A    between atoms: C_17  and  O_24
REMARK    9  A    between atoms: C_19  and  O_23
REMARK   10  A    between atoms: C_27  and  O_32
REMARK   11  A    between atoms: C_28  and  O_31
REMARK   12  A    between atoms: O_35  and  C_36
REMARK   13  A    between atoms: C_36  and  C_38
REMARK   14  A    between atoms: C_38  and  C_39
REMARK   15  A    between atoms: C_39  and  O_41
REMARK                            x       y       z     vdW  Elec       q    Type
REMARK                         _______ _______ _______ _____ _____    ______ ____
ROOT
ATOM      1  C   UNL     1       8.007  -0.014  25.965  0.00  0.00    +0.214 A 
ATOM      2  C   UNL     1       9.232   0.395  25.195  0.00  0.00    +0.238 A 
ATOM      3  O   UNL     1      10.192  -0.352  25.031  0.00  0.00    -0.283 OA
ATOM      4  C   UNL     1       9.306   1.752  24.674  0.00  0.00    +0.109 A 
ATOM      5  C   UNL     1       8.324   2.648  25.072  0.00  0.00    +0.147 A 
ATOM      6  C   UNL     1       8.411   3.981  24.659  0.00  0.00    +0.092 A 
ATOM      7  C   UNL     1       9.483   4.386  23.858  0.00  0.00    +0.124 A 
ATOM      8  C   UNL     1      10.459   3.489  23.445  0.00  0.00    +0.091 A 
ATOM      9  O   UNL     1       7.266   2.293  25.874  0.00  0.00    -0.451 OA
ATOM     10  C   UNL     1      10.365   2.166  23.843  0.00  0.00    +0.135 A 
ATOM     11  C   UNL     1       7.123   0.964  26.284  0.00  0.00    +0.181 A 
ENDROOT
BRANCH  11  12
ATOM     12  C   UNL     1       5.891   0.727  27.105  0.00  0.00    +0.025 A 
ATOM     13  C   UNL     1       5.927   0.840  28.511  0.00  0.00    +0.015 A 
ATOM     14  C   UNL     1       4.779   0.641  29.296  0.00  0.00    +0.050 A 
ATOM     15  C   UNL     1       3.581   0.324  28.680  0.00  0.00    +0.158 A 
ATOM     16  C   UNL     1       3.520   0.170  27.300  0.00  0.00    +0.159 A 
ATOM     17  C   UNL     1       4.664   0.345  26.517  0.00  0.00    +0.060 A 
BRANCH  15  18
ATOM     18  O   UNL     1       2.453   0.166  29.434  0.00  0.00    -0.503 OA
ATOM     19  H   UNL     1       2.395   0.984  29.969  0.00  0.00    +0.292 HD
ENDBRANCH  15  18
BRANCH  16  20
ATOM     20  O   UNL     1       2.312  -0.150  26.744  0.00  0.00    -0.503 OA
ATOM     21  H   UNL     1       2.487  -0.661  25.933  0.00  0.00    +0.292 HD
ENDBRANCH  16  20
ENDBRANCH  11  12
BRANCH   7  22
ATOM     22  O   UNL     1       9.628   5.675  23.443  0.00  0.00    -0.507 OA
ATOM     23  H   UNL     1      10.434   6.048  23.836  0.00  0.00    +0.292 HD
ENDBRANCH   7  22
BRANCH  10  24
ATOM     24  O   UNL     1      11.307   1.280  23.402  0.00  0.00    -0.506 OA
ATOM     25  H   UNL     1      11.616   0.717  24.129  0.00  0.00    +0.292 HD
ENDBRANCH  10  24
BRANCH   1  26
ATOM     26  O   UNL     1       7.796  -1.339  26.358  0.00  0.00    -0.453 OA
BRANCH  26  30
ATOM     27  C   UNL     1       5.670  -2.874  23.001  0.00  0.00    +0.042 C 
ATOM     28  C   UNL     1       5.733  -3.610  24.347  0.00  0.00    +0.163 C 
ATOM     29  O   UNL     1       6.124  -2.747  25.437  0.00  0.00    -0.333 OA
ATOM     30  C   UNL     1       7.489  -2.294  25.330  0.00  0.00    +0.340 C 
ATOM     31  C   UNL     1       8.468  -3.500  25.381  0.00  0.00    +0.215 C 
ATOM     32  C   UNL     1       8.115  -4.463  24.237  0.00  0.00    +0.192 C 
ATOM     33  C   UNL     1       6.631  -4.862  24.288  0.00  0.00    +0.236 C 
BRANCH  31  34
ATOM     34  O   UNL     1       8.420  -4.164  26.666  0.00  0.00    -0.383 OA
ATOM     35  H   UNL     1       7.823  -3.619  27.213  0.00  0.00    +0.210 HD
ENDBRANCH  31  34
BRANCH  32  36
ATOM     36  O   UNL     1       8.954  -5.630  24.311  0.00  0.00    -0.385 OA
ATOM     37  H   UNL     1       8.369  -6.397  24.486  0.00  0.00    +0.210 HD
ENDBRANCH  32  36
BRANCH  33  38
ATOM     38  O   UNL     1       6.512  -5.643  25.500  0.00  0.00    -0.456 OA
BRANCH  38  39
ATOM     39  C   UNL     1       5.403  -6.362  25.747  0.00  0.00    +0.318 C 
ATOM     40  O   UNL     1       4.736  -6.938  24.899  0.00  0.00    -0.250 OA
BRANCH  39  41
ATOM     41  C   UNL     1       5.024  -6.286  27.196  0.00  0.00    +0.240 C 
BRANCH  41  42
ATOM     42  C   UNL     1       5.910  -5.418  28.047  0.00  0.00    +0.316 C 
ATOM     43  O   UNL     1       6.777  -5.800  28.820  0.00  0.00    -0.250 OA
BRANCH  42  44
ATOM     44  O   UNL     1       5.641  -4.097  27.886  0.00  0.00    -0.480 OA
ATOM     45  H   UNL     1       4.776  -3.809  28.235  0.00  0.00    +0.295 HD
ENDBRANCH  42  44
ENDBRANCH  41  42
ENDBRANCH  39  41
ENDBRANCH  38  39
ENDBRANCH  33  38
ENDBRANCH  26  30
ENDBRANCH   1  26
TORSDOF 14
ENDMDL
MODEL 7
REMARK VINA RESULT:      -6.6      2.469      7.396
REMARK  Name = 
REMARK  15 active torsions:
REMARK  status: ('A' for Active; 'I' for Inactive)
REMARK    1  A    between atoms: C_1  and  C_2
REMARK    2  A    between atoms: C_3  and  O_35
REMARK    3  A    between atoms: C_5  and  O_34
REMARK    4  A    between atoms: C_6  and  O_33
REMARK    5  A    between atoms: C_8  and  O_11
REMARK    6  A    between atoms: O_11  and  C_12
REMARK    7  A    between atoms: C_13  and  C_25
REMARK    8  A    between atoms: C_17  and  O_24
REMARK    9  A    between atoms: C_19  and  O_23
REMARK   10  A    between atoms: C_27  and  O_32
REMARK   11  A    between atoms: C_28  and  O_31
REMARK   12  A    between atoms: O_35  and  C_36
REMARK   13  A    between atoms: C_36  and  C_38
REMARK   14  A    between atoms: C_38  and  C_39
REMARK   15  A    between atoms: C_39  and  O_41
REMARK                            x       y       z     vdW  Elec       q    Type
REMARK                         _______ _______ _______ _____ _____    ______ ____
ROOT
ATOM      1  C   UNL     1       5.073  -1.260  25.717  0.00  0.00    +0.214 A 
ATOM      2  C   UNL     1       4.975   0.240  25.660  0.00  0.00    +0.238 A 
ATOM      3  O   UNL     1       5.326   0.891  24.681  0.00  0.00    -0.283 OA
ATOM      4  C   UNL     1       4.498   0.950  26.837  0.00  0.00    +0.109 A 
ATOM      5  C   UNL     1       4.336   0.222  28.007  0.00  0.00    +0.147 A 
ATOM      6  C   UNL     1       3.961   0.887  29.178  0.00  0.00    +0.092 A 
ATOM      7  C   UNL     1       3.762   2.271  29.150  0.00  0.00    +0.124 A 
ATOM      8  C   UNL     1       3.910   3.002  27.979  0.00  0.00    +0.091 A 
ATOM      9  O   UNL     1       4.540  -1.135  28.078  0.00  0.00    -0.451 OA
ATOM     10  C   UNL     1       4.267   2.339  26.816  0.00  0.00    +0.135 A 
ATOM     11  C   UNL     1       4.884  -1.846  26.925  0.00  0.00    +0.181 A 
ENDROOT
BRANCH  11  12
ATOM     12  C   UNL     1       5.016  -3.322  27.155  0.00  0.00    +0.025 A 
ATOM     13  C   UNL     1       3.877  -4.155  27.173  0.00  0.00    +0.015 A 
ATOM     14  C   UNL     1       3.982  -5.542  27.367  0.00  0.00    +0.050 A 
ATOM     15  C   UNL     1       5.231  -6.111  27.547  0.00  0.00    +0.158 A 
ATOM     16  C   UNL     1       6.369  -5.314  27.570  0.00  0.00    +0.159 A 
ATOM     17  C   UNL     1       6.268  -3.930  27.400  0.00  0.00    +0.060 A 
BRANCH  15  18
ATOM     18  O   UNL     1       5.343  -7.464  27.699  0.00  0.00    -0.503 OA
ATOM     19  H   UNL     1       4.437  -7.806  27.557  0.00  0.00    +0.292 HD
ENDBRANCH  15  18
BRANCH  16  20
ATOM     20  O   UNL     1       7.577  -5.927  27.758  0.00  0.00    -0.503 OA
ATOM     21  H   UNL     1       8.144  -5.700  26.998  0.00  0.00    +0.292 HD
ENDBRANCH  16  20
ENDBRANCH  11  12
BRANCH   7  22
ATOM     22  O   UNL     1       3.416   2.974  30.265  0.00  0.00    -0.507 OA
ATOM     23  H   UNL     1       2.784   2.453  30.787  0.00  0.00    +0.292 HD
ENDBRANCH   7  22
BRANCH  10  24
ATOM     24  O   UNL     1       4.373   3.058  25.659  0.00  0.00    -0.506 OA
ATOM     25  H   UNL     1       5.305   3.194  25.425  0.00  0.00    +0.292 HD
ENDBRANCH  10  24
BRANCH   1  26
ATOM     26  O   UNL     1       5.370  -2.018  24.580  0.00  0.00    -0.453 OA
BRANCH  26  30
ATOM     27  C   UNL     1       9.343  -3.375  25.307  0.00  0.00    +0.042 C 
ATOM     28  C   UNL     1       9.006  -1.899  25.049  0.00  0.00    +0.163 C 
ATOM     29  O   UNL     1       7.607  -1.602  25.250  0.00  0.00    -0.333 OA
ATOM     30  C   UNL     1       6.756  -2.232  24.270  0.00  0.00    +0.340 C 
ATOM     31  C   UNL     1       7.093  -1.713  22.844  0.00  0.00    +0.215 C 
ATOM     32  C   UNL     1       8.574  -2.004  22.556  0.00  0.00    +0.192 C 
ATOM     33  C   UNL     1       9.476  -1.425  23.659  0.00  0.00    +0.236 C 
BRANCH  31  34
ATOM     34  O   UNL     1       6.794  -0.303  22.711  0.00  0.00    -0.383 OA
ATOM     35  H   UNL     1       5.984  -0.162  23.238  0.00  0.00    +0.210 HD
ENDBRANCH  31  34
BRANCH  32  36
ATOM     36  O   UNL     1       8.934  -1.460  21.274  0.00  0.00    -0.385 OA
ATOM     37  H   UNL     1       8.374  -1.904  20.603  0.00  0.00    +0.210 HD
ENDBRANCH  32  36
BRANCH  33  38
ATOM     38  O   UNL     1       9.331   0.009  23.524  0.00  0.00    -0.456 OA
BRANCH  38  39
ATOM     39  C   UNL     1      10.386   0.825  23.697  0.00  0.00    +0.318 C 
ATOM     40  O   UNL     1      11.276   0.656  24.519  0.00  0.00    -0.250 OA
BRANCH  39  41
ATOM     41  C   UNL     1      10.281   2.034  22.817  0.00  0.00    +0.240 C 
BRANCH  41  42
ATOM     42  C   UNL     1       8.999   2.151  22.038  0.00  0.00    +0.316 C 
ATOM     43  O   UNL     1       8.089   2.939  22.249  0.00  0.00    -0.250 OA
BRANCH  42  44
ATOM     44  O   UNL     1       8.926   1.244  21.031  0.00  0.00    -0.480 OA
ATOM     45  H   UNL     1       9.556   1.390  20.299  0.00  0.00    +0.295 HD
ENDBRANCH  42  44
ENDBRANCH  41  42
ENDBRANCH  39  41
ENDBRANCH  38  39
ENDBRANCH  33  38
ENDBRANCH  26  30
ENDBRANCH   1  26
TORSDOF 14
ENDMDL
MODEL 8
REMARK VINA RESULT:      -6.4      2.009      7.564
REMARK  Name = 
REMARK  15 active torsions:
REMARK  status: ('A' for Active; 'I' for Inactive)
REMARK    1  A    between atoms: C_1  and  C_2
REMARK    2  A    between atoms: C_3  and  O_35
REMARK    3  A    between atoms: C_5  and  O_34
REMARK    4  A    between atoms: C_6  and  O_33
REMARK    5  A    between atoms: C_8  and  O_11
REMARK    6  A    between atoms: O_11  and  C_12
REMARK    7  A    between atoms: C_13  and  C_25
REMARK    8  A    between atoms: C_17  and  O_24
REMARK    9  A    between atoms: C_19  and  O_23
REMARK   10  A    between atoms: C_27  and  O_32
REMARK   11  A    between atoms: C_28  and  O_31
REMARK   12  A    between atoms: O_35  and  C_36
REMARK   13  A    between atoms: C_36  and  C_38
REMARK   14  A    between atoms: C_38  and  C_39
REMARK   15  A    between atoms: C_39  and  O_41
REMARK                            x       y       z     vdW  Elec       q    Type
REMARK                         _______ _______ _______ _____ _____    ______ ____
ROOT
ATOM      1  C   UNL     1       6.996   0.074  25.807  0.00  0.00    +0.214 A 
ATOM      2  C   UNL     1       7.672   1.211  25.090  0.00  0.00    +0.238 A 
ATOM      3  O   UNL     1       8.861   1.475  25.239  0.00  0.00    -0.283 OA
ATOM      4  C   UNL     1       6.868   2.067  24.232  0.00  0.00    +0.109 A 
ATOM      5  C   UNL     1       5.490   1.901  24.265  0.00  0.00    +0.147 A 
ATOM      6  C   UNL     1       4.682   2.762  23.517  0.00  0.00    +0.092 A 
ATOM      7  C   UNL     1       5.274   3.775  22.755  0.00  0.00    +0.124 A 
ATOM      8  C   UNL     1       6.653   3.936  22.708  0.00  0.00    +0.091 A 
ATOM      9  O   UNL     1       4.871   0.930  25.014  0.00  0.00    -0.451 OA
ATOM     10  C   UNL     1       7.453   3.073  23.438  0.00  0.00    +0.135 A 
ATOM     11  C   UNL     1       5.642   0.027  25.752  0.00  0.00    +0.181 A 
ENDROOT
BRANCH  11  12
ATOM     12  C   UNL     1       4.823  -1.004  26.469  0.00  0.00    +0.025 A 
ATOM     13  C   UNL     1       4.591  -0.904  27.858  0.00  0.00    +0.015 A 
ATOM     14  C   UNL     1       3.810  -1.848  28.545  0.00  0.00    +0.050 A 
ATOM     15  C   UNL     1       3.253  -2.906  27.848  0.00  0.00    +0.158 A 
ATOM     16  C   UNL     1       3.493  -3.053  26.486  0.00  0.00    +0.159 A 
ATOM     17  C   UNL     1       4.288  -2.129  25.803  0.00  0.00    +0.060 A 
BRANCH  15  18
ATOM     18  O   UNL     1       2.462  -3.807  28.502  0.00  0.00    -0.503 OA
ATOM     19  H   UNL     1       1.645  -3.312  28.714  0.00  0.00    +0.292 HD
ENDBRANCH  15  18
BRANCH  16  20
ATOM     20  O   UNL     1       2.924  -4.121  25.848  0.00  0.00    -0.503 OA
ATOM     21  H   UNL     1       2.072  -3.824  25.479  0.00  0.00    +0.292 HD
ENDBRANCH  16  20
ENDBRANCH  11  12
BRANCH   7  22
ATOM     22  O   UNL     1       4.534   4.655  22.024  0.00  0.00    -0.507 OA
ATOM     23  H   UNL     1       3.615   4.345  21.988  0.00  0.00    +0.292 HD
ENDBRANCH   7  22
BRANCH  10  24
ATOM     24  O   UNL     1       8.810   3.212  23.358  0.00  0.00    -0.506 OA
ATOM     25  H   UNL     1       9.233   2.357  23.181  0.00  0.00    +0.292 HD
ENDBRANCH  10  24
BRANCH   1  26
ATOM     26  O   UNL     1       7.728  -0.881  26.520  0.00  0.00    -0.453 OA
BRANCH  26  30
ATOM     27  C   UNL     1      10.095  -2.316  23.282  0.00  0.00    +0.042 C 
ATOM     28  C   UNL     1       8.691  -2.860  23.586  0.00  0.00    +0.163 C 
ATOM     29  O   UNL     1       7.918  -1.973  24.423  0.00  0.00    -0.333 OA
ATOM     30  C   UNL     1       8.446  -1.867  25.762  0.00  0.00    +0.340 C 
ATOM     31  C   UNL     1       8.409  -3.249  26.472  0.00  0.00    +0.215 C 
ATOM     32  C   UNL     1       9.224  -4.248  25.635  0.00  0.00    +0.192 C 
ATOM     33  C   UNL     1       8.731  -4.282  24.179  0.00  0.00    +0.236 C 
BRANCH  31  34
ATOM     34  O   UNL     1       7.050  -3.706  26.667  0.00  0.00    -0.383 OA
ATOM     35  H   UNL     1       7.065  -4.205  27.506  0.00  0.00    +0.210 HD
ENDBRANCH  31  34
BRANCH  32  36
ATOM     36  O   UNL     1       9.138  -5.557  26.227  0.00  0.00    -0.385 OA
ATOM     37  H   UNL     1       9.927  -5.671  26.797  0.00  0.00    +0.210 HD
ENDBRANCH  32  36
BRANCH  33  38
ATOM     38  O   UNL     1       7.400  -4.845  24.264  0.00  0.00    -0.456 OA
BRANCH  38  39
ATOM     39  C   UNL     1       6.751  -5.243  23.156  0.00  0.00    +0.318 C 
ATOM     40  O   UNL     1       7.213  -5.983  22.299  0.00  0.00    -0.250 OA
BRANCH  39  41
ATOM     41  C   UNL     1       5.411  -4.578  23.051  0.00  0.00    +0.240 C 
BRANCH  41  42
ATOM     42  C   UNL     1       4.229  -5.507  23.083  0.00  0.00    +0.316 C 
ATOM     43  O   UNL     1       3.055  -5.196  22.946  0.00  0.00    -0.250 OA
BRANCH  42  44
ATOM     44  O   UNL     1       4.595  -6.795  23.306  0.00  0.00    -0.480 OA
ATOM     45  H   UNL     1       5.034  -7.235  22.553  0.00  0.00    +0.295 HD
ENDBRANCH  42  44
ENDBRANCH  41  42
ENDBRANCH  39  41
ENDBRANCH  38  39
ENDBRANCH  33  38
ENDBRANCH  26  30
ENDBRANCH   1  26
TORSDOF 14
ENDMDL
MODEL 9
REMARK VINA RESULT:      -6.4      2.139      7.603
REMARK  Name = 
REMARK  15 active torsions:
REMARK  status: ('A' for Active; 'I' for Inactive)
REMARK    1  A    between atoms: C_1  and  C_2
REMARK    2  A    between atoms: C_3  and  O_35
REMARK    3  A    between atoms: C_5  and  O_34
REMARK    4  A    between atoms: C_6  and  O_33
REMARK    5  A    between atoms: C_8  and  O_11
REMARK    6  A    between atoms: O_11  and  C_12
REMARK    7  A    between atoms: C_13  and  C_25
REMARK    8  A    between atoms: C_17  and  O_24
REMARK    9  A    between atoms: C_19  and  O_23
REMARK   10  A    between atoms: C_27  and  O_32
REMARK   11  A    between atoms: C_28  and  O_31
REMARK   12  A    between atoms: O_35  and  C_36
REMARK   13  A    between atoms: C_36  and  C_38
REMARK   14  A    between atoms: C_38  and  C_39
REMARK   15  A    between atoms: C_39  and  O_41
REMARK                            x       y       z     vdW  Elec       q    Type
REMARK                         _______ _______ _______ _____ _____    ______ ____
ROOT
ATOM      1  C   UNL     1       6.471  -0.528  24.212  0.00  0.00    +0.214 A 
ATOM      2  C   UNL     1       7.537  -0.538  23.152  0.00  0.00    +0.238 A 
ATOM      3  O   UNL     1       7.693  -1.477  22.378  0.00  0.00    -0.283 OA
ATOM      4  C   UNL     1       8.458   0.586  23.081  0.00  0.00    +0.109 A 
ATOM      5  C   UNL     1       8.418   1.517  24.110  0.00  0.00    +0.147 A 
ATOM      6  C   UNL     1       9.345   2.562  24.119  0.00  0.00    +0.092 A 
ATOM      7  C   UNL     1      10.296   2.650  23.096  0.00  0.00    +0.124 A 
ATOM      8  C   UNL     1      10.330   1.729  22.058  0.00  0.00    +0.091 A 
ATOM      9  O   UNL     1       7.512   1.454  25.141  0.00  0.00    -0.451 OA
ATOM     10  C   UNL     1       9.402   0.701  22.043  0.00  0.00    +0.135 A 
ATOM     11  C   UNL     1       6.547   0.443  25.155  0.00  0.00    +0.181 A 
ENDROOT
BRANCH  11  12
ATOM     12  C   UNL     1       5.599   0.545  26.313  0.00  0.00    +0.025 A 
ATOM     13  C   UNL     1       5.820  -0.194  27.495  0.00  0.00    +0.015 A 
ATOM     14  C   UNL     1       4.955  -0.097  28.597  0.00  0.00    +0.050 A 
ATOM     15  C   UNL     1       3.856   0.741  28.527  0.00  0.00    +0.158 A 
ATOM     16  C   UNL     1       3.590   1.455  27.365  0.00  0.00    +0.159 A 
ATOM     17  C   UNL     1       4.435   1.344  26.257  0.00  0.00    +0.060 A 
BRANCH  15  18
ATOM     18  O   UNL     1       3.031   0.868  29.609  0.00  0.00    -0.503 OA
ATOM     19  H   UNL     1       3.536   1.417  30.242  0.00  0.00    +0.292 HD
ENDBRANCH  15  18
BRANCH  16  20
ATOM     20  O   UNL     1       2.486   2.263  27.348  0.00  0.00    -0.503 OA
ATOM     21  H   UNL     1       2.090   2.201  26.459  0.00  0.00    +0.292 HD
ENDBRANCH  16  20
ENDBRANCH  11  12
BRANCH   7  22
ATOM     22  O   UNL     1      11.235   3.636  23.066  0.00  0.00    -0.507 OA
ATOM     23  H   UNL     1      11.907   3.459  23.744  0.00  0.00    +0.292 HD
ENDBRANCH   7  22
BRANCH  10  24
ATOM     24  O   UNL     1       9.417  -0.179  20.998  0.00  0.00    -0.506 OA
ATOM     25  H   UNL     1      10.321  -0.480  20.816  0.00  0.00    +0.292 HD
ENDBRANCH  10  24
BRANCH   1  26
ATOM     26  O   UNL     1       5.457  -1.491  24.242  0.00  0.00    -0.453 OA
BRANCH  26  30
ATOM     27  C   UNL     1       6.115  -5.009  21.930  0.00  0.00    +0.042 C 
ATOM     28  C   UNL     1       5.120  -4.961  23.099  0.00  0.00    +0.163 C 
ATOM     29  O   UNL     1       4.744  -3.613  23.457  0.00  0.00    -0.333 OA
ATOM     30  C   UNL     1       5.837  -2.859  24.021  0.00  0.00    +0.340 C 
ATOM     31  C   UNL     1       6.330  -3.519  25.339  0.00  0.00    +0.215 C 
ATOM     32  C   UNL     1       6.758  -4.962  25.032  0.00  0.00    +0.192 C 
ATOM     33  C   UNL     1       5.627  -5.736  24.332  0.00  0.00    +0.236 C 
BRANCH  31  34
ATOM     34  O   UNL     1       5.310  -3.475  26.365  0.00  0.00    -0.383 OA
ATOM     35  H   UNL     1       5.649  -4.036  27.088  0.00  0.00    +0.210 HD
ENDBRANCH  31  34
BRANCH  32  36
ATOM     36  O   UNL     1       7.141  -5.623  26.251  0.00  0.00    -0.385 OA
ATOM     37  H   UNL     1       6.528  -6.378  26.377  0.00  0.00    +0.210 HD
ENDBRANCH  32  36
BRANCH  33  38
ATOM     38  O   UNL     1       4.592  -5.846  25.337  0.00  0.00    -0.456 OA
BRANCH  38  39
ATOM     39  C   UNL     1       4.032  -7.036  25.619  0.00  0.00    +0.318 C 
ATOM     40  O   UNL     1       3.725  -7.880  24.789  0.00  0.00    -0.250 OA
BRANCH  39  41
ATOM     41  C   UNL     1       3.735  -7.157  27.083  0.00  0.00    +0.240 C 
BRANCH  41  42
ATOM     42  C   UNL     1       4.854  -6.749  28.001  0.00  0.00    +0.316 C 
ATOM     43  O   UNL     1       5.710  -7.482  28.475  0.00  0.00    -0.250 OA
BRANCH  42  44
ATOM     44  O   UNL     1       4.823  -5.423  28.290  0.00  0.00    -0.480 OA
ATOM     45  H   UNL     1       5.139  -4.839  27.574  0.00  0.00    +0.295 HD
ENDBRANCH  42  44
ENDBRANCH  41  42
ENDBRANCH  39  41
ENDBRANCH  38  39
ENDBRANCH  33  38
ENDBRANCH  26  30
ENDBRANCH   1  26
TORSDOF 14
ENDMDL
