MODEL 1
REMARK VINA RESULT:      -7.8      0.000      0.000
REMARK  Name = 
REMARK  16 active torsions:
REMARK  status: ('A' for Active; 'I' for Inactive)
REMARK    1  A    between atoms: C_1  and  C_2
REMARK    2  A    between atoms: C_3  and  O_47
REMARK    3  A    between atoms: C_5  and  O_46
REMARK    4  A    between atoms: C_6  and  O_45
REMARK    5  A    between atoms: C_8  and  O_11
REMARK    6  A    between atoms: O_11  and  C_12
REMARK    7  A    between atoms: C_14  and  O_23
REMARK    8  A    between atoms: C_17  and  C_21
REMARK    9  A    between atoms: C_19  and  O_20
REMARK   10  A    between atoms: C_21  and  O_22
REMARK   11  A    between atoms: O_23  and  C_24
REMARK   12  A    between atoms: C_25  and  C_37
REMARK   13  A    between atoms: C_29  and  O_36
REMARK   14  A    between atoms: C_31  and  O_35
REMARK   15  A    between atoms: C_39  and  O_44
REMARK   16  A    between atoms: C_40  and  O_43
REMARK                            x       y       z     vdW  Elec       q    Type
REMARK                         _______ _______ _______ _____ _____    ______ ____
ROOT
ATOM      1  O   UNL     1       5.821  -1.801  25.286  0.00  0.00    -0.453 OA
ENDROOT
BRANCH   1   2
ATOM      2  C   UNL     1       7.055  -1.364  24.748  0.00  0.00    +0.214 A 
ATOM      3  C   UNL     1       7.837  -0.205  25.360  0.00  0.00    +0.238 A 
ATOM      4  O   UNL     1       7.853   0.035  26.560  0.00  0.00    -0.283 OA
ATOM      5  C   UNL     1       8.616   0.633  24.422  0.00  0.00    +0.109 A 
ATOM      6  C   UNL     1       9.075  -0.005  23.286  0.00  0.00    +0.147 A 
ATOM      7  C   UNL     1       9.827   0.678  22.318  0.00  0.00    +0.092 A 
ATOM      8  C   UNL     1      10.094   2.031  22.506  0.00  0.00    +0.124 A 
ATOM      9  C   UNL     1       9.654   2.688  23.650  0.00  0.00    +0.091 A 
ATOM     10  O   UNL     1       8.833  -1.335  23.096  0.00  0.00    -0.451 OA
ATOM     11  C   UNL     1       8.920   1.986  24.613  0.00  0.00    +0.135 A 
ATOM     12  C   UNL     1       7.666  -1.901  23.642  0.00  0.00    +0.181 A 
BRANCH  12  13
ATOM     13  C   UNL     1       7.274  -3.082  22.789  0.00  0.00    +0.025 A 
ATOM     14  C   UNL     1       6.208  -2.937  21.861  0.00  0.00    +0.015 A 
ATOM     15  C   UNL     1       5.634  -4.008  21.160  0.00  0.00    +0.050 A 
ATOM     16  C   UNL     1       6.158  -5.269  21.360  0.00  0.00    +0.158 A 
ATOM     17  C   UNL     1       7.272  -5.438  22.181  0.00  0.00    +0.159 A 
ATOM     18  C   UNL     1       7.832  -4.369  22.893  0.00  0.00    +0.060 A 
BRANCH  16  19
ATOM     19  O   UNL     1       5.574  -6.338  20.748  0.00  0.00    -0.503 OA
ATOM     20  H   UNL     1       6.077  -6.463  19.920  0.00  0.00    +0.292 HD
ENDBRANCH  16  19
BRANCH  17  21
ATOM     21  O   UNL     1       7.811  -6.689  22.238  0.00  0.00    -0.503 OA
ATOM     22  H   UNL     1       7.351  -7.210  21.554  0.00  0.00    +0.292 HD
ENDBRANCH  17  21
ENDBRANCH  12  13
BRANCH   8  23
ATOM     23  O   UNL     1      10.781   2.768  21.587  0.00  0.00    -0.507 OA
ATOM     24  H   UNL     1      11.602   3.107  21.981  0.00  0.00    +0.292 HD
ENDBRANCH   8  23
BRANCH  11  25
ATOM     25  O   UNL     1       8.471   2.657  25.712  0.00  0.00    -0.506 OA
ATOM     26  H   UNL     1       8.010   2.039  26.303  0.00  0.00    +0.292 HD
ENDBRANCH  11  25
ENDBRANCH   1   2
BRANCH   1  31
ATOM     27  C   UNL     1       4.863  -4.130  26.050  0.00  0.00    +0.221 C 
ATOM     28  C   UNL     1       5.753  -5.250  26.616  0.00  0.00    +0.180 C 
ATOM     29  C   UNL     1       7.156  -4.783  26.291  0.00  0.00    +0.179 C 
ATOM     30  O   UNL     1       7.167  -3.367  26.508  0.00  0.00    -0.331 OA
ATOM     31  C   UNL     1       5.826  -2.863  26.282  0.00  0.00    +0.340 C 
BRANCH  28  32
ATOM     32  O   UNL     1       5.579  -6.569  26.138  0.00  0.00    -0.386 OA
ATOM     33  H   UNL     1       6.419  -6.853  25.714  0.00  0.00    +0.210 HD
ENDBRANCH  28  32
BRANCH  27  34
ATOM     34  O   UNL     1       4.394  -4.397  24.714  0.00  0.00    -0.337 OA
BRANCH  34  38
ATOM     35  C   UNL     1       0.443  -6.067  26.057  0.00  0.00    +0.041 C 
ATOM     36  C   UNL     1       1.770  -6.801  25.861  0.00  0.00    +0.149 C 
ATOM     37  O   UNL     1       2.895  -5.900  25.822  0.00  0.00    -0.343 OA
ATOM     38  C   UNL     1       3.129  -5.138  24.636  0.00  0.00    +0.282 C 
ATOM     39  C   UNL     1       3.191  -6.088  23.418  0.00  0.00    +0.201 C 
ATOM     40  C   UNL     1       1.933  -6.969  23.348  0.00  0.00    +0.179 C 
ATOM     41  C   UNL     1       1.726  -7.754  24.658  0.00  0.00    +0.174 C 
BRANCH  39  42
ATOM     42  O   UNL     1       4.339  -6.961  23.490  0.00  0.00    -0.384 OA
ATOM     43  H   UNL     1       5.103  -6.408  23.226  0.00  0.00    +0.210 HD
ENDBRANCH  39  42
BRANCH  40  44
ATOM     44  O   UNL     1       2.070  -7.889  22.256  0.00  0.00    -0.386 OA
ATOM     45  H   UNL     1       2.006  -8.795  22.600  0.00  0.00    +0.210 HD
ENDBRANCH  40  44
BRANCH  41  46
ATOM     46  O   UNL     1       2.727  -8.770  24.826  0.00  0.00    -0.387 OA
ATOM     47  H   UNL     1       2.579  -9.445  24.134  0.00  0.00    +0.210 HD
ENDBRANCH  41  46
ENDBRANCH  34  38
ENDBRANCH  27  34
BRANCH  29  48
ATOM     48  C   UNL     1       8.192  -5.519  27.152  0.00  0.00    +0.190 C 
BRANCH  48  49
ATOM     49  O   UNL     1       7.549  -6.273  28.178  0.00  0.00    -0.392 OA
ATOM     50  H   UNL     1       6.717  -5.800  28.366  0.00  0.00    +0.210 HD
ENDBRANCH  48  49
ENDBRANCH  29  48
ENDBRANCH   1  31
TORSDOF 15
ENDMDL
MODEL 2
REMARK VINA RESULT:      -6.8      3.937      8.061
REMARK  Name = 
REMARK  16 active torsions:
REMARK  status: ('A' for Active; 'I' for Inactive)
REMARK    1  A    between atoms: C_1  and  C_2
REMARK    2  A    between atoms: C_3  and  O_47
REMARK    3  A    between atoms: C_5  and  O_46
REMARK    4  A    between atoms: C_6  and  O_45
REMARK    5  A    between atoms: C_8  and  O_11
REMARK    6  A    between atoms: O_11  and  C_12
REMARK    7  A    between atoms: C_14  and  O_23
REMARK    8  A    between atoms: C_17  and  C_21
REMARK    9  A    between atoms: C_19  and  O_20
REMARK   10  A    between atoms: C_21  and  O_22
REMARK   11  A    between atoms: O_23  and  C_24
REMARK   12  A    between atoms: C_25  and  C_37
REMARK   13  A    between atoms: C_29  and  O_36
REMARK   14  A    between atoms: C_31  and  O_35
REMARK   15  A    between atoms: C_39  and  O_44
REMARK   16  A    between atoms: C_40  and  O_43
REMARK                            x       y       z     vdW  Elec       q    Type
REMARK                         _______ _______ _______ _____ _____    ______ ____
ROOT
ATOM      1  O   UNL     1       5.504   0.133  24.536  0.00  0.00    -0.453 OA
ENDROOT
BRANCH   1   2
ATOM      2  C   UNL     1       6.416  -0.901  24.216  0.00  0.00    +0.214 A 
ATOM      3  C   UNL     1       6.034  -2.376  24.323  0.00  0.00    +0.238 A 
ATOM      4  O   UNL     1       4.906  -2.795  24.098  0.00  0.00    -0.283 OA
ATOM      5  C   UNL     1       7.116  -3.311  24.702  0.00  0.00    +0.109 A 
ATOM      6  C   UNL     1       8.392  -2.938  24.322  0.00  0.00    +0.147 A 
ATOM      7  C   UNL     1       9.505  -3.739  24.620  0.00  0.00    +0.092 A 
ATOM      8  C   UNL     1       9.312  -4.921  25.328  0.00  0.00    +0.124 A 
ATOM      9  C   UNL     1       8.035  -5.321  25.706  0.00  0.00    +0.091 A 
ATOM     10  O   UNL     1       8.593  -1.788  23.614  0.00  0.00    -0.451 OA
ATOM     11  C   UNL     1       6.935  -4.518  25.385  0.00  0.00    +0.135 A 
ATOM     12  C   UNL     1       7.709  -0.709  23.799  0.00  0.00    +0.181 A 
BRANCH  12  13
ATOM     13  C   UNL     1       8.458   0.566  23.501  0.00  0.00    +0.025 A 
ATOM     14  C   UNL     1       9.789   0.710  23.979  0.00  0.00    +0.015 A 
ATOM     15  C   UNL     1      10.508   1.913  23.932  0.00  0.00    +0.050 A 
ATOM     16  C   UNL     1       9.899   3.010  23.357  0.00  0.00    +0.158 A 
ATOM     17  C   UNL     1       8.636   2.883  22.781  0.00  0.00    +0.159 A 
ATOM     18  C   UNL     1       7.913   1.685  22.846  0.00  0.00    +0.060 A 
BRANCH  16  19
ATOM     19  O   UNL     1      10.546   4.210  23.361  0.00  0.00    -0.503 OA
ATOM     20  H   UNL     1      10.893   4.309  24.269  0.00  0.00    +0.292 HD
ENDBRANCH  16  19
BRANCH  17  21
ATOM     21  O   UNL     1       8.145   3.973  22.126  0.00  0.00    -0.503 OA
ATOM     22  H   UNL     1       7.640   4.479  22.790  0.00  0.00    +0.292 HD
ENDBRANCH  17  21
ENDBRANCH  12  13
BRANCH   8  23
ATOM     23  O   UNL     1      10.352  -5.726  25.690  0.00  0.00    -0.507 OA
ATOM     24  H   UNL     1      10.064  -6.350  26.377  0.00  0.00    +0.292 HD
ENDBRANCH   8  23
BRANCH  11  25
ATOM     25  O   UNL     1       5.694  -4.913  25.793  0.00  0.00    -0.506 OA
ATOM     26  H   UNL     1       5.672  -5.881  25.870  0.00  0.00    +0.292 HD
ENDBRANCH  11  25
ENDBRANCH   1   2
BRANCH   1  31
ATOM     27  C   UNL     1       4.472   1.860  26.231  0.00  0.00    +0.221 C 
ATOM     28  C   UNL     1       4.078   1.480  27.670  0.00  0.00    +0.180 C 
ATOM     29  C   UNL     1       4.125  -0.033  27.660  0.00  0.00    +0.179 C 
ATOM     30  O   UNL     1       5.260  -0.394  26.865  0.00  0.00    -0.331 OA
ATOM     31  C   UNL     1       5.487   0.659  25.893  0.00  0.00    +0.340 C 
BRANCH  28  32
ATOM     32  O   UNL     1       2.826   1.904  28.171  0.00  0.00    -0.386 OA
ATOM     33  H   UNL     1       2.962   2.236  29.085  0.00  0.00    +0.210 HD
ENDBRANCH  28  32
BRANCH  27  34
ATOM     34  O   UNL     1       3.338   2.062  25.367  0.00  0.00    -0.337 OA
BRANCH  34  38
ATOM     35  C   UNL     1       1.556   5.941  23.959  0.00  0.00    +0.041 C 
ATOM     36  C   UNL     1       1.920   4.705  23.135  0.00  0.00    +0.149 C 
ATOM     37  O   UNL     1       2.080   3.528  23.952  0.00  0.00    -0.343 OA
ATOM     38  C   UNL     1       3.275   3.379  24.722  0.00  0.00    +0.282 C 
ATOM     39  C   UNL     1       4.506   3.534  23.799  0.00  0.00    +0.201 C 
ATOM     40  C   UNL     1       4.437   4.853  23.013  0.00  0.00    +0.179 C 
ATOM     41  C   UNL     1       3.122   4.963  22.215  0.00  0.00    +0.174 C 
BRANCH  39  42
ATOM     42  O   UNL     1       4.583   2.454  22.843  0.00  0.00    -0.384 OA
ATOM     43  H   UNL     1       4.744   2.884  21.978  0.00  0.00    +0.210 HD
ENDBRANCH  39  42
BRANCH  40  44
ATOM     44  O   UNL     1       5.551   4.916  22.111  0.00  0.00    -0.386 OA
ATOM     45  H   UNL     1       6.275   4.380  22.472  0.00  0.00    +0.210 HD
ENDBRANCH  40  44
BRANCH  41  46
ATOM     46  O   UNL     1       3.089   4.028  21.125  0.00  0.00    -0.387 OA
ATOM     47  H   UNL     1       2.793   3.168  21.485  0.00  0.00    +0.210 HD
ENDBRANCH  41  46
ENDBRANCH  34  38
ENDBRANCH  27  34
BRANCH  29  48
ATOM     48  C   UNL     1       4.205  -0.589  29.087  0.00  0.00    +0.190 C 
BRANCH  48  49
ATOM     49  O   UNL     1       4.677   0.409  29.991  0.00  0.00    -0.392 OA
ATOM     50  H   UNL     1       5.415   0.850  29.529  0.00  0.00    +0.210 HD
ENDBRANCH  48  49
ENDBRANCH  29  48
ENDBRANCH   1  31
TORSDOF 15
ENDMDL
MODEL 3
REMARK VINA RESULT:      -6.8      2.729      8.261
REMARK  Name = 
REMARK  16 active torsions:
REMARK  status: ('A' for Active; 'I' for Inactive)
REMARK    1  A    between atoms: C_1  and  C_2
REMARK    2  A    between atoms: C_3  and  O_47
REMARK    3  A    between atoms: C_5  and  O_46
REMARK    4  A    between atoms: C_6  and  O_45
REMARK    5  A    between atoms: C_8  and  O_11
REMARK    6  A    between atoms: O_11  and  C_12
REMARK    7  A    between atoms: C_14  and  O_23
REMARK    8  A    between atoms: C_17  and  C_21
REMARK    9  A    between atoms: C_19  and  O_20
REMARK   10  A    between atoms: C_21  and  O_22
REMARK   11  A    between atoms: O_23  and  C_24
REMARK   12  A    between atoms: C_25  and  C_37
REMARK   13  A    between atoms: C_29  and  O_36
REMARK   14  A    between atoms: C_31  and  O_35
REMARK   15  A    between atoms: C_39  and  O_44
REMARK   16  A    between atoms: C_40  and  O_43
REMARK                            x       y       z     vdW  Elec       q    Type
REMARK                         _______ _______ _______ _____ _____    ______ ____
ROOT
ATOM      1  O   UNL     1       5.250  -0.758  24.859  0.00  0.00    -0.453 OA
ENDROOT
BRANCH   1   2
ATOM      2  C   UNL     1       5.202  -2.166  24.992  0.00  0.00    +0.214 A 
ATOM      3  C   UNL     1       4.021  -2.874  25.651  0.00  0.00    +0.238 A 
ATOM      4  O   UNL     1       2.868  -2.471  25.573  0.00  0.00    -0.283 OA
ATOM      5  C   UNL     1       4.328  -4.116  26.394  0.00  0.00    +0.109 A 
ATOM      6  C   UNL     1       5.416  -4.835  25.938  0.00  0.00    +0.147 A 
ATOM      7  C   UNL     1       5.810  -6.032  26.556  0.00  0.00    +0.092 A 
ATOM      8  C   UNL     1       5.097  -6.485  27.661  0.00  0.00    +0.124 A 
ATOM      9  C   UNL     1       3.989  -5.783  28.127  0.00  0.00    +0.091 A 
ATOM     10  O   UNL     1       6.116  -4.410  24.846  0.00  0.00    -0.451 OA
ATOM     11  C   UNL     1       3.600  -4.601  27.487  0.00  0.00    +0.135 A 
ATOM     12  C   UNL     1       6.181  -3.031  24.572  0.00  0.00    +0.181 A 
BRANCH  12  13
ATOM     13  C   UNL     1       7.465  -2.763  23.825  0.00  0.00    +0.025 A 
ATOM     14  C   UNL     1       8.703  -3.039  24.466  0.00  0.00    +0.015 A 
ATOM     15  C   UNL     1       9.949  -2.652  23.950  0.00  0.00    +0.050 A 
ATOM     16  C   UNL     1       9.973  -1.996  22.736  0.00  0.00    +0.158 A 
ATOM     17  C   UNL     1       8.790  -1.801  22.026  0.00  0.00    +0.159 A 
ATOM     18  C   UNL     1       7.545  -2.172  22.552  0.00  0.00    +0.060 A 
BRANCH  16  19
ATOM     19  O   UNL     1      11.163  -1.546  22.246  0.00  0.00    -0.503 OA
ATOM     20  H   UNL     1      11.119  -0.573  22.322  0.00  0.00    +0.292 HD
ENDBRANCH  16  19
BRANCH  17  21
ATOM     21  O   UNL     1       8.901  -1.256  20.782  0.00  0.00    -0.503 OA
ATOM     22  H   UNL     1       9.368  -1.919  20.240  0.00  0.00    +0.292 HD
ENDBRANCH  17  21
ENDBRANCH  12  13
BRANCH   8  23
ATOM     23  O   UNL     1       5.450  -7.616  28.338  0.00  0.00    -0.507 OA
ATOM     24  H   UNL     1       5.283  -8.397  27.785  0.00  0.00    +0.292 HD
ENDBRANCH   8  23
BRANCH  11  25
ATOM     25  O   UNL     1       2.531  -3.912  27.978  0.00  0.00    -0.506 OA
ATOM     26  H   UNL     1       2.840  -3.095  28.404  0.00  0.00    +0.292 HD
ENDBRANCH  11  25
ENDBRANCH   1   2
BRANCH   1  31
ATOM     27  C   UNL     1       6.774   0.470  26.617  0.00  0.00    +0.221 C 
ATOM     28  C   UNL     1       6.471   1.887  27.135  0.00  0.00    +0.180 C 
ATOM     29  C   UNL     1       5.407   2.390  26.183  0.00  0.00    +0.179 C 
ATOM     30  O   UNL     1       4.546   1.276  25.920  0.00  0.00    -0.331 OA
ATOM     31  C   UNL     1       5.322   0.059  26.062  0.00  0.00    +0.340 C 
BRANCH  28  32
ATOM     32  O   UNL     1       7.522   2.831  27.200  0.00  0.00    -0.386 OA
ATOM     33  H   UNL     1       7.574   3.288  26.332  0.00  0.00    +0.210 HD
ENDBRANCH  28  32
BRANCH  27  34
ATOM     34  O   UNL     1       7.893   0.423  25.711  0.00  0.00    -0.337 OA
BRANCH  34  38
ATOM     35  C   UNL     1       6.398   2.872  22.251  0.00  0.00    +0.041 C 
ATOM     36  C   UNL     1       7.486   1.797  22.258  0.00  0.00    +0.149 C 
ATOM     37  O   UNL     1       7.417   0.954  23.426  0.00  0.00    -0.343 OA
ATOM     38  C   UNL     1       7.895   1.460  24.673  0.00  0.00    +0.282 C 
ATOM     39  C   UNL     1       9.343   1.976  24.498  0.00  0.00    +0.201 C 
ATOM     40  C   UNL     1       9.425   2.990  23.345  0.00  0.00    +0.179 C 
ATOM     41  C   UNL     1       8.883   2.393  22.032  0.00  0.00    +0.174 C 
BRANCH  39  42
ATOM     42  O   UNL     1      10.253   0.895  24.201  0.00  0.00    -0.384 OA
ATOM     43  H   UNL     1       9.729   0.247  23.687  0.00  0.00    +0.210 HD
ENDBRANCH  39  42
BRANCH  40  44
ATOM     44  O   UNL     1      10.795   3.378  23.164  0.00  0.00    -0.386 OA
ATOM     45  H   UNL     1      11.181   2.840  22.454  0.00  0.00    +0.210 HD
ENDBRANCH  40  44
BRANCH  41  46
ATOM     46  O   UNL     1       9.753   1.371  21.521  0.00  0.00    -0.387 OA
ATOM     47  H   UNL     1       9.264   0.894  20.820  0.00  0.00    +0.210 HD
ENDBRANCH  41  46
ENDBRANCH  34  38
ENDBRANCH  27  34
BRANCH  29  48
ATOM     48  C   UNL     1       4.657   3.587  26.781  0.00  0.00    +0.190 C 
BRANCH  48  49
ATOM     49  O   UNL     1       4.898   3.682  28.184  0.00  0.00    -0.392 OA
ATOM     50  H   UNL     1       5.811   4.013  28.269  0.00  0.00    +0.210 HD
ENDBRANCH  48  49
ENDBRANCH  29  48
ENDBRANCH   1  31
TORSDOF 15
ENDMDL
MODEL 4
REMARK VINA RESULT:      -6.8      2.026      3.855
REMARK  Name = 
REMARK  16 active torsions:
REMARK  status: ('A' for Active; 'I' for Inactive)
REMARK    1  A    between atoms: C_1  and  C_2
REMARK    2  A    between atoms: C_3  and  O_47
REMARK    3  A    between atoms: C_5  and  O_46
REMARK    4  A    between atoms: C_6  and  O_45
REMARK    5  A    between atoms: C_8  and  O_11
REMARK    6  A    between atoms: O_11  and  C_12
REMARK    7  A    between atoms: C_14  and  O_23
REMARK    8  A    between atoms: C_17  and  C_21
REMARK    9  A    between atoms: C_19  and  O_20
REMARK   10  A    between atoms: C_21  and  O_22
REMARK   11  A    between atoms: O_23  and  C_24
REMARK   12  A    between atoms: C_25  and  C_37
REMARK   13  A    between atoms: C_29  and  O_36
REMARK   14  A    between atoms: C_31  and  O_35
REMARK   15  A    between atoms: C_39  and  O_44
REMARK   16  A    between atoms: C_40  and  O_43
REMARK                            x       y       z     vdW  Elec       q    Type
REMARK                         _______ _______ _______ _____ _____    ______ ____
ROOT
ATOM      1  O   UNL     1       5.529  -1.815  24.134  0.00  0.00    -0.453 OA
ENDROOT
BRANCH   1   2
ATOM      2  C   UNL     1       6.427  -0.798  24.536  0.00  0.00    +0.214 A 
ATOM      3  C   UNL     1       6.065   0.682  24.440  0.00  0.00    +0.238 A 
ATOM      4  O   UNL     1       4.928   1.107  24.603  0.00  0.00    -0.283 OA
ATOM      5  C   UNL     1       7.176   1.616  24.154  0.00  0.00    +0.109 A 
ATOM      6  C   UNL     1       8.422   1.223  24.604  0.00  0.00    +0.147 A 
ATOM      7  C   UNL     1       9.557   2.020  24.397  0.00  0.00    +0.092 A 
ATOM      8  C   UNL     1       9.419   3.220  23.706  0.00  0.00    +0.124 A 
ATOM      9  C   UNL     1       8.171   3.641  23.258  0.00  0.00    +0.091 A 
ATOM     10  O   UNL     1       8.569   0.055  25.295  0.00  0.00    -0.451 OA
ATOM     11  C   UNL     1       7.047   2.841  23.489  0.00  0.00    +0.135 A 
ATOM     12  C   UNL     1       7.690  -1.012  25.028  0.00  0.00    +0.181 A 
BRANCH  12  13
ATOM     13  C   UNL     1       8.409  -2.301  25.342  0.00  0.00    +0.025 A 
ATOM     14  C   UNL     1       9.463  -2.725  24.489  0.00  0.00    +0.015 A 
ATOM     15  C   UNL     1      10.068  -3.989  24.568  0.00  0.00    +0.050 A 
ATOM     16  C   UNL     1       9.636  -4.853  25.553  0.00  0.00    +0.158 A 
ATOM     17  C   UNL     1       8.679  -4.436  26.476  0.00  0.00    +0.159 A 
ATOM     18  C   UNL     1       8.064  -3.181  26.384  0.00  0.00    +0.060 A 
BRANCH  16  19
ATOM     19  O   UNL     1      10.156  -6.113  25.608  0.00  0.00    -0.503 OA
ATOM     20  H   UNL     1       9.653  -6.565  26.313  0.00  0.00    +0.292 HD
ENDBRANCH  16  19
BRANCH  17  21
ATOM     21  O   UNL     1       8.387  -5.296  27.493  0.00  0.00    -0.503 OA
ATOM     22  H   UNL     1       9.221  -5.758  27.700  0.00  0.00    +0.292 HD
ENDBRANCH  17  21
ENDBRANCH  12  13
BRANCH   8  23
ATOM     23  O   UNL     1      10.486   4.024  23.430  0.00  0.00    -0.507 OA
ATOM     24  H   UNL     1      10.217   4.957  23.471  0.00  0.00    +0.292 HD
ENDBRANCH   8  23
BRANCH  11  25
ATOM     25  O   UNL     1       5.838   3.257  23.014  0.00  0.00    -0.506 OA
ATOM     26  H   UNL     1       5.433   3.868  23.651  0.00  0.00    +0.292 HD
ENDBRANCH  11  25
ENDBRANCH   1   2
BRANCH   1  31
ATOM     27  C   UNL     1       5.329  -4.425  24.405  0.00  0.00    +0.221 C 
ATOM     28  C   UNL     1       5.484  -5.398  23.223  0.00  0.00    +0.180 C 
ATOM     29  C   UNL     1       5.425  -4.493  22.011  0.00  0.00    +0.179 C 
ATOM     30  O   UNL     1       6.150  -3.308  22.360  0.00  0.00    -0.331 OA
ATOM     31  C   UNL     1       6.060  -3.128  23.797  0.00  0.00    +0.340 C 
BRANCH  28  32
ATOM     32  O   UNL     1       4.544  -6.443  23.071  0.00  0.00    -0.386 OA
ATOM     33  H   UNL     1       4.796  -6.966  22.278  0.00  0.00    +0.210 HD
ENDBRANCH  28  32
BRANCH  27  34
ATOM     34  O   UNL     1       3.968  -4.294  24.858  0.00  0.00    -0.337 OA
BRANCH  34  38
ATOM     35  C   UNL     1       4.447  -3.967  29.315  0.00  0.00    +0.041 C 
ATOM     36  C   UNL     1       4.978  -5.052  28.377  0.00  0.00    +0.149 C 
ATOM     37  O   UNL     1       4.987  -4.628  26.999  0.00  0.00    -0.343 OA
ATOM     38  C   UNL     1       3.753  -4.595  26.278  0.00  0.00    +0.282 C 
ATOM     39  C   UNL     1       3.056  -5.972  26.388  0.00  0.00    +0.201 C 
ATOM     40  C   UNL     1       2.903  -6.390  27.859  0.00  0.00    +0.179 C 
ATOM     41  C   UNL     1       4.262  -6.393  28.586  0.00  0.00    +0.174 C 
BRANCH  39  42
ATOM     42  O   UNL     1       3.814  -6.999  25.713  0.00  0.00    -0.384 OA
ATOM     43  H   UNL     1       3.802  -6.752  24.766  0.00  0.00    +0.210 HD
ENDBRANCH  39  42
BRANCH  40  44
ATOM     44  O   UNL     1       2.330  -7.705  27.911  0.00  0.00    -0.386 OA
ATOM     45  H   UNL     1       2.139  -7.926  28.838  0.00  0.00    +0.210 HD
ENDBRANCH  40  44
BRANCH  41  46
ATOM     46  O   UNL     1       5.107  -7.456  28.118  0.00  0.00    -0.387 OA
ATOM     47  H   UNL     1       6.004  -7.085  27.997  0.00  0.00    +0.210 HD
ENDBRANCH  41  46
ENDBRANCH  34  38
ENDBRANCH  27  34
BRANCH  29  48
ATOM     48  C   UNL     1       6.002  -5.194  20.775  0.00  0.00    +0.190 C 
BRANCH  48  49
ATOM     49  O   UNL     1       7.089  -6.043  21.139  0.00  0.00    -0.392 OA
ATOM     50  H   UNL     1       7.700  -6.023  20.380  0.00  0.00    +0.210 HD
ENDBRANCH  48  49
ENDBRANCH  29  48
ENDBRANCH   1  31
TORSDOF 15
ENDMDL
MODEL 5
REMARK VINA RESULT:      -6.7      2.976      5.561
REMARK  Name = 
REMARK  16 active torsions:
REMARK  status: ('A' for Active; 'I' for Inactive)
REMARK    1  A    between atoms: C_1  and  C_2
REMARK    2  A    between atoms: C_3  and  O_47
REMARK    3  A    between atoms: C_5  and  O_46
REMARK    4  A    between atoms: C_6  and  O_45
REMARK    5  A    between atoms: C_8  and  O_11
REMARK    6  A    between atoms: O_11  and  C_12
REMARK    7  A    between atoms: C_14  and  O_23
REMARK    8  A    between atoms: C_17  and  C_21
REMARK    9  A    between atoms: C_19  and  O_20
REMARK   10  A    between atoms: C_21  and  O_22
REMARK   11  A    between atoms: O_23  and  C_24
REMARK   12  A    between atoms: C_25  and  C_37
REMARK   13  A    between atoms: C_29  and  O_36
REMARK   14  A    between atoms: C_31  and  O_35
REMARK   15  A    between atoms: C_39  and  O_44
REMARK   16  A    between atoms: C_40  and  O_43
REMARK                            x       y       z     vdW  Elec       q    Type
REMARK                         _______ _______ _______ _____ _____    ______ ____
ROOT
ATOM      1  O   UNL     1       6.960   1.681  26.467  0.00  0.00    -0.453 OA
ENDROOT
BRANCH   1   2
ATOM      2  C   UNL     1       7.434   2.680  25.582  0.00  0.00    +0.214 A 
ATOM      3  C   UNL     1       7.136   4.160  25.803  0.00  0.00    +0.238 A 
ATOM      4  O   UNL     1       7.037   4.667  26.913  0.00  0.00    -0.283 OA
ATOM      5  C   UNL     1       6.987   4.991  24.588  0.00  0.00    +0.109 A 
ATOM      6  C   UNL     1       7.703   4.573  23.483  0.00  0.00    +0.147 A 
ATOM      7  C   UNL     1       7.649   5.274  22.269  0.00  0.00    +0.092 A 
ATOM      8  C   UNL     1       6.838   6.402  22.181  0.00  0.00    +0.124 A 
ATOM      9  C   UNL     1       6.121   6.848  23.286  0.00  0.00    +0.091 A 
ATOM     10  O   UNL     1       8.513   3.476  23.560  0.00  0.00    -0.451 OA
ATOM     11  C   UNL     1       6.202   6.145  24.493  0.00  0.00    +0.135 A 
ATOM     12  C   UNL     1       8.179   2.443  24.454  0.00  0.00    +0.181 A 
BRANCH  12  13
ATOM     13  C   UNL     1       8.742   1.153  23.911  0.00  0.00    +0.025 A 
ATOM     14  C   UNL     1       9.491   0.310  24.777  0.00  0.00    +0.015 A 
ATOM     15  C   UNL     1      10.219  -0.806  24.339  0.00  0.00    +0.050 A 
ATOM     16  C   UNL     1      10.177  -1.121  22.996  0.00  0.00    +0.158 A 
ATOM     17  C   UNL     1       9.371  -0.383  22.131  0.00  0.00    +0.159 A 
ATOM     18  C   UNL     1       8.659   0.742  22.568  0.00  0.00    +0.060 A 
BRANCH  16  19
ATOM     19  O   UNL     1      10.932  -2.157  22.531  0.00  0.00    -0.503 OA
ATOM     20  H   UNL     1      11.850  -1.824  22.532  0.00  0.00    +0.292 HD
ENDBRANCH  16  19
BRANCH  17  21
ATOM     21  O   UNL     1       9.283  -0.822  20.844  0.00  0.00    -0.503 OA
ATOM     22  H   UNL     1      10.124  -1.282  20.661  0.00  0.00    +0.292 HD
ENDBRANCH  17  21
ENDBRANCH  12  13
BRANCH   8  23
ATOM     23  O   UNL     1       6.703   7.108  21.021  0.00  0.00    -0.507 OA
ATOM     24  H   UNL     1       7.394   7.788  20.965  0.00  0.00    +0.292 HD
ENDBRANCH   8  23
BRANCH  11  25
ATOM     25  O   UNL     1       5.465   6.581  25.555  0.00  0.00    -0.506 OA
ATOM     26  H   UNL     1       5.550   7.546  25.633  0.00  0.00    +0.292 HD
ENDBRANCH  11  25
ENDBRANCH   1   2
BRANCH   1  31
ATOM     27  C   UNL     1       5.761  -0.608  25.971  0.00  0.00    +0.221 C 
ATOM     28  C   UNL     1       4.394  -0.978  26.574  0.00  0.00    +0.180 C 
ATOM     29  C   UNL     1       4.187   0.068  27.648  0.00  0.00    +0.179 C 
ATOM     30  O   UNL     1       4.679   1.300  27.108  0.00  0.00    -0.331 OA
ATOM     31  C   UNL     1       5.719   0.991  26.146  0.00  0.00    +0.340 C 
BRANCH  28  32
ATOM     32  O   UNL     1       4.219  -2.263  27.135  0.00  0.00    -0.386 OA
ATOM     33  H   UNL     1       3.567  -2.750  26.585  0.00  0.00    +0.210 HD
ENDBRANCH  28  32
BRANCH  27  34
ATOM     34  O   UNL     1       6.856  -1.333  26.562  0.00  0.00    -0.337 OA
BRANCH  34  38
ATOM     35  C   UNL     1       7.708  -3.831  22.924  0.00  0.00    +0.041 C 
ATOM     36  C   UNL     1       6.657  -4.059  24.011  0.00  0.00    +0.149 C 
ATOM     37  O   UNL     1       6.399  -2.869  24.783  0.00  0.00    -0.343 OA
ATOM     38  C   UNL     1       7.349  -2.467  25.772  0.00  0.00    +0.282 C 
ATOM     39  C   UNL     1       7.627  -3.649  26.729  0.00  0.00    +0.201 C 
ATOM     40  C   UNL     1       8.045  -4.902  25.943  0.00  0.00    +0.179 C 
ATOM     41  C   UNL     1       6.990  -5.277  24.884  0.00  0.00    +0.174 C 
BRANCH  39  42
ATOM     42  O   UNL     1       6.456  -3.984  27.504  0.00  0.00    -0.384 OA
ATOM     43  H   UNL     1       6.447  -4.961  27.553  0.00  0.00    +0.210 HD
ENDBRANCH  39  42
BRANCH  40  44
ATOM     44  O   UNL     1       8.211  -5.993  26.861  0.00  0.00    -0.386 OA
ATOM     45  H   UNL     1       8.520  -6.770  26.368  0.00  0.00    +0.210 HD
ENDBRANCH  40  44
BRANCH  41  46
ATOM     46  O   UNL     1       5.783  -5.763  25.494  0.00  0.00    -0.387 OA
ATOM     47  H   UNL     1       5.261  -6.207  24.797  0.00  0.00    +0.210 HD
ENDBRANCH  41  46
ENDBRANCH  34  38
ENDBRANCH  27  34
BRANCH  29  48
ATOM     48  C   UNL     1       2.710   0.151  28.055  0.00  0.00    +0.190 C 
BRANCH  48  49
ATOM     49  O   UNL     1       1.879  -0.441  27.059  0.00  0.00    -0.392 OA
ATOM     50  H   UNL     1       1.378   0.297  26.665  0.00  0.00    +0.210 HD
ENDBRANCH  48  49
ENDBRANCH  29  48
ENDBRANCH   1  31
TORSDOF 15
ENDMDL
MODEL 6
REMARK VINA RESULT:      -6.7      2.037      8.598
REMARK  Name = 
REMARK  16 active torsions:
REMARK  status: ('A' for Active; 'I' for Inactive)
REMARK    1  A    between atoms: C_1  and  C_2
REMARK    2  A    between atoms: C_3  and  O_47
REMARK    3  A    between atoms: C_5  and  O_46
REMARK    4  A    between atoms: C_6  and  O_45
REMARK    5  A    between atoms: C_8  and  O_11
REMARK    6  A    between atoms: O_11  and  C_12
REMARK    7  A    between atoms: C_14  and  O_23
REMARK    8  A    between atoms: C_17  and  C_21
REMARK    9  A    between atoms: C_19  and  O_20
REMARK   10  A    between atoms: C_21  and  O_22
REMARK   11  A    between atoms: O_23  and  C_24
REMARK   12  A    between atoms: C_25  and  C_37
REMARK   13  A    between atoms: C_29  and  O_36
REMARK   14  A    between atoms: C_31  and  O_35
REMARK   15  A    between atoms: C_39  and  O_44
REMARK   16  A    between atoms: C_40  and  O_43
REMARK                            x       y       z     vdW  Elec       q    Type
REMARK                         _______ _______ _______ _____ _____    ______ ____
ROOT
ATOM      1  O   UNL     1       5.925  -2.940  22.696  0.00  0.00    -0.453 OA
ENDROOT
BRANCH   1   2
ATOM      2  C   UNL     1       5.356  -3.716  23.734  0.00  0.00    +0.214 A 
ATOM      3  C   UNL     1       4.730  -5.083  23.469  0.00  0.00    +0.238 A 
ATOM      4  O   UNL     1       5.142  -5.856  22.614  0.00  0.00    -0.283 OA
ATOM      5  C   UNL     1       3.583  -5.460  24.324  0.00  0.00    +0.109 A 
ATOM      6  C   UNL     1       3.576  -4.915  25.594  0.00  0.00    +0.147 A 
ATOM      7  C   UNL     1       2.544  -5.195  26.502  0.00  0.00    +0.092 A 
ATOM      8  C   UNL     1       1.501  -6.024  26.100  0.00  0.00    +0.124 A 
ATOM      9  C   UNL     1       1.497  -6.594  24.831  0.00  0.00    +0.091 A 
ATOM     10  O   UNL     1       4.600  -4.112  26.006  0.00  0.00    -0.451 OA
ATOM     11  C   UNL     1       2.544  -6.318  23.945  0.00  0.00    +0.135 A 
ATOM     12  C   UNL     1       5.288  -3.340  25.052  0.00  0.00    +0.181 A 
BRANCH  12  13
ATOM     13  C   UNL     1       5.835  -2.117  25.746  0.00  0.00    +0.025 A 
ATOM     14  C   UNL     1       5.056  -0.928  25.759  0.00  0.00    +0.015 A 
ATOM     15  C   UNL     1       5.537   0.314  26.200  0.00  0.00    +0.050 A 
ATOM     16  C   UNL     1       6.830   0.375  26.678  0.00  0.00    +0.158 A 
ATOM     17  C   UNL     1       7.591  -0.789  26.781  0.00  0.00    +0.159 A 
ATOM     18  C   UNL     1       7.114  -2.024  26.323  0.00  0.00    +0.060 A 
BRANCH  16  19
ATOM     19  O   UNL     1       7.349   1.581  27.046  0.00  0.00    -0.503 OA
ATOM     20  H   UNL     1       8.159   1.368  27.549  0.00  0.00    +0.292 HD
ENDBRANCH  16  19
BRANCH  17  21
ATOM     21  O   UNL     1       8.813  -0.676  27.373  0.00  0.00    -0.503 OA
ATOM     22  H   UNL     1       9.227   0.117  26.984  0.00  0.00    +0.292 HD
ENDBRANCH  17  21
ENDBRANCH  12  13
BRANCH   8  23
ATOM     23  O   UNL     1       0.443  -6.305  26.915  0.00  0.00    -0.507 OA
ATOM     24  H   UNL     1      -0.082  -5.500  27.063  0.00  0.00    +0.292 HD
ENDBRANCH   8  23
BRANCH  11  25
ATOM     25  O   UNL     1       2.504  -6.861  22.695  0.00  0.00    -0.506 OA
ATOM     26  H   UNL     1       2.043  -7.716  22.728  0.00  0.00    +0.292 HD
ENDBRANCH  11  25
ENDBRANCH   1   2
BRANCH   1  31
ATOM     27  C   UNL     1       8.180  -1.588  22.611  0.00  0.00    +0.221 C 
ATOM     28  C   UNL     1       9.475  -2.089  23.275  0.00  0.00    +0.180 C 
ATOM     29  C   UNL     1       9.004  -3.228  24.153  0.00  0.00    +0.179 C 
ATOM     30  O   UNL     1       7.998  -3.920  23.405  0.00  0.00    -0.331 OA
ATOM     31  C   UNL     1       7.368  -2.972  22.505  0.00  0.00    +0.340 C 
BRANCH  28  32
ATOM     32  O   UNL     1      10.238  -1.186  24.052  0.00  0.00    -0.386 OA
ATOM     33  H   UNL     1      11.188  -1.380  23.897  0.00  0.00    +0.210 HD
ENDBRANCH  28  32
BRANCH  27  34
ATOM     34  O   UNL     1       7.571  -0.488  23.313  0.00  0.00    -0.337 OA
BRANCH  34  38
ATOM     35  C   UNL     1      10.475   2.940  23.440  0.00  0.00    +0.041 C 
ATOM     36  C   UNL     1       9.099   2.833  24.099  0.00  0.00    +0.149 C 
ATOM     37  O   UNL     1       8.638   1.469  24.186  0.00  0.00    -0.343 OA
ATOM     38  C   UNL     1       8.136   0.832  23.010  0.00  0.00    +0.282 C 
ATOM     39  C   UNL     1       7.027   1.709  22.383  0.00  0.00    +0.201 C 
ATOM     40  C   UNL     1       7.533   3.141  22.144  0.00  0.00    +0.179 C 
ATOM     41  C   UNL     1       8.074   3.769  23.443  0.00  0.00    +0.174 C 
BRANCH  39  42
ATOM     42  O   UNL     1       5.870   1.788  23.244  0.00  0.00    -0.384 OA
ATOM     43  H   UNL     1       5.186   1.236  22.812  0.00  0.00    +0.210 HD
ENDBRANCH  39  42
BRANCH  40  44
ATOM     44  O   UNL     1       6.451   3.939  21.642  0.00  0.00    -0.386 OA
ATOM     45  H   UNL     1       6.816   4.643  21.082  0.00  0.00    +0.210 HD
ENDBRANCH  40  44
BRANCH  41  46
ATOM     46  O   UNL     1       7.017   4.037  24.378  0.00  0.00    -0.387 OA
ATOM     47  H   UNL     1       6.204   3.622  24.028  0.00  0.00    +0.210 HD
ENDBRANCH  41  46
ENDBRANCH  34  38
ENDBRANCH  27  34
BRANCH  29  48
ATOM     48  C   UNL     1      10.175  -4.137  24.547  0.00  0.00    +0.190 C 
BRANCH  48  49
ATOM     49  O   UNL     1       9.712  -5.454  24.843  0.00  0.00    -0.392 OA
ATOM     50  H   UNL     1      10.346  -6.055  24.411  0.00  0.00    +0.210 HD
ENDBRANCH  48  49
ENDBRANCH  29  48
ENDBRANCH   1  31
TORSDOF 15
ENDMDL
MODEL 7
REMARK VINA RESULT:      -6.7      4.831      8.962
REMARK  Name = 
REMARK  16 active torsions:
REMARK  status: ('A' for Active; 'I' for Inactive)
REMARK    1  A    between atoms: C_1  and  C_2
REMARK    2  A    between atoms: C_3  and  O_47
REMARK    3  A    between atoms: C_5  and  O_46
REMARK    4  A    between atoms: C_6  and  O_45
REMARK    5  A    between atoms: C_8  and  O_11
REMARK    6  A    between atoms: O_11  and  C_12
REMARK    7  A    between atoms: C_14  and  O_23
REMARK    8  A    between atoms: C_17  and  C_21
REMARK    9  A    between atoms: C_19  and  O_20
REMARK   10  A    between atoms: C_21  and  O_22
REMARK   11  A    between atoms: O_23  and  C_24
REMARK   12  A    between atoms: C_25  and  C_37
REMARK   13  A    between atoms: C_29  and  O_36
REMARK   14  A    between atoms: C_31  and  O_35
REMARK   15  A    between atoms: C_39  and  O_44
REMARK   16  A    between atoms: C_40  and  O_43
REMARK                            x       y       z     vdW  Elec       q    Type
REMARK                         _______ _______ _______ _____ _____    ______ ____
ROOT
ATOM      1  O   UNL     1       7.269   3.879  23.720  0.00  0.00    -0.453 OA
ENDROOT
BRANCH   1   2
ATOM      2  C   UNL     1       8.036   2.778  23.271  0.00  0.00    +0.214 A 
ATOM      3  C   UNL     1       7.384   1.503  22.741  0.00  0.00    +0.238 A 
ATOM      4  O   UNL     1       6.330   1.497  22.120  0.00  0.00    -0.283 OA
ATOM      5  C   UNL     1       8.106   0.237  22.998  0.00  0.00    +0.109 A 
ATOM      6  C   UNL     1       9.481   0.339  23.093  0.00  0.00    +0.147 A 
ATOM      7  C   UNL     1      10.281  -0.788  23.333  0.00  0.00    +0.092 A 
ATOM      8  C   UNL     1       9.667  -2.026  23.496  0.00  0.00    +0.124 A 
ATOM      9  C   UNL     1       8.286  -2.152  23.389  0.00  0.00    +0.091 A 
ATOM     10  O   UNL     1      10.097   1.545  22.921  0.00  0.00    -0.451 OA
ATOM     11  C   UNL     1       7.505  -1.019  23.132  0.00  0.00    +0.135 A 
ATOM     12  C   UNL     1       9.407   2.720  23.272  0.00  0.00    +0.181 A 
BRANCH  12  13
ATOM     13  C   UNL     1      10.427   3.768  23.644  0.00  0.00    +0.025 A 
ATOM     14  C   UNL     1       9.999   4.921  24.358  0.00  0.00    +0.015 A 
ATOM     15  C   UNL     1      10.812   6.041  24.586  0.00  0.00    +0.050 A 
ATOM     16  C   UNL     1      12.111   6.006  24.120  0.00  0.00    +0.158 A 
ATOM     17  C   UNL     1      12.601   4.853  23.509  0.00  0.00    +0.159 A 
ATOM     18  C   UNL     1      11.781   3.742  23.266  0.00  0.00    +0.060 A 
BRANCH  16  19
ATOM     19  O   UNL     1      12.900   7.108  24.264  0.00  0.00    -0.503 OA
ATOM     20  H   UNL     1      12.909   7.292  25.224  0.00  0.00    +0.292 HD
ENDBRANCH  16  19
BRANCH  17  21
ATOM     21  O   UNL     1      13.924   4.843  23.182  0.00  0.00    -0.503 OA
ATOM     22  H   UNL     1      14.023   5.484  22.453  0.00  0.00    +0.292 HD
ENDBRANCH  17  21
ENDBRANCH  12  13
BRANCH   8  23
ATOM     23  O   UNL     1      10.378  -3.156  23.775  0.00  0.00    -0.507 OA
ATOM     24  H   UNL     1       9.920  -3.675  24.457  0.00  0.00    +0.292 HD
ENDBRANCH   8  23
BRANCH  11  25
ATOM     25  O   UNL     1       6.150  -1.160  23.062  0.00  0.00    -0.506 OA
ATOM     26  H   UNL     1       5.900  -2.044  23.378  0.00  0.00    +0.292 HD
ENDBRANCH  11  25
ENDBRANCH   1   2
BRANCH   1  31
ATOM     27  C   UNL     1       5.300   3.798  25.463  0.00  0.00    +0.221 C 
ATOM     28  C   UNL     1       5.383   2.996  26.775  0.00  0.00    +0.180 C 
ATOM     29  C   UNL     1       6.607   2.127  26.580  0.00  0.00    +0.179 C 
ATOM     30  O   UNL     1       7.574   2.943  25.909  0.00  0.00    -0.331 OA
ATOM     31  C   UNL     1       6.865   3.931  25.118  0.00  0.00    +0.340 C 
BRANCH  28  32
ATOM     32  O   UNL     1       4.289   2.183  27.149  0.00  0.00    -0.386 OA
ATOM     33  H   UNL     1       3.468   2.603  26.810  0.00  0.00    +0.210 HD
ENDBRANCH  28  32
BRANCH  27  34
ATOM     34  O   UNL     1       4.431   3.196  24.484  0.00  0.00    -0.337 OA
BRANCH  34  38
ATOM     35  C   UNL     1       0.444   4.857  23.241  0.00  0.00    +0.041 C 
ATOM     36  C   UNL     1       1.488   4.142  22.381  0.00  0.00    +0.149 C 
ATOM     37  O   UNL     1       2.437   3.402  23.175  0.00  0.00    -0.343 OA
ATOM     38  C   UNL     1       3.471   4.113  23.858  0.00  0.00    +0.282 C 
ATOM     39  C   UNL     1       4.232   5.008  22.852  0.00  0.00    +0.201 C 
ATOM     40  C   UNL     1       3.258   5.917  22.086  0.00  0.00    +0.179 C 
ATOM     41  C   UNL     1       2.159   5.096  21.383  0.00  0.00    +0.174 C 
BRANCH  39  42
ATOM     42  O   UNL     1       4.951   4.215  21.883  0.00  0.00    -0.384 OA
ATOM     43  H   UNL     1       4.293   3.984  21.196  0.00  0.00    +0.210 HD
ENDBRANCH  39  42
BRANCH  40  44
ATOM     44  O   UNL     1       3.993   6.668  21.108  0.00  0.00    -0.386 OA
ATOM     45  H   UNL     1       4.407   7.429  21.546  0.00  0.00    +0.210 HD
ENDBRANCH  40  44
BRANCH  41  46
ATOM     46  O   UNL     1       2.692   4.333  20.289  0.00  0.00    -0.387 OA
ATOM     47  H   UNL     1       2.141   4.522  19.503  0.00  0.00    +0.210 HD
ENDBRANCH  41  46
ENDBRANCH  34  38
ENDBRANCH  27  34
BRANCH  29  48
ATOM     48  C   UNL     1       7.118   1.592  27.924  0.00  0.00    +0.190 C 
BRANCH  48  49
ATOM     49  O   UNL     1       6.264   0.559  28.412  0.00  0.00    -0.392 OA
ATOM     50  H   UNL     1       6.073  -0.007  27.642  0.00  0.00    +0.210 HD
ENDBRANCH  48  49
ENDBRANCH  29  48
ENDBRANCH   1  31
TORSDOF 15
ENDMDL
MODEL 8
REMARK VINA RESULT:      -6.7      2.135      2.647
REMARK  Name = 
REMARK  16 active torsions:
REMARK  status: ('A' for Active; 'I' for Inactive)
REMARK    1  A    between atoms: C_1  and  C_2
REMARK    2  A    between atoms: C_3  and  O_47
REMARK    3  A    between atoms: C_5  and  O_46
REMARK    4  A    between atoms: C_6  and  O_45
REMARK    5  A    between atoms: C_8  and  O_11
REMARK    6  A    between atoms: O_11  and  C_12
REMARK    7  A    between atoms: C_14  and  O_23
REMARK    8  A    between atoms: C_17  and  C_21
REMARK    9  A    between atoms: C_19  and  O_20
REMARK   10  A    between atoms: C_21  and  O_22
REMARK   11  A    between atoms: O_23  and  C_24
REMARK   12  A    between atoms: C_25  and  C_37
REMARK   13  A    between atoms: C_29  and  O_36
REMARK   14  A    between atoms: C_31  and  O_35
REMARK   15  A    between atoms: C_39  and  O_44
REMARK   16  A    between atoms: C_40  and  O_43
REMARK                            x       y       z     vdW  Elec       q    Type
REMARK                         _______ _______ _______ _____ _____    ______ ____
ROOT
ATOM      1  O   UNL     1       5.842  -1.535  26.433  0.00  0.00    -0.453 OA
ENDROOT
BRANCH   1   2
ATOM      2  C   UNL     1       6.547  -0.731  25.506  0.00  0.00    +0.214 A 
ATOM      3  C   UNL     1       7.073   0.654  25.876  0.00  0.00    +0.238 A 
ATOM      4  O   UNL     1       7.474   0.943  26.996  0.00  0.00    -0.283 OA
ATOM      5  C   UNL     1       7.099   1.661  24.792  0.00  0.00    +0.109 A 
ATOM      6  C   UNL     1       7.263   1.162  23.514  0.00  0.00    +0.147 A 
ATOM      7  C   UNL     1       7.306   2.012  22.399  0.00  0.00    +0.092 A 
ATOM      8  C   UNL     1       7.160   3.383  22.593  0.00  0.00    +0.124 A 
ATOM      9  C   UNL     1       7.009   3.906  23.873  0.00  0.00    +0.091 A 
ATOM     10  O   UNL     1       7.422  -0.179  23.311  0.00  0.00    -0.451 OA
ATOM     11  C   UNL     1       6.986   3.043  24.974  0.00  0.00    +0.135 A 
ATOM     12  C   UNL     1       6.820  -1.081  24.208  0.00  0.00    +0.181 A 
BRANCH  12  13
ATOM     13  C   UNL     1       6.543  -2.365  23.465  0.00  0.00    +0.025 A 
ATOM     14  C   UNL     1       7.551  -2.900  22.617  0.00  0.00    +0.015 A 
ATOM     15  C   UNL     1       7.339  -3.970  21.736  0.00  0.00    +0.050 A 
ATOM     16  C   UNL     1       6.090  -4.558  21.718  0.00  0.00    +0.158 A 
ATOM     17  C   UNL     1       5.107  -4.132  22.609  0.00  0.00    +0.159 A 
ATOM     18  C   UNL     1       5.315  -3.051  23.475  0.00  0.00    +0.060 A 
BRANCH  16  19
ATOM     19  O   UNL     1       5.835  -5.553  20.821  0.00  0.00    -0.503 OA
ATOM     20  H   UNL     1       6.611  -6.144  20.869  0.00  0.00    +0.292 HD
ENDBRANCH  16  19
BRANCH  17  21
ATOM     21  O   UNL     1       3.939  -4.835  22.620  0.00  0.00    -0.503 OA
ATOM     22  H   UNL     1       3.366  -4.412  21.953  0.00  0.00    +0.292 HD
ENDBRANCH  17  21
ENDBRANCH  12  13
BRANCH   8  23
ATOM     23  O   UNL     1       7.148   4.264  21.552  0.00  0.00    -0.507 OA
ATOM     24  H   UNL     1       7.115   3.781  20.709  0.00  0.00    +0.292 HD
ENDBRANCH   8  23
BRANCH  11  25
ATOM     25  O   UNL     1       6.805   3.574  26.218  0.00  0.00    -0.506 OA
ATOM     26  H   UNL     1       7.234   4.445  26.264  0.00  0.00    +0.292 HD
ENDBRANCH  11  25
ENDBRANCH   1   2
BRANCH   1  31
ATOM     27  C   UNL     1       5.865  -3.980  27.404  0.00  0.00    +0.221 C 
ATOM     28  C   UNL     1       7.093  -4.903  27.304  0.00  0.00    +0.180 C 
ATOM     29  C   UNL     1       7.986  -4.194  26.309  0.00  0.00    +0.179 C 
ATOM     30  O   UNL     1       7.877  -2.795  26.597  0.00  0.00    -0.331 OA
ATOM     31  C   UNL     1       6.570  -2.552  27.177  0.00  0.00    +0.340 C 
BRANCH  28  32
ATOM     32  O   UNL     1       6.909  -6.243  26.893  0.00  0.00    -0.386 OA
ATOM     33  H   UNL     1       5.971  -6.353  26.625  0.00  0.00    +0.210 HD
ENDBRANCH  28  32
BRANCH  27  34
ATOM     34  O   UNL     1       4.794  -4.363  26.522  0.00  0.00    -0.337 OA
BRANCH  34  38
ATOM     35  C   UNL     1       1.519  -4.575  29.592  0.00  0.00    +0.041 C 
ATOM     36  C   UNL     1       2.715  -5.510  29.410  0.00  0.00    +0.149 C 
ATOM     37  O   UNL     1       3.756  -4.918  28.607  0.00  0.00    -0.343 OA
ATOM     38  C   UNL     1       3.581  -4.849  27.190  0.00  0.00    +0.282 C 
ATOM     39  C   UNL     1       3.249  -6.257  26.643  0.00  0.00    +0.201 C 
ATOM     40  C   UNL     1       2.047  -6.862  27.387  0.00  0.00    +0.179 C 
ATOM     41  C   UNL     1       2.289  -6.897  28.909  0.00  0.00    +0.174 C 
BRANCH  39  42
ATOM     42  O   UNL     1       4.366  -7.158  26.802  0.00  0.00    -0.384 OA
ATOM     43  H   UNL     1       4.013  -8.048  26.597  0.00  0.00    +0.210 HD
ENDBRANCH  39  42
BRANCH  40  44
ATOM     44  O   UNL     1       1.828  -8.197  26.907  0.00  0.00    -0.386 OA
ATOM     45  H   UNL     1       1.810  -8.180  25.936  0.00  0.00    +0.210 HD
ENDBRANCH  40  44
BRANCH  41  46
ATOM     46  O   UNL     1       3.299  -7.855  29.259  0.00  0.00    -0.387 OA
ATOM     47  H   UNL     1       2.874  -8.542  29.810  0.00  0.00    +0.210 HD
ENDBRANCH  41  46
ENDBRANCH  34  38
ENDBRANCH  27  34
BRANCH  29  48
ATOM     48  C   UNL     1       9.430  -4.705  26.406  0.00  0.00    +0.190 C 
BRANCH  48  49
ATOM     49  O   UNL     1       9.610  -5.862  25.592  0.00  0.00    -0.392 OA
ATOM     50  H   UNL     1       9.447  -6.622  26.181  0.00  0.00    +0.210 HD
ENDBRANCH  48  49
ENDBRANCH  29  48
ENDBRANCH   1  31
TORSDOF 15
ENDMDL
MODEL 9
REMARK VINA RESULT:      -6.6      2.481      4.145
REMARK  Name = 
REMARK  16 active torsions:
REMARK  status: ('A' for Active; 'I' for Inactive)
REMARK    1  A    between atoms: C_1  and  C_2
REMARK    2  A    between atoms: C_3  and  O_47
REMARK    3  A    between atoms: C_5  and  O_46
REMARK    4  A    between atoms: C_6  and  O_45
REMARK    5  A    between atoms: C_8  and  O_11
REMARK    6  A    between atoms: O_11  and  C_12
REMARK    7  A    between atoms: C_14  and  O_23
REMARK    8  A    between atoms: C_17  and  C_21
REMARK    9  A    between atoms: C_19  and  O_20
REMARK   10  A    between atoms: C_21  and  O_22
REMARK   11  A    between atoms: O_23  and  C_24
REMARK   12  A    between atoms: C_25  and  C_37
REMARK   13  A    between atoms: C_29  and  O_36
REMARK   14  A    between atoms: C_31  and  O_35
REMARK   15  A    between atoms: C_39  and  O_44
REMARK   16  A    between atoms: C_40  and  O_43
REMARK                            x       y       z     vdW  Elec       q    Type
REMARK                         _______ _______ _______ _____ _____    ______ ____
ROOT
ATOM      1  O   UNL     1       6.014  -0.866  27.573  0.00  0.00    -0.453 OA
ENDROOT
BRANCH   1   2
ATOM      2  C   UNL     1       6.938   0.017  26.964  0.00  0.00    +0.214 A 
ATOM      3  C   UNL     1       6.802   1.533  27.079  0.00  0.00    +0.238 A 
ATOM      4  O   UNL     1       6.355   2.093  28.072  0.00  0.00    -0.283 OA
ATOM      5  C   UNL     1       7.262   2.326  25.919  0.00  0.00    +0.109 A 
ATOM      6  C   UNL     1       8.281   1.765  25.174  0.00  0.00    +0.147 A 
ATOM      7  C   UNL     1       8.808   2.417  24.049  0.00  0.00    +0.092 A 
ATOM      8  C   UNL     1       8.274   3.646  23.673  0.00  0.00    +0.124 A 
ATOM      9  C   UNL     1       7.257   4.235  24.418  0.00  0.00    +0.091 A 
ATOM     10  O   UNL     1       8.825   0.567  25.540  0.00  0.00    -0.451 OA
ATOM     11  C   UNL     1       6.757   3.577  25.547  0.00  0.00    +0.135 A 
ATOM     12  C   UNL     1       8.019  -0.371  26.213  0.00  0.00    +0.181 A 
BRANCH  12  13
ATOM     13  C   UNL     1       8.551  -1.749  25.907  0.00  0.00    +0.025 A 
ATOM     14  C   UNL     1       9.206  -1.974  24.666  0.00  0.00    +0.015 A 
ATOM     15  C   UNL     1       9.565  -3.246  24.194  0.00  0.00    +0.050 A 
ATOM     16  C   UNL     1       9.296  -4.335  24.998  0.00  0.00    +0.158 A 
ATOM     17  C   UNL     1       8.753  -4.147  26.268  0.00  0.00    +0.159 A 
ATOM     18  C   UNL     1       8.378  -2.878  26.729  0.00  0.00    +0.060 A 
BRANCH  16  19
ATOM     19  O   UNL     1       9.569  -5.588  24.535  0.00  0.00    -0.503 OA
ATOM     20  H   UNL     1       9.034  -5.682  23.723  0.00  0.00    +0.292 HD
ENDBRANCH  16  19
BRANCH  17  21
ATOM     21  O   UNL     1       8.626  -5.253  27.054  0.00  0.00    -0.503 OA
ATOM     22  H   UNL     1       7.758  -5.172  27.491  0.00  0.00    +0.292 HD
ENDBRANCH  17  21
ENDBRANCH  12  13
BRANCH   8  23
ATOM     23  O   UNL     1       8.707   4.316  22.566  0.00  0.00    -0.507 OA
ATOM     24  H   UNL     1       9.671   4.427  22.604  0.00  0.00    +0.292 HD
ENDBRANCH   8  23
BRANCH  11  25
ATOM     25  O   UNL     1       5.739   4.158  26.245  0.00  0.00    -0.506 OA
ATOM     26  H   UNL     1       5.356   4.880  25.720  0.00  0.00    +0.292 HD
ENDBRANCH  11  25
ENDBRANCH   1   2
BRANCH   1  31
ATOM     27  C   UNL     1       4.107  -2.193  26.339  0.00  0.00    +0.221 C 
ATOM     28  C   UNL     1       2.654  -2.226  26.848  0.00  0.00    +0.180 C 
ATOM     29  C   UNL     1       2.757  -1.655  28.246  0.00  0.00    +0.179 C 
ATOM     30  O   UNL     1       3.708  -0.587  28.173  0.00  0.00    -0.331 OA
ATOM     31  C   UNL     1       4.638  -0.879  27.099  0.00  0.00    +0.340 C 
BRANCH  28  32
ATOM     32  O   UNL     1       1.977  -3.466  26.899  0.00  0.00    -0.386 OA
ATOM     33  H   UNL     1       2.017  -3.797  27.824  0.00  0.00    +0.210 HD
ENDBRANCH  28  32
BRANCH  27  34
ATOM     34  O   UNL     1       4.809  -3.433  26.544  0.00  0.00    -0.337 OA
BRANCH  34  38
ATOM     35  C   UNL     1       6.365  -3.932  22.357  0.00  0.00    +0.041 C 
ATOM     36  C   UNL     1       4.929  -4.074  22.862  0.00  0.00    +0.149 C 
ATOM     37  O   UNL     1       4.738  -3.455  24.151  0.00  0.00    -0.343 OA
ATOM     38  C   UNL     1       5.224  -4.123  25.317  0.00  0.00    +0.282 C 
ATOM     39  C   UNL     1       4.669  -5.566  25.353  0.00  0.00    +0.201 C 
ATOM     40  C   UNL     1       4.982  -6.304  24.041  0.00  0.00    +0.179 C 
ATOM     41  C   UNL     1       4.447  -5.530  22.821  0.00  0.00    +0.174 C 
BRANCH  39  42
ATOM     42  O   UNL     1       3.236  -5.574  25.533  0.00  0.00    -0.384 OA
ATOM     43  H   UNL     1       2.926  -6.402  25.114  0.00  0.00    +0.210 HD
ENDBRANCH  39  42
BRANCH  40  44
ATOM     44  O   UNL     1       4.379  -7.606  24.085  0.00  0.00    -0.386 OA
ATOM     45  H   UNL     1       4.785  -8.114  24.806  0.00  0.00    +0.210 HD
ENDBRANCH  40  44
BRANCH  41  46
ATOM     46  O   UNL     1       3.011  -5.549  22.775  0.00  0.00    -0.387 OA
ATOM     47  H   UNL     1       2.717  -6.406  23.144  0.00  0.00    +0.210 HD
ENDBRANCH  41  46
ENDBRANCH  34  38
ENDBRANCH  27  34
BRANCH  29  48
ATOM     48  C   UNL     1       1.385  -1.190  28.750  0.00  0.00    +0.190 C 
BRANCH  48  49
ATOM     49  O   UNL     1       0.518  -0.899  27.655  0.00  0.00    -0.392 OA
ATOM     50  H   UNL     1       0.870  -0.083  27.254  0.00  0.00    +0.210 HD
ENDBRANCH  48  49
ENDBRANCH  29  48
ENDBRANCH   1  31
TORSDOF 15
ENDMDL
