MODEL 1
REMARK VINA RESULT:      -7.4      0.000      0.000
REMARK  Name = 
REMARK  17 active torsions:
REMARK  status: ('A' for Active; 'I' for Inactive)
REMARK    1  A    between atoms: C_3  and  O_50
REMARK    2  A    between atoms: C_4  and  O_49
REMARK    3  A    between atoms: C_6  and  C_7
REMARK    4  A    between atoms: C_8  and  C_9
REMARK    5  A    between atoms: C_9  and  O_11
REMARK    6  A    between atoms: O_11  and  C_12
REMARK    7  A    between atoms: C_12  and  C_13
REMARK    8  A    between atoms: C_15  and  O_48
REMARK    9  A    between atoms: C_17  and  O_47
REMARK   10  A    between atoms: C_19  and  O_46
REMARK   11  A    between atoms: C_21  and  O_24
REMARK   12  A    between atoms: O_24  and  C_25
REMARK   13  A    between atoms: C_26  and  C_38
REMARK   14  A    between atoms: C_30  and  O_37
REMARK   15  A    between atoms: C_32  and  O_36
REMARK   16  A    between atoms: C_40  and  O_45
REMARK   17  A    between atoms: C_41  and  O_44
REMARK                            x       y       z     vdW  Elec       q    Type
REMARK                         _______ _______ _______ _____ _____    ______ ____
ROOT
ATOM      1  C   UNL     1       4.377  -5.627  22.877  0.00  0.00    +0.191 C 
ATOM      2  O   UNL     1       4.165  -4.216  22.929  0.00  0.00    -0.330 OA
ATOM      3  C   UNL     1       4.033  -3.626  24.223  0.00  0.00    +0.340 C 
ATOM      4  C   UNL     1       2.969  -4.317  25.113  0.00  0.00    +0.214 C 
ATOM      5  C   UNL     1       3.135  -5.835  25.120  0.00  0.00    +0.180 C 
ATOM      6  C   UNL     1       3.304  -6.371  23.685  0.00  0.00    +0.178 C 
ENDROOT
BRANCH   6   7
ATOM      7  O   UNL     1       3.519  -7.781  23.690  0.00  0.00    -0.386 OA
ATOM      8  H   UNL     1       4.482  -7.931  23.677  0.00  0.00    +0.210 HD
ENDBRANCH   6   7
BRANCH   5   9
ATOM      9  O   UNL     1       4.175  -6.229  26.019  0.00  0.00    -0.386 OA
ATOM     10  H   UNL     1       4.115  -5.713  26.839  0.00  0.00    +0.210 HD
ENDBRANCH   5   9
BRANCH   4  11
ATOM     11  O   UNL     1       1.650  -3.990  24.642  0.00  0.00    -0.383 OA
ATOM     12  H   UNL     1       1.460  -4.561  23.877  0.00  0.00    +0.210 HD
ENDBRANCH   4  11
BRANCH   3  13
ATOM     13  O   UNL     1       5.290  -3.557  24.920  0.00  0.00    -0.453 OA
BRANCH  13  14
ATOM     14  C   UNL     1       5.585  -2.392  25.644  0.00  0.00    +0.214 A 
ATOM     15  C   UNL     1       5.873  -1.077  24.968  0.00  0.00    +0.238 A 
ATOM     16  O   UNL     1       5.719  -0.907  23.765  0.00  0.00    -0.283 OA
ATOM     17  C   UNL     1       6.300   0.051  25.812  0.00  0.00    +0.109 A 
ATOM     18  C   UNL     1       6.305  -0.134  27.187  0.00  0.00    +0.147 A 
ATOM     19  C   UNL     1       6.674   0.912  28.040  0.00  0.00    +0.092 A 
ATOM     20  C   UNL     1       7.034   2.143  27.500  0.00  0.00    +0.124 A 
ATOM     21  C   UNL     1       7.040   2.350  26.128  0.00  0.00    +0.091 A 
ATOM     22  O   UNL     1       5.957  -1.315  27.782  0.00  0.00    -0.451 OA
ATOM     23  C   UNL     1       6.674   1.300  25.285  0.00  0.00    +0.135 A 
ATOM     24  C   UNL     1       5.644  -2.417  26.995  0.00  0.00    +0.181 A 
BRANCH  24  25
ATOM     25  C   UNL     1       5.469  -3.660  27.808  0.00  0.00    +0.025 A 
ATOM     26  C   UNL     1       4.322  -3.789  28.618  0.00  0.00    +0.015 A 
ATOM     27  C   UNL     1       4.160  -4.871  29.491  0.00  0.00    +0.050 A 
ATOM     28  C   UNL     1       5.138  -5.847  29.543  0.00  0.00    +0.158 A 
ATOM     29  C   UNL     1       6.236  -5.789  28.693  0.00  0.00    +0.159 A 
ATOM     30  C   UNL     1       6.408  -4.710  27.823  0.00  0.00    +0.060 A 
BRANCH  29  31
ATOM     31  O   UNL     1       7.129  -6.823  28.756  0.00  0.00    -0.503 OA
ATOM     32  H   UNL     1       6.776  -7.570  28.245  0.00  0.00    +0.292 HD
ENDBRANCH  29  31
BRANCH  28  33
ATOM     33  O   UNL     1       5.014  -6.866  30.444  0.00  0.00    -0.503 OA
ATOM     34  H   UNL     1       5.374  -7.651  29.983  0.00  0.00    +0.292 HD
ENDBRANCH  28  33
ENDBRANCH  24  25
BRANCH  23  35
ATOM     35  O   UNL     1       6.701   1.518  23.936  0.00  0.00    -0.506 OA
ATOM     36  H   UNL     1       5.877   1.223  23.518  0.00  0.00    +0.292 HD
ENDBRANCH  23  35
BRANCH  20  37
ATOM     37  O   UNL     1       7.425   3.186  28.287  0.00  0.00    -0.507 OA
ATOM     38  H   UNL     1       6.697   3.826  28.349  0.00  0.00    +0.292 HD
ENDBRANCH  20  37
ENDBRANCH  13  14
ENDBRANCH   3  13
BRANCH   1  39
ATOM     39  C   UNL     1       5.834  -6.042  23.174  0.00  0.00    +0.266 C 
BRANCH  39  40
ATOM     40  O   UNL     1       6.779  -5.181  22.502  0.00  0.00    -0.459 OA
BRANCH  40  41
ATOM     41  C   UNL     1       7.848  -4.783  23.232  0.00  0.00    +0.332 C 
ATOM     42  O   UNL     1       8.513  -5.475  23.982  0.00  0.00    -0.246 OA
BRANCH  41  44
ATOM     43  C   UNL     1       9.069  -2.688  23.565  0.00  0.00    +0.015 C 
ATOM     44  C   UNL     1       8.085  -3.353  22.938  0.00  0.00    +0.092 C 
BRANCH  43  46
ATOM     45  C   UNL     1      10.076  -0.493  24.301  0.00  0.00    +0.012 A 
ATOM     46  C   UNL     1       9.417  -1.275  23.338  0.00  0.00    -0.021 A 
ATOM     47  C   UNL     1       9.013  -0.666  22.141  0.00  0.00    +0.057 A 
ATOM     48  C   UNL     1       9.278   0.682  21.925  0.00  0.00    +0.159 A 
ATOM     49  C   UNL     1       9.939   1.444  22.883  0.00  0.00    +0.158 A 
ATOM     50  C   UNL     1      10.344   0.864  24.077  0.00  0.00    +0.050 A 
BRANCH  49  51
ATOM     51  O   UNL     1      10.155   2.766  22.609  0.00  0.00    -0.503 OA
ATOM     52  H   UNL     1      10.206   3.248  23.452  0.00  0.00    +0.292 HD
ENDBRANCH  49  51
BRANCH  48  53
ATOM     53  O   UNL     1       8.872   1.262  20.757  0.00  0.00    -0.503 OA
ATOM     54  H   UNL     1       9.678   1.292  20.204  0.00  0.00    +0.292 HD
ENDBRANCH  48  53
ENDBRANCH  43  46
ENDBRANCH  41  44
ENDBRANCH  40  41
ENDBRANCH  39  40
ENDBRANCH   1  39
TORSDOF 17
ENDMDL
MODEL 2
REMARK VINA RESULT:      -7.1      1.664      2.144
REMARK  Name = 
REMARK  17 active torsions:
REMARK  status: ('A' for Active; 'I' for Inactive)
REMARK    1  A    between atoms: C_3  and  O_50
REMARK    2  A    between atoms: C_4  and  O_49
REMARK    3  A    between atoms: C_6  and  C_7
REMARK    4  A    between atoms: C_8  and  C_9
REMARK    5  A    between atoms: C_9  and  O_11
REMARK    6  A    between atoms: O_11  and  C_12
REMARK    7  A    between atoms: C_12  and  C_13
REMARK    8  A    between atoms: C_15  and  O_48
REMARK    9  A    between atoms: C_17  and  O_47
REMARK   10  A    between atoms: C_19  and  O_46
REMARK   11  A    between atoms: C_21  and  O_24
REMARK   12  A    between atoms: O_24  and  C_25
REMARK   13  A    between atoms: C_26  and  C_38
REMARK   14  A    between atoms: C_30  and  O_37
REMARK   15  A    between atoms: C_32  and  O_36
REMARK   16  A    between atoms: C_40  and  O_45
REMARK   17  A    between atoms: C_41  and  O_44
REMARK                            x       y       z     vdW  Elec       q    Type
REMARK                         _______ _______ _______ _____ _____    ______ ____
ROOT
ATOM      1  C   UNL     1       6.330  -3.729  21.691  0.00  0.00    +0.191 C 
ATOM      2  O   UNL     1       5.312  -2.867  22.202  0.00  0.00    -0.330 OA
ATOM      3  C   UNL     1       4.902  -3.077  23.553  0.00  0.00    +0.340 C 
ATOM      4  C   UNL     1       4.505  -4.544  23.860  0.00  0.00    +0.214 C 
ATOM      5  C   UNL     1       5.552  -5.533  23.352  0.00  0.00    +0.180 C 
ATOM      6  C   UNL     1       5.955  -5.203  21.901  0.00  0.00    +0.178 C 
ENDROOT
BRANCH   6   7
ATOM      7  O   UNL     1       6.976  -6.087  21.442  0.00  0.00    -0.386 OA
ATOM      8  H   UNL     1       7.493  -6.367  22.220  0.00  0.00    +0.210 HD
ENDBRANCH   6   7
BRANCH   5   9
ATOM      9  O   UNL     1       6.653  -5.618  24.261  0.00  0.00    -0.386 OA
ATOM     10  H   UNL     1       7.222  -6.367  24.020  0.00  0.00    +0.210 HD
ENDBRANCH   5   9
BRANCH   4  11
ATOM     11  O   UNL     1       3.239  -4.846  23.249  0.00  0.00    -0.383 OA
ATOM     12  H   UNL     1       3.200  -4.372  22.399  0.00  0.00    +0.210 HD
ENDBRANCH   4  11
BRANCH   3  13
ATOM     13  O   UNL     1       5.889  -2.627  24.498  0.00  0.00    -0.453 OA
BRANCH  13  14
ATOM     14  C   UNL     1       5.481  -1.758  25.521  0.00  0.00    +0.214 A 
ATOM     15  C   UNL     1       5.415  -0.265  25.330  0.00  0.00    +0.238 A 
ATOM     16  O   UNL     1       5.563   0.266  24.237  0.00  0.00    -0.283 OA
ATOM     17  C   UNL     1       5.101   0.565  26.505  0.00  0.00    +0.109 A 
ATOM     18  C   UNL     1       4.778  -0.082  27.689  0.00  0.00    +0.147 A 
ATOM     19  C   UNL     1       4.444   0.656  28.829  0.00  0.00    +0.092 A 
ATOM     20  C   UNL     1       4.434   2.047  28.769  0.00  0.00    +0.124 A 
ATOM     21  C   UNL     1       4.757   2.715  27.596  0.00  0.00    +0.091 A 
ATOM     22  O   UNL     1       4.764  -1.443  27.815  0.00  0.00    -0.451 OA
ATOM     23  C   UNL     1       5.092   1.971  26.465  0.00  0.00    +0.135 A 
ATOM     24  C   UNL     1       5.150  -2.239  26.742  0.00  0.00    +0.181 A 
BRANCH  24  25
ATOM     25  C   UNL     1       5.247  -3.684  27.117  0.00  0.00    +0.025 A 
ATOM     26  C   UNL     1       4.060  -4.430  27.266  0.00  0.00    +0.015 A 
ATOM     27  C   UNL     1       4.079  -5.750  27.731  0.00  0.00    +0.050 A 
ATOM     28  C   UNL     1       5.293  -6.342  28.029  0.00  0.00    +0.158 A 
ATOM     29  C   UNL     1       6.483  -5.659  27.807  0.00  0.00    +0.159 A 
ATOM     30  C   UNL     1       6.472  -4.339  27.348  0.00  0.00    +0.060 A 
BRANCH  29  31
ATOM     31  O   UNL     1       7.646  -6.330  28.063  0.00  0.00    -0.503 OA
ATOM     32  H   UNL     1       8.310  -5.694  28.377  0.00  0.00    +0.292 HD
ENDBRANCH  29  31
BRANCH  28  33
ATOM     33  O   UNL     1       5.309  -7.605  28.547  0.00  0.00    -0.503 OA
ATOM     34  H   UNL     1       4.934  -8.170  27.840  0.00  0.00    +0.292 HD
ENDBRANCH  28  33
ENDBRANCH  24  25
BRANCH  23  35
ATOM     35  O   UNL     1       5.422   2.647  25.324  0.00  0.00    -0.506 OA
ATOM     36  H   UNL     1       5.636   2.034  24.604  0.00  0.00    +0.292 HD
ENDBRANCH  23  35
BRANCH  20  37
ATOM     37  O   UNL     1       4.139   2.811  29.859  0.00  0.00    -0.507 OA
ATOM     38  H   UNL     1       3.177   2.935  29.908  0.00  0.00    +0.292 HD
ENDBRANCH  20  37
ENDBRANCH  13  14
ENDBRANCH   3  13
BRANCH   1  39
ATOM     39  C   UNL     1       7.752  -3.338  22.145  0.00  0.00    +0.266 C 
BRANCH  39  40
ATOM     40  O   UNL     1       8.163  -4.087  23.310  0.00  0.00    -0.459 OA
BRANCH  40  41
ATOM     41  C   UNL     1       9.164  -3.547  24.045  0.00  0.00    +0.332 C 
ATOM     42  O   UNL     1       9.843  -4.121  24.878  0.00  0.00    -0.246 OA
BRANCH  41  44
ATOM     43  C   UNL     1       9.116  -1.150  24.537  0.00  0.00    +0.015 C 
ATOM     44  C   UNL     1       9.306  -2.132  23.641  0.00  0.00    +0.092 C 
BRANCH  43  46
ATOM     45  C   UNL     1       8.775   1.278  25.136  0.00  0.00    +0.012 A 
ATOM     46  C   UNL     1       9.253   0.289  24.261  0.00  0.00    -0.021 A 
ATOM     47  C   UNL     1       9.822   0.690  23.042  0.00  0.00    +0.057 A 
ATOM     48  C   UNL     1       9.912   2.042  22.731  0.00  0.00    +0.159 A 
ATOM     49  C   UNL     1       9.442   3.013  23.610  0.00  0.00    +0.158 A 
ATOM     50  C   UNL     1       8.871   2.640  24.819  0.00  0.00    +0.050 A 
BRANCH  49  51
ATOM     51  O   UNL     1       9.553   4.322  23.233  0.00  0.00    -0.503 OA
ATOM     52  H   UNL     1       9.959   4.352  22.350  0.00  0.00    +0.292 HD
ENDBRANCH  49  51
BRANCH  48  53
ATOM     53  O   UNL     1      10.463   2.415  21.538  0.00  0.00    -0.503 OA
ATOM     54  H   UNL     1      10.656   1.573  21.081  0.00  0.00    +0.292 HD
ENDBRANCH  48  53
ENDBRANCH  43  46
ENDBRANCH  41  44
ENDBRANCH  40  41
ENDBRANCH  39  40
ENDBRANCH   1  39
TORSDOF 17
ENDMDL
MODEL 3
REMARK VINA RESULT:      -7.1      1.977      3.029
REMARK  Name = 
REMARK  17 active torsions:
REMARK  status: ('A' for Active; 'I' for Inactive)
REMARK    1  A    between atoms: C_3  and  O_50
REMARK    2  A    between atoms: C_4  and  O_49
REMARK    3  A    between atoms: C_6  and  C_7
REMARK    4  A    between atoms: C_8  and  C_9
REMARK    5  A    between atoms: C_9  and  O_11
REMARK    6  A    between atoms: O_11  and  C_12
REMARK    7  A    between atoms: C_12  and  C_13
REMARK    8  A    between atoms: C_15  and  O_48
REMARK    9  A    between atoms: C_17  and  O_47
REMARK   10  A    between atoms: C_19  and  O_46
REMARK   11  A    between atoms: C_21  and  O_24
REMARK   12  A    between atoms: O_24  and  C_25
REMARK   13  A    between atoms: C_26  and  C_38
REMARK   14  A    between atoms: C_30  and  O_37
REMARK   15  A    between atoms: C_32  and  O_36
REMARK   16  A    between atoms: C_40  and  O_45
REMARK   17  A    between atoms: C_41  and  O_44
REMARK                            x       y       z     vdW  Elec       q    Type
REMARK                         _______ _______ _______ _____ _____    ______ ____
ROOT
ATOM      1  C   UNL     1       3.189  -4.029  24.856  0.00  0.00    +0.191 C 
ATOM      2  O   UNL     1       3.074  -2.690  25.337  0.00  0.00    -0.330 OA
ATOM      3  C   UNL     1       3.488  -2.445  26.682  0.00  0.00    +0.340 C 
ATOM      4  C   UNL     1       2.831  -3.396  27.714  0.00  0.00    +0.214 C 
ATOM      5  C   UNL     1       2.921  -4.857  27.277  0.00  0.00    +0.180 C 
ATOM      6  C   UNL     1       2.489  -5.013  25.806  0.00  0.00    +0.178 C 
ENDROOT
BRANCH   6   7
ATOM      7  O   UNL     1       2.627  -6.365  25.374  0.00  0.00    -0.386 OA
ATOM      8  H   UNL     1       1.871  -6.865  25.731  0.00  0.00    +0.210 HD
ENDBRANCH   6   7
BRANCH   5   9
ATOM      9  O   UNL     1       4.213  -5.397  27.568  0.00  0.00    -0.386 OA
ATOM     10  H   UNL     1       4.152  -6.013  28.316  0.00  0.00    +0.210 HD
ENDBRANCH   5   9
BRANCH   4  11
ATOM     11  O   UNL     1       1.449  -3.044  27.895  0.00  0.00    -0.383 OA
ATOM     12  H   UNL     1       1.002  -3.803  28.309  0.00  0.00    +0.210 HD
ENDBRANCH   4  11
BRANCH   3  13
ATOM     13  O   UNL     1       4.919  -2.475  26.825  0.00  0.00    -0.453 OA
BRANCH  13  14
ATOM     14  C   UNL     1       5.639  -1.304  26.543  0.00  0.00    +0.214 A 
ATOM     15  C   UNL     1       4.985   0.053  26.505  0.00  0.00    +0.238 A 
ATOM     16  O   UNL     1       3.829   0.237  26.864  0.00  0.00    -0.283 OA
ATOM     17  C   UNL     1       5.802   1.198  26.071  0.00  0.00    +0.109 A 
ATOM     18  C   UNL     1       7.151   0.978  25.829  0.00  0.00    +0.147 A 
ATOM     19  C   UNL     1       7.981   2.035  25.442  0.00  0.00    +0.092 A 
ATOM     20  C   UNL     1       7.447   3.313  25.303  0.00  0.00    +0.124 A 
ATOM     21  C   UNL     1       6.101   3.555  25.536  0.00  0.00    +0.091 A 
ATOM     22  O   UNL     1       7.740  -0.250  25.952  0.00  0.00    -0.451 OA
ATOM     23  C   UNL     1       5.280   2.495  25.918  0.00  0.00    +0.135 A 
ATOM     24  C   UNL     1       6.963  -1.359  26.268  0.00  0.00    +0.181 A 
BRANCH  24  25
ATOM     25  C   UNL     1       7.738  -2.635  26.180  0.00  0.00    +0.025 A 
ATOM     26  C   UNL     1       8.793  -2.729  25.250  0.00  0.00    +0.015 A 
ATOM     27  C   UNL     1       9.475  -3.933  25.037  0.00  0.00    +0.050 A 
ATOM     28  C   UNL     1       9.120  -5.048  25.773  0.00  0.00    +0.158 A 
ATOM     29  C   UNL     1       8.143  -4.960  26.757  0.00  0.00    +0.159 A 
ATOM     30  C   UNL     1       7.453  -3.764  26.972  0.00  0.00    +0.060 A 
BRANCH  29  31
ATOM     31  O   UNL     1       7.890  -6.088  27.488  0.00  0.00    -0.503 OA
ATOM     32  H   UNL     1       7.096  -6.519  27.130  0.00  0.00    +0.292 HD
ENDBRANCH  29  31
BRANCH  28  33
ATOM     33  O   UNL     1       9.737  -6.239  25.517  0.00  0.00    -0.503 OA
ATOM     34  H   UNL     1       9.035  -6.809  25.143  0.00  0.00    +0.292 HD
ENDBRANCH  28  33
ENDBRANCH  24  25
BRANCH  23  35
ATOM     35  O   UNL     1       3.953   2.750  26.129  0.00  0.00    -0.506 OA
ATOM     36  H   UNL     1       3.512   3.009  25.306  0.00  0.00    +0.292 HD
ENDBRANCH  23  35
BRANCH  20  37
ATOM     37  O   UNL     1       8.209   4.370  24.904  0.00  0.00    -0.507 OA
ATOM     38  H   UNL     1       9.138   4.091  24.858  0.00  0.00    +0.292 HD
ENDBRANCH  20  37
ENDBRANCH  13  14
ENDBRANCH   3  13
BRANCH   1  39
ATOM     39  C   UNL     1       4.625  -4.416  24.446  0.00  0.00    +0.266 C 
BRANCH  39  40
ATOM     40  O   UNL     1       5.270  -3.357  23.705  0.00  0.00    -0.459 OA
BRANCH  40  41
ATOM     41  C   UNL     1       5.712  -3.677  22.466  0.00  0.00    +0.332 C 
ATOM     42  O   UNL     1       5.289  -4.571  21.754  0.00  0.00    -0.246 OA
BRANCH  41  44
ATOM     43  C   UNL     1       6.781  -1.480  22.609  0.00  0.00    +0.015 C 
ATOM     44  C   UNL     1       6.791  -2.730  22.115  0.00  0.00    +0.092 C 
BRANCH  43  46
ATOM     45  C   UNL     1       9.181  -0.756  22.320  0.00  0.00    +0.012 A 
ATOM     46  C   UNL     1       7.809  -0.459  22.353  0.00  0.00    -0.021 A 
ATOM     47  C   UNL     1       7.409   0.878  22.206  0.00  0.00    +0.057 A 
ATOM     48  C   UNL     1       8.364   1.871  22.020  0.00  0.00    +0.159 A 
ATOM     49  C   UNL     1       9.720   1.563  21.980  0.00  0.00    +0.158 A 
ATOM     50  C   UNL     1      10.140   0.248  22.129  0.00  0.00    +0.050 A 
BRANCH  49  51
ATOM     51  O   UNL     1      10.604   2.591  21.807  0.00  0.00    -0.503 OA
ATOM     52  H   UNL     1      11.382   2.423  22.366  0.00  0.00    +0.292 HD
ENDBRANCH  49  51
BRANCH  48  53
ATOM     53  O   UNL     1       7.958   3.169  21.884  0.00  0.00    -0.503 OA
ATOM     54  H   UNL     1       8.727   3.699  22.173  0.00  0.00    +0.292 HD
ENDBRANCH  48  53
ENDBRANCH  43  46
ENDBRANCH  41  44
ENDBRANCH  40  41
ENDBRANCH  39  40
ENDBRANCH   1  39
TORSDOF 17
ENDMDL
MODEL 4
REMARK VINA RESULT:      -7.0      2.245      6.951
REMARK  Name = 
REMARK  17 active torsions:
REMARK  status: ('A' for Active; 'I' for Inactive)
REMARK    1  A    between atoms: C_3  and  O_50
REMARK    2  A    between atoms: C_4  and  O_49
REMARK    3  A    between atoms: C_6  and  C_7
REMARK    4  A    between atoms: C_8  and  C_9
REMARK    5  A    between atoms: C_9  and  O_11
REMARK    6  A    between atoms: O_11  and  C_12
REMARK    7  A    between atoms: C_12  and  C_13
REMARK    8  A    between atoms: C_15  and  O_48
REMARK    9  A    between atoms: C_17  and  O_47
REMARK   10  A    between atoms: C_19  and  O_46
REMARK   11  A    between atoms: C_21  and  O_24
REMARK   12  A    between atoms: O_24  and  C_25
REMARK   13  A    between atoms: C_26  and  C_38
REMARK   14  A    between atoms: C_30  and  O_37
REMARK   15  A    between atoms: C_32  and  O_36
REMARK   16  A    between atoms: C_40  and  O_45
REMARK   17  A    between atoms: C_41  and  O_44
REMARK                            x       y       z     vdW  Elec       q    Type
REMARK                         _______ _______ _______ _____ _____    ______ ____
ROOT
ATOM      1  C   UNL     1       4.478  -1.631  26.374  0.00  0.00    +0.191 C 
ATOM      2  O   UNL     1       4.877  -0.907  25.209  0.00  0.00    -0.330 OA
ATOM      3  C   UNL     1       5.426   0.396  25.412  0.00  0.00    +0.340 C 
ATOM      4  C   UNL     1       4.532   1.317  26.281  0.00  0.00    +0.214 C 
ATOM      5  C   UNL     1       4.068   0.616  27.557  0.00  0.00    +0.180 C 
ATOM      6  C   UNL     1       3.527  -0.792  27.240  0.00  0.00    +0.178 C 
ENDROOT
BRANCH   6   7
ATOM      7  O   UNL     1       3.148  -1.473  28.434  0.00  0.00    -0.386 OA
ATOM      8  H   UNL     1       3.949  -1.892  28.799  0.00  0.00    +0.210 HD
ENDBRANCH   6   7
BRANCH   5   9
ATOM      9  O   UNL     1       5.096   0.639  28.551  0.00  0.00    -0.386 OA
ATOM     10  H   UNL     1       4.897   1.318  29.215  0.00  0.00    +0.210 HD
ENDBRANCH   5   9
BRANCH   4  11
ATOM     11  O   UNL     1       3.380   1.732  25.528  0.00  0.00    -0.383 OA
ATOM     12  H   UNL     1       3.586   1.617  24.583  0.00  0.00    +0.210 HD
ENDBRANCH   4  11
BRANCH   3  13
ATOM     13  O   UNL     1       6.758   0.348  25.954  0.00  0.00    -0.453 OA
BRANCH  13  14
ATOM     14  C   UNL     1       7.746   1.147  25.361  0.00  0.00    +0.214 A 
ATOM     15  C   UNL     1       7.867   2.621  25.646  0.00  0.00    +0.238 A 
ATOM     16  O   UNL     1       7.214   3.178  26.520  0.00  0.00    -0.283 OA
ATOM     17  C   UNL     1       8.853   3.393  24.872  0.00  0.00    +0.109 A 
ATOM     18  C   UNL     1       9.686   2.698  24.008  0.00  0.00    +0.147 A 
ATOM     19  C   UNL     1      10.662   3.376  23.269  0.00  0.00    +0.092 A 
ATOM     20  C   UNL     1      10.794   4.755  23.408  0.00  0.00    +0.124 A 
ATOM     21  C   UNL     1       9.969   5.470  24.264  0.00  0.00    +0.091 A 
ATOM     22  O   UNL     1       9.613   1.345  23.829  0.00  0.00    -0.451 OA
ATOM     23  C   UNL     1       8.997   4.787  24.994  0.00  0.00    +0.135 A 
ATOM     24  C   UNL     1       8.625   0.616  24.479  0.00  0.00    +0.181 A 
BRANCH  24  25
ATOM     25  C   UNL     1       8.583  -0.809  24.026  0.00  0.00    +0.025 A 
ATOM     26  C   UNL     1       7.692  -1.170  22.995  0.00  0.00    +0.015 A 
ATOM     27  C   UNL     1       7.520  -2.505  22.611  0.00  0.00    +0.050 A 
ATOM     28  C   UNL     1       8.258  -3.489  23.243  0.00  0.00    +0.158 A 
ATOM     29  C   UNL     1       9.206  -3.151  24.201  0.00  0.00    +0.159 A 
ATOM     30  C   UNL     1       9.380  -1.821  24.594  0.00  0.00    +0.060 A 
BRANCH  29  31
ATOM     31  O   UNL     1       9.943  -4.171  24.737  0.00  0.00    -0.503 OA
ATOM     32  H   UNL     1      10.821  -4.172  24.320  0.00  0.00    +0.292 HD
ENDBRANCH  29  31
BRANCH  28  33
ATOM     33  O   UNL     1       8.041  -4.797  22.917  0.00  0.00    -0.503 OA
ATOM     34  H   UNL     1       7.911  -4.794  21.946  0.00  0.00    +0.292 HD
ENDBRANCH  28  33
ENDBRANCH  24  25
BRANCH  23  35
ATOM     35  O   UNL     1       8.184   5.511  25.821  0.00  0.00    -0.506 OA
ATOM     36  H   UNL     1       7.276   5.171  25.803  0.00  0.00    +0.292 HD
ENDBRANCH  23  35
BRANCH  20  37
ATOM     37  O   UNL     1      11.712   5.464  22.691  0.00  0.00    -0.507 OA
ATOM     38  H   UNL     1      12.479   5.650  23.257  0.00  0.00    +0.292 HD
ENDBRANCH  20  37
ENDBRANCH  13  14
ENDBRANCH   3  13
BRANCH   1  39
ATOM     39  C   UNL     1       5.656  -2.284  27.127  0.00  0.00    +0.266 C 
BRANCH  39  40
ATOM     40  O   UNL     1       6.521  -3.013  26.231  0.00  0.00    -0.459 OA
BRANCH  40  41
ATOM     41  C   UNL     1       6.843  -4.275  26.605  0.00  0.00    +0.332 C 
ATOM     42  O   UNL     1       7.853  -4.622  27.191  0.00  0.00    -0.246 OA
BRANCH  41  44
ATOM     43  C   UNL     1       5.231  -5.086  24.952  0.00  0.00    +0.015 C 
ATOM     44  C   UNL     1       5.733  -5.161  26.196  0.00  0.00    +0.092 C 
BRANCH  43  46
ATOM     45  C   UNL     1       3.318  -5.523  23.365  0.00  0.00    +0.012 A 
ATOM     46  C   UNL     1       4.147  -5.930  24.422  0.00  0.00    -0.021 A 
ATOM     47  C   UNL     1       3.888  -7.162  25.043  0.00  0.00    +0.057 A 
ATOM     48  C   UNL     1       2.834  -7.953  24.599  0.00  0.00    +0.159 A 
ATOM     49  C   UNL     1       2.024  -7.543  23.545  0.00  0.00    +0.158 A 
ATOM     50  C   UNL     1       2.259  -6.326  22.919  0.00  0.00    +0.050 A 
BRANCH  49  51
ATOM     51  O   UNL     1       0.999  -8.366  23.170  0.00  0.00    -0.503 OA
ATOM     52  H   UNL     1       0.965  -9.113  23.792  0.00  0.00    +0.292 HD
ENDBRANCH  49  51
BRANCH  48  53
ATOM     53  O   UNL     1       2.591  -9.147  25.219  0.00  0.00    -0.503 OA
ATOM     54  H   UNL     1       2.870  -9.005  26.145  0.00  0.00    +0.292 HD
ENDBRANCH  48  53
ENDBRANCH  43  46
ENDBRANCH  41  44
ENDBRANCH  40  41
ENDBRANCH  39  40
ENDBRANCH   1  39
TORSDOF 17
ENDMDL
MODEL 5
REMARK VINA RESULT:      -7.0      2.693      8.002
REMARK  Name = 
REMARK  17 active torsions:
REMARK  status: ('A' for Active; 'I' for Inactive)
REMARK    1  A    between atoms: C_3  and  O_50
REMARK    2  A    between atoms: C_4  and  O_49
REMARK    3  A    between atoms: C_6  and  C_7
REMARK    4  A    between atoms: C_8  and  C_9
REMARK    5  A    between atoms: C_9  and  O_11
REMARK    6  A    between atoms: O_11  and  C_12
REMARK    7  A    between atoms: C_12  and  C_13
REMARK    8  A    between atoms: C_15  and  O_48
REMARK    9  A    between atoms: C_17  and  O_47
REMARK   10  A    between atoms: C_19  and  O_46
REMARK   11  A    between atoms: C_21  and  O_24
REMARK   12  A    between atoms: O_24  and  C_25
REMARK   13  A    between atoms: C_26  and  C_38
REMARK   14  A    between atoms: C_30  and  O_37
REMARK   15  A    between atoms: C_32  and  O_36
REMARK   16  A    between atoms: C_40  and  O_45
REMARK   17  A    between atoms: C_41  and  O_44
REMARK                            x       y       z     vdW  Elec       q    Type
REMARK                         _______ _______ _______ _____ _____    ______ ____
ROOT
ATOM      1  C   UNL     1       8.860  -1.921  23.345  0.00  0.00    +0.191 C 
ATOM      2  O   UNL     1       8.504  -1.507  24.665  0.00  0.00    -0.330 OA
ATOM      3  C   UNL     1       8.427  -0.101  24.905  0.00  0.00    +0.340 C 
ATOM      4  C   UNL     1       9.700   0.671  24.474  0.00  0.00    +0.214 C 
ATOM      5  C   UNL     1      10.142   0.291  23.062  0.00  0.00    +0.180 C 
ATOM      6  C   UNL     1      10.159  -1.241  22.890  0.00  0.00    +0.178 C 
ENDROOT
BRANCH   6   7
ATOM      7  O   UNL     1      10.514  -1.600  21.557  0.00  0.00    -0.386 OA
ATOM      8  H   UNL     1      10.120  -2.473  21.374  0.00  0.00    +0.210 HD
ENDBRANCH   6   7
BRANCH   5   9
ATOM      9  O   UNL     1       9.363   0.982  22.081  0.00  0.00    -0.386 OA
ATOM     10  H   UNL     1       9.207   0.404  21.318  0.00  0.00    +0.210 HD
ENDBRANCH   5   9
BRANCH   4  11
ATOM     11  O   UNL     1      10.772   0.399  25.392  0.00  0.00    -0.383 OA
ATOM     12  H   UNL     1      10.426  -0.190  26.085  0.00  0.00    +0.210 HD
ENDBRANCH   4  11
BRANCH   3  13
ATOM     13  O   UNL     1       7.263   0.491  24.304  0.00  0.00    -0.453 OA
BRANCH  13  14
ATOM     14  C   UNL     1       6.287   1.043  25.147  0.00  0.00    +0.214 A 
ATOM     15  C   UNL     1       5.270   0.193  25.864  0.00  0.00    +0.238 A 
ATOM     16  O   UNL     1       5.325  -1.030  25.876  0.00  0.00    -0.283 OA
ATOM     17  C   UNL     1       4.210   0.880  26.619  0.00  0.00    +0.109 A 
ATOM     18  C   UNL     1       4.275   2.263  26.717  0.00  0.00    +0.147 A 
ATOM     19  C   UNL     1       3.310   2.966  27.447  0.00  0.00    +0.092 A 
ATOM     20  C   UNL     1       2.284   2.269  28.078  0.00  0.00    +0.124 A 
ATOM     21  C   UNL     1       2.197   0.887  27.991  0.00  0.00    +0.091 A 
ATOM     22  O   UNL     1       5.258   3.007  26.126  0.00  0.00    -0.451 OA
ATOM     23  C   UNL     1       3.161   0.195  27.259  0.00  0.00    +0.135 A 
ATOM     24  C   UNL     1       6.211   2.381  25.330  0.00  0.00    +0.181 A 
BRANCH  24  25
ATOM     25  C   UNL     1       7.090   3.364  24.625  0.00  0.00    +0.025 A 
ATOM     26  C   UNL     1       8.256   3.824  25.272  0.00  0.00    +0.015 A 
ATOM     27  C   UNL     1       9.052   4.831  24.716  0.00  0.00    +0.050 A 
ATOM     28  C   UNL     1       8.700   5.371  23.493  0.00  0.00    +0.158 A 
ATOM     29  C   UNL     1       7.607   4.875  22.793  0.00  0.00    +0.159 A 
ATOM     30  C   UNL     1       6.803   3.874  23.344  0.00  0.00    +0.060 A 
BRANCH  29  31
ATOM     31  O   UNL     1       7.357   5.414  21.561  0.00  0.00    -0.503 OA
ATOM     32  H   UNL     1       8.144   5.294  21.004  0.00  0.00    +0.292 HD
ENDBRANCH  29  31
BRANCH  28  33
ATOM     33  O   UNL     1       9.438   6.401  22.982  0.00  0.00    -0.503 OA
ATOM     34  H   UNL     1       9.886   6.796  23.758  0.00  0.00    +0.292 HD
ENDBRANCH  28  33
ENDBRANCH  24  25
BRANCH  23  35
ATOM     35  O   UNL     1       3.050  -1.165  27.171  0.00  0.00    -0.506 OA
ATOM     36  H   UNL     1       3.541  -1.602  27.884  0.00  0.00    +0.292 HD
ENDBRANCH  23  35
BRANCH  20  37
ATOM     37  O   UNL     1       1.306   2.911  28.780  0.00  0.00    -0.507 OA
ATOM     38  H   UNL     1       1.365   2.650  29.714  0.00  0.00    +0.292 HD
ENDBRANCH  20  37
ENDBRANCH  13  14
ENDBRANCH   3  13
BRANCH   1  39
ATOM     39  C   UNL     1       7.690  -1.849  22.341  0.00  0.00    +0.266 C 
BRANCH  39  40
ATOM     40  O   UNL     1       6.438  -2.224  22.955  0.00  0.00    -0.459 OA
BRANCH  40  41
ATOM     41  C   UNL     1       5.764  -3.240  22.366  0.00  0.00    +0.332 C 
ATOM     42  O   UNL     1       5.600  -3.404  21.169  0.00  0.00    -0.246 OA
BRANCH  41  44
ATOM     43  C   UNL     1       6.072  -4.446  24.473  0.00  0.00    +0.015 C 
ATOM     44  C   UNL     1       5.276  -4.136  23.436  0.00  0.00    +0.092 C 
BRANCH  43  46
ATOM     45  C   UNL     1       4.665  -6.258  25.525  0.00  0.00    +0.012 A 
ATOM     46  C   UNL     1       5.691  -5.304  25.608  0.00  0.00    -0.021 A 
ATOM     47  C   UNL     1       6.332  -5.112  26.841  0.00  0.00    +0.057 A 
ATOM     48  C   UNL     1       5.953  -5.870  27.944  0.00  0.00    +0.159 A 
ATOM     49  C   UNL     1       4.940  -6.818  27.848  0.00  0.00    +0.158 A 
ATOM     50  C   UNL     1       4.288  -7.021  26.639  0.00  0.00    +0.050 A 
BRANCH  49  51
ATOM     51  O   UNL     1       4.611  -7.517  28.976  0.00  0.00    -0.503 OA
ATOM     52  H   UNL     1       5.412  -7.961  29.304  0.00  0.00    +0.292 HD
ENDBRANCH  49  51
BRANCH  48  53
ATOM     53  O   UNL     1       6.582  -5.667  29.139  0.00  0.00    -0.503 OA
ATOM     54  H   UNL     1       7.161  -6.447  29.249  0.00  0.00    +0.292 HD
ENDBRANCH  48  53
ENDBRANCH  43  46
ENDBRANCH  41  44
ENDBRANCH  40  41
ENDBRANCH  39  40
ENDBRANCH   1  39
TORSDOF 17
ENDMDL
MODEL 6
REMARK VINA RESULT:      -6.8      1.709      8.501
REMARK  Name = 
REMARK  17 active torsions:
REMARK  status: ('A' for Active; 'I' for Inactive)
REMARK    1  A    between atoms: C_3  and  O_50
REMARK    2  A    between atoms: C_4  and  O_49
REMARK    3  A    between atoms: C_6  and  C_7
REMARK    4  A    between atoms: C_8  and  C_9
REMARK    5  A    between atoms: C_9  and  O_11
REMARK    6  A    between atoms: O_11  and  C_12
REMARK    7  A    between atoms: C_12  and  C_13
REMARK    8  A    between atoms: C_15  and  O_48
REMARK    9  A    between atoms: C_17  and  O_47
REMARK   10  A    between atoms: C_19  and  O_46
REMARK   11  A    between atoms: C_21  and  O_24
REMARK   12  A    between atoms: O_24  and  C_25
REMARK   13  A    between atoms: C_26  and  C_38
REMARK   14  A    between atoms: C_30  and  O_37
REMARK   15  A    between atoms: C_32  and  O_36
REMARK   16  A    between atoms: C_40  and  O_45
REMARK   17  A    between atoms: C_41  and  O_44
REMARK                            x       y       z     vdW  Elec       q    Type
REMARK                         _______ _______ _______ _____ _____    ______ ____
ROOT
ATOM      1  C   UNL     1       4.380   1.889  26.952  0.00  0.00    +0.191 C 
ATOM      2  O   UNL     1       4.231   1.323  25.649  0.00  0.00    -0.330 OA
ATOM      3  C   UNL     1       5.422   1.137  24.883  0.00  0.00    +0.340 C 
ATOM      4  C   UNL     1       6.290   2.416  24.767  0.00  0.00    +0.214 C 
ATOM      5  C   UNL     1       6.506   3.079  26.126  0.00  0.00    +0.180 C 
ATOM      6  C   UNL     1       5.174   3.202  26.890  0.00  0.00    +0.178 C 
ENDROOT
BRANCH   6   7
ATOM      7  O   UNL     1       5.377   3.766  28.184  0.00  0.00    -0.386 OA
ATOM      8  H   UNL     1       4.558   4.232  28.433  0.00  0.00    +0.210 HD
ENDBRANCH   6   7
BRANCH   5   9
ATOM      9  O   UNL     1       7.541   2.414  26.858  0.00  0.00    -0.386 OA
ATOM     10  H   UNL     1       7.773   1.582  26.417  0.00  0.00    +0.210 HD
ENDBRANCH   5   9
BRANCH   4  11
ATOM     11  O   UNL     1       5.662   3.356  23.880  0.00  0.00    -0.383 OA
ATOM     12  H   UNL     1       5.328   4.095  24.421  0.00  0.00    +0.210 HD
ENDBRANCH   4  11
BRANCH   3  13
ATOM     13  O   UNL     1       6.218   0.043  25.370  0.00  0.00    -0.453 OA
BRANCH  13  14
ATOM     14  C   UNL     1       6.320  -1.110  24.576  0.00  0.00    +0.214 A 
ATOM     15  C   UNL     1       5.301  -2.218  24.632  0.00  0.00    +0.238 A 
ATOM     16  O   UNL     1       4.251  -2.116  25.253  0.00  0.00    -0.283 OA
ATOM     17  C   UNL     1       5.571  -3.439  23.856  0.00  0.00    +0.109 A 
ATOM     18  C   UNL     1       6.690  -3.453  23.036  0.00  0.00    +0.147 A 
ATOM     19  C   UNL     1       6.980  -4.576  22.254  0.00  0.00    +0.092 A 
ATOM     20  C   UNL     1       6.136  -5.683  22.301  0.00  0.00    +0.124 A 
ATOM     21  C   UNL     1       5.013  -5.692  23.117  0.00  0.00    +0.091 A 
ATOM     22  O   UNL     1       7.555  -2.400  22.938  0.00  0.00    -0.451 OA
ATOM     23  C   UNL     1       4.734  -4.570  23.896  0.00  0.00    +0.135 A 
ATOM     24  C   UNL     1       7.368  -1.277  23.736  0.00  0.00    +0.181 A 
BRANCH  24  25
ATOM     25  C   UNL     1       8.504  -0.311  23.628  0.00  0.00    +0.025 A 
ATOM     26  C   UNL     1       9.409  -0.200  24.704  0.00  0.00    +0.015 A 
ATOM     27  C   UNL     1      10.419   0.769  24.714  0.00  0.00    +0.050 A 
ATOM     28  C   UNL     1      10.546   1.621  23.633  0.00  0.00    +0.158 A 
ATOM     29  C   UNL     1       9.724   1.476  22.522  0.00  0.00    +0.159 A 
ATOM     30  C   UNL     1       8.709   0.515  22.506  0.00  0.00    +0.060 A 
BRANCH  29  31
ATOM     31  O   UNL     1       9.950   2.312  21.464  0.00  0.00    -0.503 OA
ATOM     32  H   UNL     1      10.475   3.070  21.773  0.00  0.00    +0.292 HD
ENDBRANCH  29  31
BRANCH  28  33
ATOM     33  O   UNL     1      11.487   2.610  23.672  0.00  0.00    -0.503 OA
ATOM     34  H   UNL     1      11.169   3.230  24.360  0.00  0.00    +0.292 HD
ENDBRANCH  28  33
ENDBRANCH  24  25
BRANCH  23  35
ATOM     35  O   UNL     1       3.632  -4.604  24.705  0.00  0.00    -0.506 OA
ATOM     36  H   UNL     1       3.886  -4.630  25.640  0.00  0.00    +0.292 HD
ENDBRANCH  23  35
BRANCH  20  37
ATOM     37  O   UNL     1       6.388  -6.810  21.578  0.00  0.00    -0.507 OA
ATOM     38  H   UNL     1       6.784  -6.558  20.727  0.00  0.00    +0.292 HD
ENDBRANCH  20  37
ENDBRANCH  13  14
ENDBRANCH   3  13
BRANCH   1  39
ATOM     39  C   UNL     1       4.861   0.876  28.012  0.00  0.00    +0.266 C 
BRANCH  39  40
ATOM     40  O   UNL     1       3.776   0.433  28.856  0.00  0.00    -0.459 OA
BRANCH  40  41
ATOM     41  C   UNL     1       3.112  -0.673  28.444  0.00  0.00    +0.332 C 
ATOM     42  O   UNL     1       2.080  -0.701  27.798  0.00  0.00    -0.246 OA
BRANCH  41  44
ATOM     43  C   UNL     1       3.852  -2.992  28.191  0.00  0.00    +0.015 C 
ATOM     44  C   UNL     1       3.878  -1.852  28.901  0.00  0.00    +0.092 C 
BRANCH  43  46
ATOM     45  C   UNL     1       4.248  -5.034  29.621  0.00  0.00    +0.012 A 
ATOM     46  C   UNL     1       4.591  -4.220  28.530  0.00  0.00    -0.021 A 
ATOM     47  C   UNL     1       5.726  -4.553  27.775  0.00  0.00    +0.057 A 
ATOM     48  C   UNL     1       6.475  -5.676  28.108  0.00  0.00    +0.159 A 
ATOM     49  C   UNL     1       6.120  -6.479  29.187  0.00  0.00    +0.158 A 
ATOM     50  C   UNL     1       5.004  -6.166  29.951  0.00  0.00    +0.050 A 
BRANCH  49  51
ATOM     51  O   UNL     1       6.910  -7.561  29.464  0.00  0.00    -0.503 OA
ATOM     52  H   UNL     1       7.822  -7.248  29.587  0.00  0.00    +0.292 HD
ENDBRANCH  49  51
BRANCH  48  53
ATOM     53  O   UNL     1       7.581  -5.983  27.366  0.00  0.00    -0.503 OA
ATOM     54  H   UNL     1       7.482  -6.933  27.159  0.00  0.00    +0.292 HD
ENDBRANCH  48  53
ENDBRANCH  43  46
ENDBRANCH  41  44
ENDBRANCH  40  41
ENDBRANCH  39  40
ENDBRANCH   1  39
TORSDOF 17
ENDMDL
MODEL 7
REMARK VINA RESULT:      -6.8      1.735      7.587
REMARK  Name = 
REMARK  17 active torsions:
REMARK  status: ('A' for Active; 'I' for Inactive)
REMARK    1  A    between atoms: C_3  and  O_50
REMARK    2  A    between atoms: C_4  and  O_49
REMARK    3  A    between atoms: C_6  and  C_7
REMARK    4  A    between atoms: C_8  and  C_9
REMARK    5  A    between atoms: C_9  and  O_11
REMARK    6  A    between atoms: O_11  and  C_12
REMARK    7  A    between atoms: C_12  and  C_13
REMARK    8  A    between atoms: C_15  and  O_48
REMARK    9  A    between atoms: C_17  and  O_47
REMARK   10  A    between atoms: C_19  and  O_46
REMARK   11  A    between atoms: C_21  and  O_24
REMARK   12  A    between atoms: O_24  and  C_25
REMARK   13  A    between atoms: C_26  and  C_38
REMARK   14  A    between atoms: C_30  and  O_37
REMARK   15  A    between atoms: C_32  and  O_36
REMARK   16  A    between atoms: C_40  and  O_45
REMARK   17  A    between atoms: C_41  and  O_44
REMARK                            x       y       z     vdW  Elec       q    Type
REMARK                         _______ _______ _______ _____ _____    ______ ____
ROOT
ATOM      1  C   UNL     1       9.211  -2.243  22.942  0.00  0.00    +0.191 C 
ATOM      2  O   UNL     1       9.236  -2.481  24.350  0.00  0.00    -0.330 OA
ATOM      3  C   UNL     1       8.631  -1.493  25.185  0.00  0.00    +0.340 C 
ATOM      4  C   UNL     1       9.149  -0.056  24.920  0.00  0.00    +0.214 C 
ATOM      5  C   UNL     1       9.144   0.282  23.430  0.00  0.00    +0.180 C 
ATOM      6  C   UNL     1       9.783  -0.857  22.611  0.00  0.00    +0.178 C 
ENDROOT
BRANCH   6   7
ATOM      7  O   UNL     1       9.729  -0.574  21.215  0.00  0.00    -0.386 OA
ATOM      8  H   UNL     1      10.106  -1.341  20.745  0.00  0.00    +0.210 HD
ENDBRANCH   6   7
BRANCH   5   9
ATOM      9  O   UNL     1       7.832   0.650  22.996  0.00  0.00    -0.386 OA
ATOM     10  H   UNL     1       7.831   0.797  22.036  0.00  0.00    +0.210 HD
ENDBRANCH   5   9
BRANCH   4  11
ATOM     11  O   UNL     1      10.486   0.085  25.429  0.00  0.00    -0.383 OA
ATOM     12  H   UNL     1      10.434   0.590  26.260  0.00  0.00    +0.210 HD
ENDBRANCH   4  11
BRANCH   3  13
ATOM     13  O   UNL     1       7.195  -1.522  25.110  0.00  0.00    -0.453 OA
BRANCH  13  14
ATOM     14  C   UNL     1       6.489  -2.173  26.133  0.00  0.00    +0.214 A 
ATOM     15  C   UNL     1       6.454  -3.673  26.257  0.00  0.00    +0.238 A 
ATOM     16  O   UNL     1       7.155  -4.407  25.572  0.00  0.00    -0.283 OA
ATOM     17  C   UNL     1       5.578  -4.258  27.286  0.00  0.00    +0.109 A 
ATOM     18  C   UNL     1       4.924  -3.391  28.150  0.00  0.00    +0.147 A 
ATOM     19  C   UNL     1       4.102  -3.891  29.165  0.00  0.00    +0.092 A 
ATOM     20  C   UNL     1       3.945  -5.267  29.306  0.00  0.00    +0.124 A 
ATOM     21  C   UNL     1       4.587  -6.152  28.451  0.00  0.00    +0.091 A 
ATOM     22  O   UNL     1       5.040  -2.031  28.070  0.00  0.00    -0.451 OA
ATOM     23  C   UNL     1       5.402  -5.645  27.440  0.00  0.00    +0.135 A 
ATOM     24  C   UNL     1       5.786  -1.461  27.045  0.00  0.00    +0.181 A 
BRANCH  24  25
ATOM     25  C   UNL     1       5.650   0.028  27.007  0.00  0.00    +0.025 A 
ATOM     26  C   UNL     1       4.489   0.593  26.441  0.00  0.00    +0.015 A 
ATOM     27  C   UNL     1       4.358   1.975  26.268  0.00  0.00    +0.050 A 
ATOM     28  C   UNL     1       5.382   2.807  26.683  0.00  0.00    +0.158 A 
ATOM     29  C   UNL     1       6.499   2.283  27.323  0.00  0.00    +0.159 A 
ATOM     30  C   UNL     1       6.640   0.903  27.495  0.00  0.00    +0.060 A 
BRANCH  29  31
ATOM     31  O   UNL     1       7.440   3.171  27.763  0.00  0.00    -0.503 OA
ATOM     32  H   UNL     1       8.202   2.673  28.105  0.00  0.00    +0.292 HD
ENDBRANCH  29  31
BRANCH  28  33
ATOM     33  O   UNL     1       5.285   4.149  26.452  0.00  0.00    -0.503 OA
ATOM     34  H   UNL     1       4.970   4.221  25.528  0.00  0.00    +0.292 HD
ENDBRANCH  28  33
ENDBRANCH  24  25
BRANCH  23  35
ATOM     35  O   UNL     1       6.013  -6.532  26.598  0.00  0.00    -0.506 OA
ATOM     36  H   UNL     1       5.361  -7.070  26.124  0.00  0.00    +0.292 HD
ENDBRANCH  23  35
BRANCH  20  37
ATOM     37  O   UNL     1       3.136  -5.803  30.264  0.00  0.00    -0.507 OA
ATOM     38  H   UNL     1       3.679  -6.075  31.021  0.00  0.00    +0.292 HD
ENDBRANCH  20  37
ENDBRANCH  13  14
ENDBRANCH   3  13
BRANCH   1  39
ATOM     39  C   UNL     1       7.854  -2.572  22.286  0.00  0.00    +0.266 C 
BRANCH  39  40
ATOM     40  O   UNL     1       7.497  -3.959  22.468  0.00  0.00    -0.459 OA
BRANCH  40  41
ATOM     41  C   UNL     1       6.329  -4.355  21.907  0.00  0.00    +0.332 C 
ATOM     42  O   UNL     1       5.966  -4.142  20.764  0.00  0.00    -0.246 OA
BRANCH  41  44
ATOM     43  C   UNL     1       4.305  -4.789  23.213  0.00  0.00    +0.015 C 
ATOM     44  C   UNL     1       5.577  -5.116  22.927  0.00  0.00    +0.092 C 
BRANCH  43  46
ATOM     45  C   UNL     1       2.640  -4.803  25.110  0.00  0.00    +0.012 A 
ATOM     46  C   UNL     1       3.448  -5.486  24.187  0.00  0.00    -0.021 A 
ATOM     47  C   UNL     1       3.493  -6.887  24.241  0.00  0.00    +0.057 A 
ATOM     48  C   UNL     1       2.737  -7.568  25.189  0.00  0.00    +0.159 A 
ATOM     49  C   UNL     1       1.933  -6.881  26.093  0.00  0.00    +0.158 A 
ATOM     50  C   UNL     1       1.877  -5.494  26.061  0.00  0.00    +0.050 A 
BRANCH  49  51
ATOM     51  O   UNL     1       1.227  -7.615  27.004  0.00  0.00    -0.503 OA
ATOM     52  H   UNL     1       1.415  -8.556  26.850  0.00  0.00    +0.292 HD
ENDBRANCH  49  51
BRANCH  48  53
ATOM     53  O   UNL     1       2.796  -8.932  25.232  0.00  0.00    -0.503 OA
ATOM     54  H   UNL     1       3.652  -9.128  25.661  0.00  0.00    +0.292 HD
ENDBRANCH  48  53
ENDBRANCH  43  46
ENDBRANCH  41  44
ENDBRANCH  40  41
ENDBRANCH  39  40
ENDBRANCH   1  39
TORSDOF 17
ENDMDL
MODEL 8
REMARK VINA RESULT:      -6.7      2.560      7.051
REMARK  Name = 
REMARK  17 active torsions:
REMARK  status: ('A' for Active; 'I' for Inactive)
REMARK    1  A    between atoms: C_3  and  O_50
REMARK    2  A    between atoms: C_4  and  O_49
REMARK    3  A    between atoms: C_6  and  C_7
REMARK    4  A    between atoms: C_8  and  C_9
REMARK    5  A    between atoms: C_9  and  O_11
REMARK    6  A    between atoms: O_11  and  C_12
REMARK    7  A    between atoms: C_12  and  C_13
REMARK    8  A    between atoms: C_15  and  O_48
REMARK    9  A    between atoms: C_17  and  O_47
REMARK   10  A    between atoms: C_19  and  O_46
REMARK   11  A    between atoms: C_21  and  O_24
REMARK   12  A    between atoms: O_24  and  C_25
REMARK   13  A    between atoms: C_26  and  C_38
REMARK   14  A    between atoms: C_30  and  O_37
REMARK   15  A    between atoms: C_32  and  O_36
REMARK   16  A    between atoms: C_40  and  O_45
REMARK   17  A    between atoms: C_41  and  O_44
REMARK                            x       y       z     vdW  Elec       q    Type
REMARK                         _______ _______ _______ _____ _____    ______ ____
ROOT
ATOM      1  C   UNL     1       7.057   0.019  26.586  0.00  0.00    +0.191 C 
ATOM      2  O   UNL     1       6.436  -1.206  26.977  0.00  0.00    -0.330 OA
ATOM      3  C   UNL     1       5.065  -1.383  26.616  0.00  0.00    +0.340 C 
ATOM      4  C   UNL     1       4.153  -0.208  27.052  0.00  0.00    +0.214 C 
ATOM      5  C   UNL     1       4.745   1.145  26.659  0.00  0.00    +0.180 C 
ATOM      6  C   UNL     1       6.231   1.226  27.057  0.00  0.00    +0.178 C 
ENDROOT
BRANCH   6   7
ATOM      7  O   UNL     1       6.804   2.463  26.639  0.00  0.00    -0.386 OA
ATOM      8  H   UNL     1       6.497   2.636  25.731  0.00  0.00    +0.210 HD
ENDBRANCH   6   7
BRANCH   5   9
ATOM      9  O   UNL     1       4.491   1.429  25.280  0.00  0.00    -0.386 OA
ATOM     10  H   UNL     1       5.295   1.778  24.862  0.00  0.00    +0.210 HD
ENDBRANCH   5   9
BRANCH   4  11
ATOM     11  O   UNL     1       3.960  -0.240  28.476  0.00  0.00    -0.383 OA
ATOM     12  H   UNL     1       3.915  -1.174  28.748  0.00  0.00    +0.210 HD
ENDBRANCH   4  11
BRANCH   3  13
ATOM     13  O   UNL     1       4.901  -1.639  25.211  0.00  0.00    -0.453 OA
BRANCH  13  14
ATOM     14  C   UNL     1       4.494  -2.922  24.812  0.00  0.00    +0.214 A 
ATOM     15  C   UNL     1       3.126  -3.466  25.129  0.00  0.00    +0.238 A 
ATOM     16  O   UNL     1       2.239  -2.775  25.615  0.00  0.00    -0.283 OA
ATOM     17  C   UNL     1       2.847  -4.869  24.781  0.00  0.00    +0.109 A 
ATOM     18  C   UNL     1       3.820  -5.571  24.085  0.00  0.00    +0.147 A 
ATOM     19  C   UNL     1       3.597  -6.898  23.703  0.00  0.00    +0.092 A 
ATOM     20  C   UNL     1       2.390  -7.511  24.023  0.00  0.00    +0.124 A 
ATOM     21  C   UNL     1       1.404  -6.830  24.722  0.00  0.00    +0.091 A 
ATOM     22  O   UNL     1       5.024  -5.027  23.734  0.00  0.00    -0.451 OA
ATOM     23  C   UNL     1       1.635  -5.508  25.102  0.00  0.00    +0.135 A 
ATOM     24  C   UNL     1       5.341  -3.735  24.139  0.00  0.00    +0.181 A 
BRANCH  24  25
ATOM     25  C   UNL     1       6.758  -3.376  23.824  0.00  0.00    +0.025 A 
ATOM     26  C   UNL     1       7.782  -3.826  24.684  0.00  0.00    +0.015 A 
ATOM     27  C   UNL     1       9.111  -3.423  24.511  0.00  0.00    +0.050 A 
ATOM     28  C   UNL     1       9.430  -2.584  23.460  0.00  0.00    +0.158 A 
ATOM     29  C   UNL     1       8.456  -2.197  22.547  0.00  0.00    +0.159 A 
ATOM     30  C   UNL     1       7.126  -2.590  22.716  0.00  0.00    +0.060 A 
BRANCH  29  31
ATOM     31  O   UNL     1       8.858  -1.419  21.497  0.00  0.00    -0.503 OA
ATOM     32  H   UNL     1       8.100  -0.893  21.191  0.00  0.00    +0.292 HD
ENDBRANCH  29  31
BRANCH  28  33
ATOM     33  O   UNL     1      10.714  -2.136  23.331  0.00  0.00    -0.503 OA
ATOM     34  H   UNL     1      10.626  -1.187  23.108  0.00  0.00    +0.292 HD
ENDBRANCH  28  33
ENDBRANCH  24  25
BRANCH  23  35
ATOM     35  O   UNL     1       0.658  -4.858  25.803  0.00  0.00    -0.506 OA
ATOM     36  H   UNL     1       1.038  -4.191  26.395  0.00  0.00    +0.292 HD
ENDBRANCH  23  35
BRANCH  20  37
ATOM     37  O   UNL     1       2.135  -8.810  23.696  0.00  0.00    -0.507 OA
ATOM     38  H   UNL     1       1.176  -8.962  23.727  0.00  0.00    +0.292 HD
ENDBRANCH  20  37
ENDBRANCH  13  14
ENDBRANCH   3  13
BRANCH   1  39
ATOM     39  C   UNL     1       7.481   0.048  25.102  0.00  0.00    +0.266 C 
BRANCH  39  40
ATOM     40  O   UNL     1       6.729   1.027  24.353  0.00  0.00    -0.459 OA
BRANCH  40  41
ATOM     41  C   UNL     1       7.332   1.527  23.248  0.00  0.00    +0.332 C 
ATOM     42  O   UNL     1       7.228   1.104  22.111  0.00  0.00    -0.246 OA
BRANCH  41  44
ATOM     43  C   UNL     1       9.422   2.799  23.315  0.00  0.00    +0.015 C 
ATOM     44  C   UNL     1       8.129   2.701  23.665  0.00  0.00    +0.092 C 
BRANCH  43  46
ATOM     45  C   UNL     1       9.838   5.110  24.240  0.00  0.00    +0.012 A 
ATOM     46  C   UNL     1      10.308   3.927  23.647  0.00  0.00    -0.021 A 
ATOM     47  C   UNL     1      11.663   3.847  23.292  0.00  0.00    +0.057 A 
ATOM     48  C   UNL     1      12.510   4.921  23.543  0.00  0.00    +0.159 A 
ATOM     49  C   UNL     1      12.034   6.084  24.139  0.00  0.00    +0.158 A 
ATOM     50  C   UNL     1      10.696   6.189  24.493  0.00  0.00    +0.050 A 
BRANCH  49  51
ATOM     51  O   UNL     1      12.921   7.105  24.344  0.00  0.00    -0.503 OA
ATOM     52  H   UNL     1      12.471   7.944  24.146  0.00  0.00    +0.292 HD
ENDBRANCH  49  51
BRANCH  48  53
ATOM     53  O   UNL     1      13.826   4.829  23.186  0.00  0.00    -0.503 OA
ATOM     54  H   UNL     1      14.302   5.347  23.865  0.00  0.00    +0.292 HD
ENDBRANCH  48  53
ENDBRANCH  43  46
ENDBRANCH  41  44
ENDBRANCH  40  41
ENDBRANCH  39  40
ENDBRANCH   1  39
TORSDOF 17
ENDMDL
MODEL 9
REMARK VINA RESULT:      -6.7      2.520      6.975
REMARK  Name = 
REMARK  17 active torsions:
REMARK  status: ('A' for Active; 'I' for Inactive)
REMARK    1  A    between atoms: C_3  and  O_50
REMARK    2  A    between atoms: C_4  and  O_49
REMARK    3  A    between atoms: C_6  and  C_7
REMARK    4  A    between atoms: C_8  and  C_9
REMARK    5  A    between atoms: C_9  and  O_11
REMARK    6  A    between atoms: O_11  and  C_12
REMARK    7  A    between atoms: C_12  and  C_13
REMARK    8  A    between atoms: C_15  and  O_48
REMARK    9  A    between atoms: C_17  and  O_47
REMARK   10  A    between atoms: C_19  and  O_46
REMARK   11  A    between atoms: C_21  and  O_24
REMARK   12  A    between atoms: O_24  and  C_25
REMARK   13  A    between atoms: C_26  and  C_38
REMARK   14  A    between atoms: C_30  and  O_37
REMARK   15  A    between atoms: C_32  and  O_36
REMARK   16  A    between atoms: C_40  and  O_45
REMARK   17  A    between atoms: C_41  and  O_44
REMARK                            x       y       z     vdW  Elec       q    Type
REMARK                         _______ _______ _______ _____ _____    ______ ____
ROOT
ATOM      1  C   UNL     1       7.447  -0.331  27.334  0.00  0.00    +0.191 C 
ATOM      2  O   UNL     1       6.656  -1.513  27.462  0.00  0.00    -0.330 OA
ATOM      3  C   UNL     1       5.290  -1.426  27.054  0.00  0.00    +0.340 C 
ATOM      4  C   UNL     1       4.522  -0.248  27.705  0.00  0.00    +0.214 C 
ATOM      5  C   UNL     1       5.301   1.062  27.601  0.00  0.00    +0.180 C 
ATOM      6  C   UNL     1       6.768   0.859  28.027  0.00  0.00    +0.178 C 
ENDROOT
BRANCH   6   7
ATOM      7  O   UNL     1       7.515   2.064  27.876  0.00  0.00    -0.386 OA
ATOM      8  H   UNL     1       8.233   2.050  28.535  0.00  0.00    +0.210 HD
ENDBRANCH   6   7
BRANCH   5   9
ATOM      9  O   UNL     1       5.143   1.646  26.305  0.00  0.00    -0.386 OA
ATOM     10  H   UNL     1       6.012   1.768  25.890  0.00  0.00    +0.210 HD
ENDBRANCH   5   9
BRANCH   4  11
ATOM     11  O   UNL     1       4.269  -0.534  29.091  0.00  0.00    -0.383 OA
ATOM     12  H   UNL     1       4.843   0.045  29.623  0.00  0.00    +0.210 HD
ENDBRANCH   4  11
BRANCH   3  13
ATOM     13  O   UNL     1       5.151  -1.375  25.623  0.00  0.00    -0.453 OA
BRANCH  13  14
ATOM     14  C   UNL     1       4.659  -2.511  24.962  0.00  0.00    +0.214 A 
ATOM     15  C   UNL     1       3.312  -3.106  25.279  0.00  0.00    +0.238 A 
ATOM     16  O   UNL     1       2.506  -2.554  26.017  0.00  0.00    -0.283 OA
ATOM     17  C   UNL     1       2.948  -4.372  24.622  0.00  0.00    +0.109 A 
ATOM     18  C   UNL     1       3.819  -4.882  23.670  0.00  0.00    +0.147 A 
ATOM     19  C   UNL     1       3.510  -6.067  22.993  0.00  0.00    +0.092 A 
ATOM     20  C   UNL     1       2.321  -6.732  23.279  0.00  0.00    +0.124 A 
ATOM     21  C   UNL     1       1.438  -6.241  24.230  0.00  0.00    +0.091 A 
ATOM     22  O   UNL     1       4.999  -4.277  23.338  0.00  0.00    -0.451 OA
ATOM     23  C   UNL     1       1.755  -5.062  24.902  0.00  0.00    +0.135 A 
ATOM     24  C   UNL     1       5.402  -3.133  24.018  0.00  0.00    +0.181 A 
BRANCH  24  25
ATOM     25  C   UNL     1       6.791  -2.718  23.651  0.00  0.00    +0.025 A 
ATOM     26  C   UNL     1       6.968  -1.667  22.729  0.00  0.00    +0.015 A 
ATOM     27  C   UNL     1       8.237  -1.314  22.255  0.00  0.00    +0.050 A 
ATOM     28  C   UNL     1       9.344  -1.999  22.721  0.00  0.00    +0.158 A 
ATOM     29  C   UNL     1       9.207  -2.980  23.696  0.00  0.00    +0.159 A 
ATOM     30  C   UNL     1       7.943  -3.342  24.169  0.00  0.00    +0.060 A 
BRANCH  29  31
ATOM     31  O   UNL     1      10.352  -3.569  24.155  0.00  0.00    -0.503 OA
ATOM     32  H   UNL     1      11.076  -2.922  24.105  0.00  0.00    +0.292 HD
ENDBRANCH  29  31
BRANCH  28  33
ATOM     33  O   UNL     1      10.575  -1.702  22.209  0.00  0.00    -0.503 OA
ATOM     34  H   UNL     1      11.189  -2.316  22.661  0.00  0.00    +0.292 HD
ENDBRANCH  28  33
ENDBRANCH  24  25
BRANCH  23  35
ATOM     35  O   UNL     1       0.879  -4.602  25.847  0.00  0.00    -0.506 OA
ATOM     36  H   UNL     1       0.458  -3.777  25.561  0.00  0.00    +0.292 HD
ENDBRANCH  23  35
BRANCH  20  37
ATOM     37  O   UNL     1       1.987  -7.902  22.665  0.00  0.00    -0.507 OA
ATOM     38  H   UNL     1       1.518  -8.469  23.298  0.00  0.00    +0.292 HD
ENDBRANCH  20  37
ENDBRANCH  13  14
ENDBRANCH   3  13
BRANCH   1  39
ATOM     39  C   UNL     1       7.931  -0.068  25.892  0.00  0.00    +0.266 C 
BRANCH  39  40
ATOM     40  O   UNL     1       9.359  -0.249  25.770  0.00  0.00    -0.459 OA
BRANCH  40  41
ATOM     41  C   UNL     1      10.002   0.612  24.946  0.00  0.00    +0.332 C 
ATOM     42  O   UNL     1      11.150   0.514  24.547  0.00  0.00    -0.246 OA
BRANCH  41  44
ATOM     43  C   UNL     1       9.370   2.585  23.643  0.00  0.00    +0.015 C 
ATOM     44  C   UNL     1       9.054   1.689  24.593  0.00  0.00    +0.092 C 
BRANCH  43  46
ATOM     45  C   UNL     1       8.877   5.033  23.275  0.00  0.00    +0.012 A 
ATOM     46  C   UNL     1       8.501   3.682  23.188  0.00  0.00    -0.021 A 
ATOM     47  C   UNL     1       7.218   3.372  22.711  0.00  0.00    +0.057 A 
ATOM     48  C   UNL     1       6.355   4.393  22.328  0.00  0.00    +0.159 A 
ATOM     49  C   UNL     1       6.742   5.727  22.412  0.00  0.00    +0.158 A 
ATOM     50  C   UNL     1       8.004   6.058  22.885  0.00  0.00    +0.050 A 
BRANCH  49  51
ATOM     51  O   UNL     1       5.838   6.679  22.030  0.00  0.00    -0.503 OA
ATOM     52  H   UNL     1       5.782   6.673  21.059  0.00  0.00    +0.292 HD
ENDBRANCH  49  51
BRANCH  48  53
ATOM     53  O   UNL     1       5.107   4.075  21.873  0.00  0.00    -0.503 OA
ATOM     54  H   UNL     1       5.168   4.167  20.902  0.00  0.00    +0.292 HD
ENDBRANCH  48  53
ENDBRANCH  43  46
ENDBRANCH  41  44
ENDBRANCH  40  41
ENDBRANCH  39  40
ENDBRANCH   1  39
TORSDOF 17
ENDMDL
