MODEL 1
REMARK VINA RESULT:      -7.2      0.000      0.000
REMARK  Name = 
REMARK  17 active torsions:
REMARK  status: ('A' for Active; 'I' for Inactive)
REMARK    1  A    between atoms: C_2  and  C_40
REMARK    2  A    between atoms: C_2  and  O_42
REMARK    3  A    between atoms: C_3  and  O_39
REMARK    4  A    between atoms: C_4  and  O_6
REMARK    5  A    between atoms: O_6  and  C_7
REMARK    6  A    between atoms: C_8  and  O_38
REMARK    7  A    between atoms: C_9  and  O_37
REMARK    8  A    between atoms: C_10  and  C_35
REMARK    9  A    between atoms: C_12  and  O_13
REMARK   10  A    between atoms: O_13  and  C_14
REMARK   11  A    between atoms: C_15  and  C_27
REMARK   12  A    between atoms: C_19  and  O_26
REMARK   13  A    between atoms: C_21  and  O_25
REMARK   14  A    between atoms: C_29  and  O_34
REMARK   15  A    between atoms: C_30  and  O_33
REMARK   16  A    between atoms: C_35  and  O_36
REMARK   17  A    between atoms: C_40  and  O_41
REMARK                            x       y       z     vdW  Elec       q    Type
REMARK                         _______ _______ _______ _____ _____    ______ ____
ROOT
ATOM      1  C   UNL     1       6.525  -4.296  25.899  0.00  0.00    +0.221 C 
ATOM      2  C   UNL     1       6.711  -3.251  24.769  0.00  0.00    +0.340 C 
ATOM      3  O   UNL     1       7.564  -3.746  23.728  0.00  0.00    -0.331 OA
ATOM      4  C   UNL     1       8.840  -4.266  24.127  0.00  0.00    +0.179 C 
ATOM      5  C   UNL     1       8.778  -5.234  25.324  0.00  0.00    +0.177 C 
ATOM      6  C   UNL     1       7.901  -4.675  26.457  0.00  0.00    +0.180 C 
ENDROOT
BRANCH   6   7
ATOM      7  O   UNL     1       7.794  -5.633  27.520  0.00  0.00    -0.386 OA
ATOM      8  H   UNL     1       7.250  -5.254  28.231  0.00  0.00    +0.210 HD
ENDBRANCH   6   7
BRANCH   5   9
ATOM      9  O   UNL     1      10.096  -5.555  25.782  0.00  0.00    -0.386 OA
ATOM     10  H   UNL     1      10.417  -6.342  25.311  0.00  0.00    +0.210 HD
ENDBRANCH   5   9
BRANCH   4  11
ATOM     11  C   UNL     1       9.850  -3.123  24.296  0.00  0.00    +0.190 C 
BRANCH  11  12
ATOM     12  O   UNL     1      10.258  -2.620  23.021  0.00  0.00    -0.392 OA
ATOM     13  H   UNL     1      10.721  -1.775  23.186  0.00  0.00    +0.210 HD
ENDBRANCH  11  12
ENDBRANCH   4  11
BRANCH   2  14
ATOM     14  O   UNL     1       7.156  -2.006  25.327  0.00  0.00    -0.453 OA
BRANCH  14  15
ATOM     15  C   UNL     1       6.623  -0.831  24.790  0.00  0.00    +0.214 A 
ATOM     16  C   UNL     1       7.259  -0.145  23.609  0.00  0.00    +0.238 A 
ATOM     17  O   UNL     1       8.026  -0.732  22.857  0.00  0.00    -0.283 OA
ATOM     18  C   UNL     1       6.863   1.250  23.351  0.00  0.00    +0.109 A 
ATOM     19  C   UNL     1       5.671   1.682  23.924  0.00  0.00    +0.147 A 
ATOM     20  C   UNL     1       5.154   2.945  23.621  0.00  0.00    +0.092 A 
ATOM     21  C   UNL     1       5.856   3.777  22.753  0.00  0.00    +0.124 A 
ATOM     22  C   UNL     1       7.076   3.384  22.215  0.00  0.00    +0.091 A 
ATOM     23  O   UNL     1       4.948   0.913  24.796  0.00  0.00    -0.451 OA
ATOM     24  C   UNL     1       7.585   2.122  22.522  0.00  0.00    +0.135 A 
ATOM     25  C   UNL     1       5.518  -0.248  25.309  0.00  0.00    +0.181 A 
BRANCH  25  26
ATOM     26  C   UNL     1       4.829  -0.694  26.560  0.00  0.00    +0.025 A 
ATOM     27  C   UNL     1       5.106  -0.005  27.763  0.00  0.00    +0.015 A 
ATOM     28  C   UNL     1       4.602  -0.440  28.993  0.00  0.00    +0.050 A 
ATOM     29  C   UNL     1       3.802  -1.566  29.033  0.00  0.00    +0.158 A 
ATOM     30  C   UNL     1       3.471  -2.232  27.857  0.00  0.00    +0.159 A 
ATOM     31  C   UNL     1       3.968  -1.804  26.622  0.00  0.00    +0.060 A 
BRANCH  30  32
ATOM     32  O   UNL     1       2.664  -3.331  27.970  0.00  0.00    -0.503 OA
ATOM     33  H   UNL     1       1.743  -3.042  27.855  0.00  0.00    +0.292 HD
ENDBRANCH  30  32
BRANCH  29  34
ATOM     34  O   UNL     1       3.352  -2.019  30.240  0.00  0.00    -0.503 OA
ATOM     35  H   UNL     1       3.621  -1.331  30.881  0.00  0.00    +0.292 HD
ENDBRANCH  29  34
ENDBRANCH  25  26
BRANCH  24  36
ATOM     36  O   UNL     1       8.808   1.768  22.025  0.00  0.00    -0.506 OA
ATOM     37  H   UNL     1       8.951   0.814  22.134  0.00  0.00    +0.292 HD
ENDBRANCH  24  36
BRANCH  21  38
ATOM     38  O   UNL     1       5.382   5.007  22.403  0.00  0.00    -0.507 OA
ATOM     39  H   UNL     1       4.631   4.900  21.796  0.00  0.00    +0.292 HD
ENDBRANCH  21  38
ENDBRANCH  14  15
ENDBRANCH   2  14
BRANCH   1  40
ATOM     40  O   UNL     1       5.809  -5.414  25.324  0.00  0.00    -0.337 OA
BRANCH  40  43
ATOM     41  C   UNL     1       2.455  -6.128  25.198  0.00  0.00    +0.202 C 
ATOM     42  O   UNL     1       3.508  -5.305  25.740  0.00  0.00    -0.346 OA
ATOM     43  C   UNL     1       4.539  -5.149  24.738  0.00  0.00    +0.282 C 
ATOM     44  C   UNL     1       4.191  -6.144  23.619  0.00  0.00    +0.206 C 
ATOM     45  C   UNL     1       2.673  -6.167  23.690  0.00  0.00    +0.142 C 
BRANCH  45  46
ATOM     46  O   UNL     1       2.139  -4.982  23.060  0.00  0.00    -0.381 OA
ATOM     47  H   UNL     1       1.535  -4.540  23.687  0.00  0.00    +0.210 HD
ENDBRANCH  45  46
BRANCH  44  48
ATOM     48  O   UNL     1       4.745  -7.438  23.911  0.00  0.00    -0.384 OA
ATOM     49  H   UNL     1       4.394  -7.714  24.782  0.00  0.00    +0.210 HD
ENDBRANCH  44  48
BRANCH  45  50
ATOM     50  C   UNL     1       2.030  -7.380  23.022  0.00  0.00    +0.195 C 
BRANCH  50  51
ATOM     51  O   UNL     1       2.294  -8.561  23.785  0.00  0.00    -0.392 OA
ATOM     52  H   UNL     1       1.422  -8.868  24.097  0.00  0.00    +0.210 HD
ENDBRANCH  50  51
ENDBRANCH  45  50
ENDBRANCH  40  43
ENDBRANCH   1  40
TORSDOF 17
ENDMDL
MODEL 2
REMARK VINA RESULT:      -7.2      2.569      8.856
REMARK  Name = 
REMARK  17 active torsions:
REMARK  status: ('A' for Active; 'I' for Inactive)
REMARK    1  A    between atoms: C_2  and  C_40
REMARK    2  A    between atoms: C_2  and  O_42
REMARK    3  A    between atoms: C_3  and  O_39
REMARK    4  A    between atoms: C_4  and  O_6
REMARK    5  A    between atoms: O_6  and  C_7
REMARK    6  A    between atoms: C_8  and  O_38
REMARK    7  A    between atoms: C_9  and  O_37
REMARK    8  A    between atoms: C_10  and  C_35
REMARK    9  A    between atoms: C_12  and  O_13
REMARK   10  A    between atoms: O_13  and  C_14
REMARK   11  A    between atoms: C_15  and  C_27
REMARK   12  A    between atoms: C_19  and  O_26
REMARK   13  A    between atoms: C_21  and  O_25
REMARK   14  A    between atoms: C_29  and  O_34
REMARK   15  A    between atoms: C_30  and  O_33
REMARK   16  A    between atoms: C_35  and  O_36
REMARK   17  A    between atoms: C_40  and  O_41
REMARK                            x       y       z     vdW  Elec       q    Type
REMARK                         _______ _______ _______ _____ _____    ______ ____
ROOT
ATOM      1  C   UNL     1       6.892   1.762  26.212  0.00  0.00    +0.221 C 
ATOM      2  C   UNL     1       5.902   0.842  25.453  0.00  0.00    +0.340 C 
ATOM      3  O   UNL     1       4.538   1.207  25.710  0.00  0.00    -0.331 OA
ATOM      4  C   UNL     1       4.145   1.320  27.085  0.00  0.00    +0.179 C 
ATOM      5  C   UNL     1       5.127   2.126  27.956  0.00  0.00    +0.177 C 
ATOM      6  C   UNL     1       6.583   1.695  27.712  0.00  0.00    +0.180 C 
ENDROOT
BRANCH   6   7
ATOM      7  O   UNL     1       7.478   2.519  28.473  0.00  0.00    -0.386 OA
ATOM      8  H   UNL     1       7.145   2.587  29.384  0.00  0.00    +0.210 HD
ENDBRANCH   6   7
BRANCH   5   9
ATOM      9  O   UNL     1       4.770   2.030  29.339  0.00  0.00    -0.386 OA
ATOM     10  H   UNL     1       4.103   2.706  29.547  0.00  0.00    +0.210 HD
ENDBRANCH   5   9
BRANCH   4  11
ATOM     11  C   UNL     1       3.793  -0.063  27.651  0.00  0.00    +0.190 C 
BRANCH  11  12
ATOM     12  O   UNL     1       2.710  -0.644  26.921  0.00  0.00    -0.392 OA
ATOM     13  H   UNL     1       2.369  -1.382  27.462  0.00  0.00    +0.210 HD
ENDBRANCH  11  12
ENDBRANCH   4  11
BRANCH   2  14
ATOM     14  O   UNL     1       6.189  -0.533  25.753  0.00  0.00    -0.453 OA
BRANCH  14  15
ATOM     15  C   UNL     1       6.128  -1.449  24.699  0.00  0.00    +0.214 A 
ATOM     16  C   UNL     1       5.088  -2.537  24.661  0.00  0.00    +0.238 A 
ATOM     17  O   UNL     1       4.061  -2.473  25.324  0.00  0.00    -0.283 OA
ATOM     18  C   UNL     1       5.324  -3.657  23.733  0.00  0.00    +0.109 A 
ATOM     19  C   UNL     1       6.225  -3.437  22.697  0.00  0.00    +0.147 A 
ATOM     20  C   UNL     1       6.405  -4.396  21.696  0.00  0.00    +0.092 A 
ATOM     21  C   UNL     1       5.686  -5.586  21.758  0.00  0.00    +0.124 A 
ATOM     22  C   UNL     1       4.823  -5.847  22.816  0.00  0.00    +0.091 A 
ATOM     23  O   UNL     1       6.970  -2.293  22.595  0.00  0.00    -0.451 OA
ATOM     24  C   UNL     1       4.648  -4.885  23.810  0.00  0.00    +0.135 A 
ATOM     25  C   UNL     1       7.005  -1.409  23.669  0.00  0.00    +0.181 A 
BRANCH  25  26
ATOM     26  C   UNL     1       8.189  -0.498  23.596  0.00  0.00    +0.025 A 
ATOM     27  C   UNL     1       9.140  -0.545  24.642  0.00  0.00    +0.015 A 
ATOM     28  C   UNL     1      10.204   0.361  24.711  0.00  0.00    +0.050 A 
ATOM     29  C   UNL     1      10.337   1.318  23.723  0.00  0.00    +0.158 A 
ATOM     30  C   UNL     1       9.447   1.353  22.655  0.00  0.00    +0.159 A 
ATOM     31  C   UNL     1       8.382   0.451  22.575  0.00  0.00    +0.060 A 
BRANCH  30  32
ATOM     32  O   UNL     1       9.648   2.319  21.708  0.00  0.00    -0.503 OA
ATOM     33  H   UNL     1      10.206   3.013  22.097  0.00  0.00    +0.292 HD
ENDBRANCH  30  32
BRANCH  29  34
ATOM     34  O   UNL     1      11.346   2.233  23.819  0.00  0.00    -0.503 OA
ATOM     35  H   UNL     1      10.904   3.102  23.748  0.00  0.00    +0.292 HD
ENDBRANCH  29  34
ENDBRANCH  25  26
BRANCH  24  36
ATOM     36  O   UNL     1       3.834  -5.174  24.869  0.00  0.00    -0.506 OA
ATOM     37  H   UNL     1       3.587  -6.113  24.855  0.00  0.00    +0.292 HD
ENDBRANCH  24  36
BRANCH  21  38
ATOM     38  O   UNL     1       5.804  -6.543  20.793  0.00  0.00    -0.507 OA
ATOM     39  H   UNL     1       4.996  -7.081  20.774  0.00  0.00    +0.292 HD
ENDBRANCH  21  38
ENDBRANCH  14  15
ENDBRANCH   2  14
BRANCH   1  40
ATOM     40  O   UNL     1       6.745   3.088  25.653  0.00  0.00    -0.337 OA
BRANCH  40  43
ATOM     41  C   UNL     1       8.639   5.888  25.065  0.00  0.00    +0.202 C 
ATOM     42  O   UNL     1       8.418   4.711  25.867  0.00  0.00    -0.346 OA
ATOM     43  C   UNL     1       7.884   3.666  25.024  0.00  0.00    +0.282 C 
ATOM     44  C   UNL     1       7.536   4.341  23.687  0.00  0.00    +0.206 C 
ATOM     45  C   UNL     1       8.591   5.432  23.611  0.00  0.00    +0.142 C 
BRANCH  45  46
ATOM     46  O   UNL     1       9.854   4.858  23.207  0.00  0.00    -0.381 OA
ATOM     47  H   UNL     1      10.511   5.576  23.124  0.00  0.00    +0.210 HD
ENDBRANCH  45  46
BRANCH  44  48
ATOM     48  O   UNL     1       6.212   4.900  23.741  0.00  0.00    -0.384 OA
ATOM     49  H   UNL     1       5.751   4.633  22.919  0.00  0.00    +0.210 HD
ENDBRANCH  44  48
BRANCH  45  50
ATOM     50  C   UNL     1       8.260   6.561  22.638  0.00  0.00    +0.195 C 
BRANCH  50  51
ATOM     51  O   UNL     1       7.590   6.038  21.486  0.00  0.00    -0.392 OA
ATOM     52  H   UNL     1       6.685   6.401  21.527  0.00  0.00    +0.210 HD
ENDBRANCH  50  51
ENDBRANCH  45  50
ENDBRANCH  40  43
ENDBRANCH   1  40
TORSDOF 17
ENDMDL
MODEL 3
REMARK VINA RESULT:      -7.0      1.761      4.637
REMARK  Name = 
REMARK  17 active torsions:
REMARK  status: ('A' for Active; 'I' for Inactive)
REMARK    1  A    between atoms: C_2  and  C_40
REMARK    2  A    between atoms: C_2  and  O_42
REMARK    3  A    between atoms: C_3  and  O_39
REMARK    4  A    between atoms: C_4  and  O_6
REMARK    5  A    between atoms: O_6  and  C_7
REMARK    6  A    between atoms: C_8  and  O_38
REMARK    7  A    between atoms: C_9  and  O_37
REMARK    8  A    between atoms: C_10  and  C_35
REMARK    9  A    between atoms: C_12  and  O_13
REMARK   10  A    between atoms: O_13  and  C_14
REMARK   11  A    between atoms: C_15  and  C_27
REMARK   12  A    between atoms: C_19  and  O_26
REMARK   13  A    between atoms: C_21  and  O_25
REMARK   14  A    between atoms: C_29  and  O_34
REMARK   15  A    between atoms: C_30  and  O_33
REMARK   16  A    between atoms: C_35  and  O_36
REMARK   17  A    between atoms: C_40  and  O_41
REMARK                            x       y       z     vdW  Elec       q    Type
REMARK                         _______ _______ _______ _____ _____    ______ ____
ROOT
ATOM      1  C   UNL     1       6.660  -4.208  25.674  0.00  0.00    +0.221 C 
ATOM      2  C   UNL     1       6.725  -2.892  24.858  0.00  0.00    +0.340 C 
ATOM      3  O   UNL     1       7.468  -3.060  23.642  0.00  0.00    -0.331 OA
ATOM      4  C   UNL     1       8.779  -3.629  23.757  0.00  0.00    +0.179 C 
ATOM      5  C   UNL     1       8.844  -4.886  24.645  0.00  0.00    +0.177 C 
ATOM      6  C   UNL     1       8.088  -4.681  25.968  0.00  0.00    +0.180 C 
ENDROOT
BRANCH   6   7
ATOM      7  O   UNL     1       8.095  -5.894  26.736  0.00  0.00    -0.386 OA
ATOM      8  H   UNL     1       8.869  -5.889  27.324  0.00  0.00    +0.210 HD
ENDBRANCH   6   7
BRANCH   5   9
ATOM      9  O   UNL     1      10.203  -5.278  24.866  0.00  0.00    -0.386 OA
ATOM     10  H   UNL     1      10.753  -4.960  24.131  0.00  0.00    +0.210 HD
ENDBRANCH   5   9
BRANCH   4  11
ATOM     11  C   UNL     1       9.798  -2.543  24.130  0.00  0.00    +0.190 C 
BRANCH  11  12
ATOM     12  O   UNL     1      10.123  -1.746  22.988  0.00  0.00    -0.392 OA
ATOM     13  H   UNL     1       9.804  -0.841  23.176  0.00  0.00    +0.210 HD
ENDBRANCH  11  12
ENDBRANCH   4  11
BRANCH   2  14
ATOM     14  O   UNL     1       7.223  -1.830  25.687  0.00  0.00    -0.453 OA
BRANCH  14  15
ATOM     15  C   UNL     1       6.351  -0.779  25.982  0.00  0.00    +0.214 A 
ATOM     16  C   UNL     1       5.160  -0.974  26.883  0.00  0.00    +0.238 A 
ATOM     17  O   UNL     1       5.085  -1.916  27.661  0.00  0.00    -0.283 OA
ATOM     18  C   UNL     1       4.111   0.060  26.841  0.00  0.00    +0.109 A 
ATOM     19  C   UNL     1       4.471   1.300  26.321  0.00  0.00    +0.147 A 
ATOM     20  C   UNL     1       3.579   2.375  26.369  0.00  0.00    +0.092 A 
ATOM     21  C   UNL     1       2.317   2.188  26.926  0.00  0.00    +0.124 A 
ATOM     22  C   UNL     1       1.920   0.942  27.399  0.00  0.00    +0.091 A 
ATOM     23  O   UNL     1       5.691   1.536  25.748  0.00  0.00    -0.451 OA
ATOM     24  C   UNL     1       2.816  -0.126  27.349  0.00  0.00    +0.135 A 
ATOM     25  C   UNL     1       6.527   0.460  25.468  0.00  0.00    +0.181 A 
BRANCH  25  26
ATOM     26  C   UNL     1       7.563   0.817  24.449  0.00  0.00    +0.025 A 
ATOM     27  C   UNL     1       8.851   1.189  24.900  0.00  0.00    +0.015 A 
ATOM     28  C   UNL     1       9.832   1.658  24.020  0.00  0.00    +0.050 A 
ATOM     29  C   UNL     1       9.540   1.748  22.672  0.00  0.00    +0.158 A 
ATOM     30  C   UNL     1       8.299   1.339  22.195  0.00  0.00    +0.159 A 
ATOM     31  C   UNL     1       7.312   0.867  23.066  0.00  0.00    +0.060 A 
BRANCH  30  32
ATOM     32  O   UNL     1       8.084   1.443  20.848  0.00  0.00    -0.503 OA
ATOM     33  H   UNL     1       8.268   0.578  20.445  0.00  0.00    +0.292 HD
ENDBRANCH  30  32
BRANCH  29  34
ATOM     34  O   UNL     1      10.480   2.253  21.822  0.00  0.00    -0.503 OA
ATOM     35  H   UNL     1      10.074   2.193  20.935  0.00  0.00    +0.292 HD
ENDBRANCH  29  34
ENDBRANCH  25  26
BRANCH  24  36
ATOM     36  O   UNL     1       2.397  -1.355  27.773  0.00  0.00    -0.506 OA
ATOM     37  H   UNL     1       1.549  -1.583  27.357  0.00  0.00    +0.292 HD
ENDBRANCH  24  36
BRANCH  21  38
ATOM     38  O   UNL     1       1.420   3.211  27.021  0.00  0.00    -0.507 OA
ATOM     39  H   UNL     1       0.534   2.881  26.800  0.00  0.00    +0.292 HD
ENDBRANCH  21  38
ENDBRANCH  14  15
ENDBRANCH   2  14
BRANCH   1  40
ATOM     40  O   UNL     1       5.891  -5.151  24.890  0.00  0.00    -0.337 OA
BRANCH  40  43
ATOM     41  C   UNL     1       3.309  -6.786  26.448  0.00  0.00    +0.202 C 
ATOM     42  O   UNL     1       4.282  -5.723  26.489  0.00  0.00    -0.346 OA
ATOM     43  C   UNL     1       4.494  -5.232  25.146  0.00  0.00    +0.282 C 
ATOM     44  C   UNL     1       3.785  -6.231  24.217  0.00  0.00    +0.206 C 
ATOM     45  C   UNL     1       2.627  -6.691  25.087  0.00  0.00    +0.142 C 
BRANCH  45  46
ATOM     46  O   UNL     1       1.596  -5.679  25.096  0.00  0.00    -0.381 OA
ATOM     47  H   UNL     1       0.845  -5.994  24.555  0.00  0.00    +0.210 HD
ENDBRANCH  45  46
BRANCH  44  48
ATOM     48  O   UNL     1       4.662  -7.326  23.899  0.00  0.00    -0.384 OA
ATOM     49  H   UNL     1       4.113  -8.031  23.500  0.00  0.00    +0.210 HD
ENDBRANCH  44  48
BRANCH  45  50
ATOM     50  C   UNL     1       1.988  -8.005  24.643  0.00  0.00    +0.195 C 
BRANCH  50  51
ATOM     51  O   UNL     1       2.721  -9.114  25.172  0.00  0.00    -0.392 OA
ATOM     52  H   UNL     1       2.514  -9.130  26.125  0.00  0.00    +0.210 HD
ENDBRANCH  50  51
ENDBRANCH  45  50
ENDBRANCH  40  43
ENDBRANCH   1  40
TORSDOF 17
ENDMDL
MODEL 4
REMARK VINA RESULT:      -7.0      2.188      8.529
REMARK  Name = 
REMARK  17 active torsions:
REMARK  status: ('A' for Active; 'I' for Inactive)
REMARK    1  A    between atoms: C_2  and  C_40
REMARK    2  A    between atoms: C_2  and  O_42
REMARK    3  A    between atoms: C_3  and  O_39
REMARK    4  A    between atoms: C_4  and  O_6
REMARK    5  A    between atoms: O_6  and  C_7
REMARK    6  A    between atoms: C_8  and  O_38
REMARK    7  A    between atoms: C_9  and  O_37
REMARK    8  A    between atoms: C_10  and  C_35
REMARK    9  A    between atoms: C_12  and  O_13
REMARK   10  A    between atoms: O_13  and  C_14
REMARK   11  A    between atoms: C_15  and  C_27
REMARK   12  A    between atoms: C_19  and  O_26
REMARK   13  A    between atoms: C_21  and  O_25
REMARK   14  A    between atoms: C_29  and  O_34
REMARK   15  A    between atoms: C_30  and  O_33
REMARK   16  A    between atoms: C_35  and  O_36
REMARK   17  A    between atoms: C_40  and  O_41
REMARK                            x       y       z     vdW  Elec       q    Type
REMARK                         _______ _______ _______ _____ _____    ______ ____
ROOT
ATOM      1  C   UNL     1       6.879   0.028  25.083  0.00  0.00    +0.221 C 
ATOM      2  C   UNL     1       5.409  -0.463  25.119  0.00  0.00    +0.340 C 
ATOM      3  O   UNL     1       4.553   0.480  25.780  0.00  0.00    -0.331 OA
ATOM      4  C   UNL     1       4.955   0.916  27.086  0.00  0.00    +0.179 C 
ATOM      5  C   UNL     1       6.437   1.322  27.184  0.00  0.00    +0.177 C 
ATOM      6  C   UNL     1       7.353   0.282  26.518  0.00  0.00    +0.180 C 
ENDROOT
BRANCH   6   7
ATOM      7  O   UNL     1       8.717   0.728  26.552  0.00  0.00    -0.386 OA
ATOM      8  H   UNL     1       9.038   0.827  25.639  0.00  0.00    +0.210 HD
ENDBRANCH   6   7
BRANCH   5   9
ATOM      9  O   UNL     1       6.806   1.557  28.548  0.00  0.00    -0.386 OA
ATOM     10  H   UNL     1       7.617   2.092  28.574  0.00  0.00    +0.210 HD
ENDBRANCH   5   9
BRANCH   4  11
ATOM     11  C   UNL     1       4.510  -0.103  28.145  0.00  0.00    +0.190 C 
BRANCH  11  12
ATOM     12  O   UNL     1       3.274  -0.713  27.768  0.00  0.00    -0.392 OA
ATOM     13  H   UNL     1       3.499  -1.541  27.300  0.00  0.00    +0.210 HD
ENDBRANCH  11  12
ENDBRANCH   4  11
BRANCH   2  14
ATOM     14  O   UNL     1       5.350  -1.781  25.687  0.00  0.00    -0.453 OA
BRANCH  14  15
ATOM     15  C   UNL     1       4.752  -2.787  24.923  0.00  0.00    +0.214 A 
ATOM     16  C   UNL     1       3.345  -3.249  25.193  0.00  0.00    +0.238 A 
ATOM     17  O   UNL     1       2.549  -2.565  25.824  0.00  0.00    -0.283 OA
ATOM     18  C   UNL     1       2.937  -4.536  24.603  0.00  0.00    +0.109 A 
ATOM     19  C   UNL     1       3.696  -5.007  23.536  0.00  0.00    +0.147 A 
ATOM     20  C   UNL     1       3.299  -6.148  22.832  0.00  0.00    +0.092 A 
ATOM     21  C   UNL     1       2.146  -6.822  23.223  0.00  0.00    +0.124 A 
ATOM     22  C   UNL     1       1.406  -6.398  24.321  0.00  0.00    +0.091 A 
ATOM     23  O   UNL     1       4.847  -4.395  23.119  0.00  0.00    -0.451 OA
ATOM     24  C   UNL     1       1.807  -5.258  25.018  0.00  0.00    +0.135 A 
ATOM     25  C   UNL     1       5.410  -3.400  23.912  0.00  0.00    +0.181 A 
BRANCH  25  26
ATOM     26  C   UNL     1       6.853  -3.182  23.581  0.00  0.00    +0.025 A 
ATOM     27  C   UNL     1       7.830  -3.676  24.476  0.00  0.00    +0.015 A 
ATOM     28  C   UNL     1       9.191  -3.402  24.303  0.00  0.00    +0.050 A 
ATOM     29  C   UNL     1       9.593  -2.641  23.222  0.00  0.00    +0.158 A 
ATOM     30  C   UNL     1       8.658  -2.187  22.298  0.00  0.00    +0.159 A 
ATOM     31  C   UNL     1       7.295  -2.457  22.460  0.00  0.00    +0.060 A 
BRANCH  30  32
ATOM     32  O   UNL     1       9.129  -1.451  21.245  0.00  0.00    -0.503 OA
ATOM     33  H   UNL     1       8.433  -1.415  20.567  0.00  0.00    +0.292 HD
ENDBRANCH  30  32
BRANCH  29  34
ATOM     34  O   UNL     1      10.916  -2.333  23.083  0.00  0.00    -0.503 OA
ATOM     35  H   UNL     1      11.164  -1.907  23.927  0.00  0.00    +0.292 HD
ENDBRANCH  29  34
ENDBRANCH  25  26
BRANCH  24  36
ATOM     36  O   UNL     1       1.099  -4.880  26.124  0.00  0.00    -0.506 OA
ATOM     37  H   UNL     1       1.653  -4.952  26.918  0.00  0.00    +0.292 HD
ENDBRANCH  24  36
BRANCH  21  38
ATOM     38  O   UNL     1       1.700  -7.924  22.553  0.00  0.00    -0.507 OA
ATOM     39  H   UNL     1       2.438  -8.544  22.433  0.00  0.00    +0.292 HD
ENDBRANCH  21  38
ENDBRANCH  14  15
ENDBRANCH   2  14
BRANCH   1  40
ATOM     40  O   UNL     1       6.906   1.210  24.249  0.00  0.00    -0.337 OA
BRANCH  40  43
ATOM     41  C   UNL     1      10.295   1.103  23.723  0.00  0.00    +0.202 C 
ATOM     42  O   UNL     1       9.032   0.408  23.690  0.00  0.00    -0.346 OA
ATOM     43  C   UNL     1       7.991   1.347  23.339  0.00  0.00    +0.282 C 
ATOM     44  C   UNL     1       8.641   2.739  23.408  0.00  0.00    +0.206 C 
ATOM     45  C   UNL     1      10.073   2.429  23.004  0.00  0.00    +0.142 C 
BRANCH  45  46
ATOM     46  O   UNL     1      10.147   2.259  21.571  0.00  0.00    -0.381 OA
ATOM     47  H   UNL     1       9.471   2.828  21.154  0.00  0.00    +0.210 HD
ENDBRANCH  45  46
BRANCH  44  48
ATOM     48  O   UNL     1       8.580   3.253  24.750  0.00  0.00    -0.384 OA
ATOM     49  H   UNL     1       8.563   2.483  25.355  0.00  0.00    +0.210 HD
ENDBRANCH  44  48
BRANCH  45  50
ATOM     50  C   UNL     1      11.085   3.502  23.399  0.00  0.00    +0.195 C 
BRANCH  50  51
ATOM     51  O   UNL     1      10.496   4.801  23.285  0.00  0.00    -0.392 OA
ATOM     52  H   UNL     1       9.532   4.649  23.293  0.00  0.00    +0.210 HD
ENDBRANCH  50  51
ENDBRANCH  45  50
ENDBRANCH  40  43
ENDBRANCH   1  40
TORSDOF 17
ENDMDL
MODEL 5
REMARK VINA RESULT:      -6.8      2.424      6.068
REMARK  Name = 
REMARK  17 active torsions:
REMARK  status: ('A' for Active; 'I' for Inactive)
REMARK    1  A    between atoms: C_2  and  C_40
REMARK    2  A    between atoms: C_2  and  O_42
REMARK    3  A    between atoms: C_3  and  O_39
REMARK    4  A    between atoms: C_4  and  O_6
REMARK    5  A    between atoms: O_6  and  C_7
REMARK    6  A    between atoms: C_8  and  O_38
REMARK    7  A    between atoms: C_9  and  O_37
REMARK    8  A    between atoms: C_10  and  C_35
REMARK    9  A    between atoms: C_12  and  O_13
REMARK   10  A    between atoms: O_13  and  C_14
REMARK   11  A    between atoms: C_15  and  C_27
REMARK   12  A    between atoms: C_19  and  O_26
REMARK   13  A    between atoms: C_21  and  O_25
REMARK   14  A    between atoms: C_29  and  O_34
REMARK   15  A    between atoms: C_30  and  O_33
REMARK   16  A    between atoms: C_35  and  O_36
REMARK   17  A    between atoms: C_40  and  O_41
REMARK                            x       y       z     vdW  Elec       q    Type
REMARK                         _______ _______ _______ _____ _____    ______ ____
ROOT
ATOM      1  C   UNL     1       7.400  -1.090  23.764  0.00  0.00    +0.221 C 
ATOM      2  C   UNL     1       7.342   0.454  23.637  0.00  0.00    +0.340 C 
ATOM      3  O   UNL     1       7.767   0.894  22.339  0.00  0.00    -0.331 OA
ATOM      4  C   UNL     1       9.037   0.413  21.876  0.00  0.00    +0.179 C 
ATOM      5  C   UNL     1       9.241  -1.103  22.062  0.00  0.00    +0.177 C 
ATOM      6  C   UNL     1       8.830  -1.558  23.472  0.00  0.00    +0.180 C 
ENDROOT
BRANCH   6   7
ATOM      7  O   UNL     1       8.952  -2.984  23.587  0.00  0.00    -0.386 OA
ATOM      8  H   UNL     1       9.671  -3.189  24.210  0.00  0.00    +0.210 HD
ENDBRANCH   6   7
BRANCH   5   9
ATOM      9  O   UNL     1      10.591  -1.470  21.758  0.00  0.00    -0.386 OA
ATOM     10  H   UNL     1      10.609  -2.384  21.429  0.00  0.00    +0.210 HD
ENDBRANCH   5   9
BRANCH   4  11
ATOM     11  C   UNL     1      10.171   1.275  22.447  0.00  0.00    +0.190 C 
BRANCH  11  12
ATOM     12  O   UNL     1      10.213   2.547  21.795  0.00  0.00    -0.392 OA
ATOM     13  H   UNL     1      11.099   2.628  21.392  0.00  0.00    +0.210 HD
ENDBRANCH  11  12
ENDBRANCH   4  11
BRANCH   2  14
ATOM     14  O   UNL     1       8.077   1.059  24.712  0.00  0.00    -0.453 OA
BRANCH  14  15
ATOM     15  C   UNL     1       7.344   1.579  25.782  0.00  0.00    +0.214 A 
ATOM     16  C   UNL     1       6.873   0.703  26.913  0.00  0.00    +0.238 A 
ATOM     17  O   UNL     1       7.382  -0.387  27.142  0.00  0.00    -0.283 OA
ATOM     18  C   UNL     1       5.816   1.245  27.785  0.00  0.00    +0.109 A 
ATOM     19  C   UNL     1       5.635   2.625  27.772  0.00  0.00    +0.147 A 
ATOM     20  C   UNL     1       4.750   3.233  28.666  0.00  0.00    +0.092 A 
ATOM     21  C   UNL     1       4.034   2.442  29.559  0.00  0.00    +0.124 A 
ATOM     22  C   UNL     1       4.160   1.057  29.549  0.00  0.00    +0.091 A 
ATOM     23  O   UNL     1       6.300   3.450  26.905  0.00  0.00    -0.451 OA
ATOM     24  C   UNL     1       5.047   0.457  28.655  0.00  0.00    +0.135 A 
ATOM     25  C   UNL     1       7.015   2.890  25.851  0.00  0.00    +0.181 A 
BRANCH  25  26
ATOM     26  C   UNL     1       7.267   3.887  24.764  0.00  0.00    +0.025 A 
ATOM     27  C   UNL     1       6.170   4.331  23.990  0.00  0.00    +0.015 A 
ATOM     28  C   UNL     1       6.342   5.161  22.878  0.00  0.00    +0.050 A 
ATOM     29  C   UNL     1       7.615   5.571  22.534  0.00  0.00    +0.158 A 
ATOM     30  C   UNL     1       8.707   5.193  23.309  0.00  0.00    +0.159 A 
ATOM     31  C   UNL     1       8.546   4.364  24.424  0.00  0.00    +0.060 A 
BRANCH  30  32
ATOM     32  O   UNL     1       9.936   5.646  22.918  0.00  0.00    -0.503 OA
ATOM     33  H   UNL     1       9.956   5.666  21.946  0.00  0.00    +0.292 HD
ENDBRANCH  30  32
BRANCH  29  34
ATOM     34  O   UNL     1       7.787   6.340  21.420  0.00  0.00    -0.503 OA
ATOM     35  H   UNL     1       7.515   7.239  21.691  0.00  0.00    +0.292 HD
ENDBRANCH  29  34
ENDBRANCH  25  26
BRANCH  24  36
ATOM     36  O   UNL     1       5.126  -0.906  28.623  0.00  0.00    -0.506 OA
ATOM     37  H   UNL     1       4.643  -1.288  29.374  0.00  0.00    +0.292 HD
ENDBRANCH  24  36
BRANCH  21  38
ATOM     38  O   UNL     1       3.177   2.988  30.470  0.00  0.00    -0.507 OA
ATOM     39  H   UNL     1       3.689   3.455  31.150  0.00  0.00    +0.292 HD
ENDBRANCH  21  38
ENDBRANCH  14  15
ENDBRANCH   2  14
BRANCH   1  40
ATOM     40  O   UNL     1       6.419  -1.624  22.845  0.00  0.00    -0.337 OA
BRANCH  40  43
ATOM     41  C   UNL     1       6.048  -4.511  24.662  0.00  0.00    +0.202 C 
ATOM     42  O   UNL     1       5.998  -3.070  24.636  0.00  0.00    -0.346 OA
ATOM     43  C   UNL     1       5.552  -2.642  23.330  0.00  0.00    +0.282 C 
ATOM     44  C   UNL     1       5.573  -3.900  22.446  0.00  0.00    +0.206 C 
ATOM     45  C   UNL     1       5.250  -4.990  23.455  0.00  0.00    +0.142 C 
BRANCH  45  46
ATOM     46  O   UNL     1       3.832  -4.984  23.737  0.00  0.00    -0.381 OA
ATOM     47  H   UNL     1       3.348  -5.144  22.904  0.00  0.00    +0.210 HD
ENDBRANCH  45  46
BRANCH  44  48
ATOM     48  O   UNL     1       6.881  -4.089  21.878  0.00  0.00    -0.384 OA
ATOM     49  H   UNL     1       6.953  -3.487  21.109  0.00  0.00    +0.210 HD
ENDBRANCH  44  48
BRANCH  45  50
ATOM     50  C   UNL     1       5.629  -6.398  23.003  0.00  0.00    +0.195 C 
BRANCH  50  51
ATOM     51  O   UNL     1       5.632  -6.474  21.575  0.00  0.00    -0.392 OA
ATOM     52  H   UNL     1       5.512  -5.556  21.266  0.00  0.00    +0.210 HD
ENDBRANCH  50  51
ENDBRANCH  45  50
ENDBRANCH  40  43
ENDBRANCH   1  40
TORSDOF 17
ENDMDL
MODEL 6
REMARK VINA RESULT:      -6.7      2.380      6.125
REMARK  Name = 
REMARK  17 active torsions:
REMARK  status: ('A' for Active; 'I' for Inactive)
REMARK    1  A    between atoms: C_2  and  C_40
REMARK    2  A    between atoms: C_2  and  O_42
REMARK    3  A    between atoms: C_3  and  O_39
REMARK    4  A    between atoms: C_4  and  O_6
REMARK    5  A    between atoms: O_6  and  C_7
REMARK    6  A    between atoms: C_8  and  O_38
REMARK    7  A    between atoms: C_9  and  O_37
REMARK    8  A    between atoms: C_10  and  C_35
REMARK    9  A    between atoms: C_12  and  O_13
REMARK   10  A    between atoms: O_13  and  C_14
REMARK   11  A    between atoms: C_15  and  C_27
REMARK   12  A    between atoms: C_19  and  O_26
REMARK   13  A    between atoms: C_21  and  O_25
REMARK   14  A    between atoms: C_29  and  O_34
REMARK   15  A    between atoms: C_30  and  O_33
REMARK   16  A    between atoms: C_35  and  O_36
REMARK   17  A    between atoms: C_40  and  O_41
REMARK                            x       y       z     vdW  Elec       q    Type
REMARK                         _______ _______ _______ _____ _____    ______ ____
ROOT
ATOM      1  C   UNL     1       6.512  -2.944  23.037  0.00  0.00    +0.221 C 
ATOM      2  C   UNL     1       6.429  -3.399  24.516  0.00  0.00    +0.340 C 
ATOM      3  O   UNL     1       6.865  -4.756  24.676  0.00  0.00    -0.331 OA
ATOM      4  C   UNL     1       6.255  -5.738  23.828  0.00  0.00    +0.179 C 
ATOM      5  C   UNL     1       6.186  -5.331  22.344  0.00  0.00    +0.177 C 
ATOM      6  C   UNL     1       5.670  -3.892  22.177  0.00  0.00    +0.180 C 
ENDROOT
BRANCH   6   7
ATOM      7  O   UNL     1       5.696  -3.514  20.793  0.00  0.00    -0.386 OA
ATOM      8  H   UNL     1       6.618  -3.519  20.483  0.00  0.00    +0.210 HD
ENDBRANCH   6   7
BRANCH   5   9
ATOM      9  O   UNL     1       5.397  -6.267  21.600  0.00  0.00    -0.386 OA
ATOM     10  H   UNL     1       5.813  -6.423  20.736  0.00  0.00    +0.210 HD
ENDBRANCH   5   9
BRANCH   4  11
ATOM     11  C   UNL     1       4.912  -6.189  24.419  0.00  0.00    +0.190 C 
BRANCH  11  12
ATOM     12  O   UNL     1       4.586  -7.510  23.978  0.00  0.00    -0.392 OA
ATOM     13  H   UNL     1       3.714  -7.727  24.360  0.00  0.00    +0.210 HD
ENDBRANCH  11  12
ENDBRANCH   4  11
BRANCH   2  14
ATOM     14  O   UNL     1       5.107  -3.162  25.024  0.00  0.00    -0.453 OA
BRANCH  14  15
ATOM     15  C   UNL     1       4.970  -2.235  26.060  0.00  0.00    +0.214 A 
ATOM     16  C   UNL     1       5.284  -0.776  25.857  0.00  0.00    +0.238 A 
ATOM     17  O   UNL     1       5.326  -0.273  24.742  0.00  0.00    -0.283 OA
ATOM     18  C   UNL     1       5.468   0.045  27.067  0.00  0.00    +0.109 A 
ATOM     19  C   UNL     1       4.944  -0.458  28.254  0.00  0.00    +0.147 A 
ATOM     20  C   UNL     1       4.955   0.316  29.418  0.00  0.00    +0.092 A 
ATOM     21  C   UNL     1       5.516   1.589  29.384  0.00  0.00    +0.124 A 
ATOM     22  C   UNL     1       6.094   2.085  28.221  0.00  0.00    +0.091 A 
ATOM     23  O   UNL     1       4.395  -1.709  28.350  0.00  0.00    -0.451 OA
ATOM     24  C   UNL     1       6.078   1.308  27.063  0.00  0.00    +0.135 A 
ATOM     25  C   UNL     1       4.558  -2.602  27.296  0.00  0.00    +0.181 A 
BRANCH  25  26
ATOM     26  C   UNL     1       4.335  -4.016  27.732  0.00  0.00    +0.025 A 
ATOM     27  C   UNL     1       3.008  -4.449  27.956  0.00  0.00    +0.015 A 
ATOM     28  C   UNL     1       2.725  -5.712  28.486  0.00  0.00    +0.050 A 
ATOM     29  C   UNL     1       3.770  -6.565  28.786  0.00  0.00    +0.158 A 
ATOM     30  C   UNL     1       5.082  -6.185  28.526  0.00  0.00    +0.159 A 
ATOM     31  C   UNL     1       5.376  -4.925  27.995  0.00  0.00    +0.060 A 
BRANCH  30  32
ATOM     32  O   UNL     1       6.065  -7.084  28.836  0.00  0.00    -0.503 OA
ATOM     33  H   UNL     1       6.925  -6.648  28.711  0.00  0.00    +0.292 HD
ENDBRANCH  30  32
BRANCH  29  34
ATOM     34  O   UNL     1       3.495  -7.778  29.350  0.00  0.00    -0.503 OA
ATOM     35  H   UNL     1       3.213  -7.571  30.263  0.00  0.00    +0.292 HD
ENDBRANCH  29  34
ENDBRANCH  25  26
BRANCH  24  36
ATOM     36  O   UNL     1       6.692   1.789  25.941  0.00  0.00    -0.506 OA
ATOM     37  H   UNL     1       6.252   1.448  25.145  0.00  0.00    +0.292 HD
ENDBRANCH  24  36
BRANCH  21  38
ATOM     38  O   UNL     1       5.528   2.394  30.485  0.00  0.00    -0.507 OA
ATOM     39  H   UNL     1       6.427   2.733  30.623  0.00  0.00    +0.292 HD
ENDBRANCH  21  38
ENDBRANCH  14  15
ENDBRANCH   2  14
BRANCH   1  40
ATOM     40  O   UNL     1       7.914  -2.934  22.679  0.00  0.00    -0.337 OA
BRANCH  40  43
ATOM     41  C   UNL     1      10.498  -0.719  22.240  0.00  0.00    +0.202 C 
ATOM     42  O   UNL     1       9.837  -1.925  21.806  0.00  0.00    -0.346 OA
ATOM     43  C   UNL     1       8.414  -1.778  22.016  0.00  0.00    +0.282 C 
ATOM     44  C   UNL     1       8.243  -0.501  22.855  0.00  0.00    +0.206 C 
ATOM     45  C   UNL     1       9.411   0.342  22.372  0.00  0.00    +0.142 C 
BRANCH  45  46
ATOM     46  O   UNL     1       9.094   0.919  21.086  0.00  0.00    -0.381 OA
ATOM     47  H   UNL     1       9.540   1.785  21.013  0.00  0.00    +0.210 HD
ENDBRANCH  45  46
BRANCH  44  48
ATOM     48  O   UNL     1       8.364  -0.804  24.255  0.00  0.00    -0.384 OA
ATOM     49  H   UNL     1       8.277  -1.774  24.351  0.00  0.00    +0.210 HD
ENDBRANCH  44  48
BRANCH  45  50
ATOM     50  C   UNL     1       9.796   1.482  23.312  0.00  0.00    +0.195 C 
BRANCH  50  51
ATOM     51  O   UNL     1       8.621   2.085  23.863  0.00  0.00    -0.392 OA
ATOM     52  H   UNL     1       8.637   3.011  23.555  0.00  0.00    +0.210 HD
ENDBRANCH  50  51
ENDBRANCH  45  50
ENDBRANCH  40  43
ENDBRANCH   1  40
TORSDOF 17
ENDMDL
MODEL 7
REMARK VINA RESULT:      -6.6      2.298      7.975
REMARK  Name = 
REMARK  17 active torsions:
REMARK  status: ('A' for Active; 'I' for Inactive)
REMARK    1  A    between atoms: C_2  and  C_40
REMARK    2  A    between atoms: C_2  and  O_42
REMARK    3  A    between atoms: C_3  and  O_39
REMARK    4  A    between atoms: C_4  and  O_6
REMARK    5  A    between atoms: O_6  and  C_7
REMARK    6  A    between atoms: C_8  and  O_38
REMARK    7  A    between atoms: C_9  and  O_37
REMARK    8  A    between atoms: C_10  and  C_35
REMARK    9  A    between atoms: C_12  and  O_13
REMARK   10  A    between atoms: O_13  and  C_14
REMARK   11  A    between atoms: C_15  and  C_27
REMARK   12  A    between atoms: C_19  and  O_26
REMARK   13  A    between atoms: C_21  and  O_25
REMARK   14  A    between atoms: C_29  and  O_34
REMARK   15  A    between atoms: C_30  and  O_33
REMARK   16  A    between atoms: C_35  and  O_36
REMARK   17  A    between atoms: C_40  and  O_41
REMARK                            x       y       z     vdW  Elec       q    Type
REMARK                         _______ _______ _______ _____ _____    ______ ____
ROOT
ATOM      1  C   UNL     1       8.231   0.816  23.619  0.00  0.00    +0.221 C 
ATOM      2  C   UNL     1       7.808  -0.264  24.648  0.00  0.00    +0.340 C 
ATOM      3  O   UNL     1       8.890  -1.157  24.950  0.00  0.00    -0.331 OA
ATOM      4  C   UNL     1       9.551  -1.774  23.837  0.00  0.00    +0.179 C 
ATOM      5  C   UNL     1       9.915  -0.799  22.702  0.00  0.00    +0.177 C 
ATOM      6  C   UNL     1       8.735   0.122  22.349  0.00  0.00    +0.180 C 
ENDROOT
BRANCH   6   7
ATOM      7  O   UNL     1       9.130   1.073  21.349  0.00  0.00    -0.386 OA
ATOM      8  H   UNL     1       9.899   0.722  20.869  0.00  0.00    +0.210 HD
ENDBRANCH   6   7
BRANCH   5   9
ATOM      9  O   UNL     1      10.390  -1.514  21.556  0.00  0.00    -0.386 OA
ATOM     10  H   UNL     1      10.143  -2.450  21.636  0.00  0.00    +0.210 HD
ENDBRANCH   5   9
BRANCH   4  11
ATOM     11  C   UNL     1       8.769  -3.012  23.376  0.00  0.00    +0.190 C 
BRANCH  11  12
ATOM     12  O   UNL     1       8.786  -4.023  24.387  0.00  0.00    -0.392 OA
ATOM     13  H   UNL     1       9.340  -3.683  25.116  0.00  0.00    +0.210 HD
ENDBRANCH  11  12
ENDBRANCH   4  11
BRANCH   2  14
ATOM     14  O   UNL     1       6.625  -0.936  24.190  0.00  0.00    -0.453 OA
BRANCH  14  15
ATOM     15  C   UNL     1       5.610  -1.164  25.123  0.00  0.00    +0.214 A 
ATOM     16  C   UNL     1       5.285  -0.157  26.194  0.00  0.00    +0.238 A 
ATOM     17  O   UNL     1       5.621   1.017  26.101  0.00  0.00    -0.283 OA
ATOM     18  C   UNL     1       4.478  -0.628  27.334  0.00  0.00    +0.109 A 
ATOM     19  C   UNL     1       3.745  -1.795  27.145  0.00  0.00    +0.147 A 
ATOM     20  C   UNL     1       2.850  -2.237  28.125  0.00  0.00    +0.092 A 
ATOM     21  C   UNL     1       2.714  -1.506  29.301  0.00  0.00    +0.124 A 
ATOM     22  C   UNL     1       3.480  -0.368  29.530  0.00  0.00    +0.091 A 
ATOM     23  O   UNL     1       3.850  -2.561  26.016  0.00  0.00    -0.451 OA
ATOM     24  C   UNL     1       4.370   0.067  28.548  0.00  0.00    +0.135 A 
ATOM     25  C   UNL     1       4.878  -2.302  25.115  0.00  0.00    +0.181 A 
BRANCH  25  26
ATOM     26  C   UNL     1       5.140  -3.476  24.225  0.00  0.00    +0.025 A 
ATOM     27  C   UNL     1       5.343  -4.741  24.823  0.00  0.00    +0.015 A 
ATOM     28  C   UNL     1       5.719  -5.859  24.070  0.00  0.00    +0.050 A 
ATOM     29  C   UNL     1       5.882  -5.727  22.705  0.00  0.00    +0.158 A 
ATOM     30  C   UNL     1       5.638  -4.507  22.084  0.00  0.00    +0.159 A 
ATOM     31  C   UNL     1       5.260  -3.383  22.827  0.00  0.00    +0.060 A 
BRANCH  30  32
ATOM     32  O   UNL     1       5.807  -4.452  20.728  0.00  0.00    -0.503 OA
ATOM     33  H   UNL     1       6.307  -3.646  20.517  0.00  0.00    +0.292 HD
ENDBRANCH  30  32
BRANCH  29  34
ATOM     34  O   UNL     1       6.298  -6.806  21.979  0.00  0.00    -0.503 OA
ATOM     35  H   UNL     1       6.779  -7.368  22.618  0.00  0.00    +0.292 HD
ENDBRANCH  29  34
ENDBRANCH  25  26
BRANCH  24  36
ATOM     36  O   UNL     1       5.150   1.158  28.806  0.00  0.00    -0.506 OA
ATOM     37  H   UNL     1       4.611   1.965  28.801  0.00  0.00    +0.292 HD
ENDBRANCH  24  36
BRANCH  21  38
ATOM     38  O   UNL     1       1.836  -1.879  30.276  0.00  0.00    -0.507 OA
ATOM     39  H   UNL     1       1.214  -2.530  29.914  0.00  0.00    +0.292 HD
ENDBRANCH  21  38
ENDBRANCH  14  15
ENDBRANCH   2  14
BRANCH   1  40
ATOM     40  O   UNL     1       9.232   1.640  24.262  0.00  0.00    -0.337 OA
BRANCH  40  43
ATOM     41  C   UNL     1       7.313   4.455  23.849  0.00  0.00    +0.202 C 
ATOM     42  O   UNL     1       7.435   3.132  24.410  0.00  0.00    -0.346 OA
ATOM     43  C   UNL     1       8.816   2.902  24.769  0.00  0.00    +0.282 C 
ATOM     44  C   UNL     1       9.608   4.070  24.158  0.00  0.00    +0.206 C 
ATOM     45  C   UNL     1       8.592   5.197  24.222  0.00  0.00    +0.142 C 
BRANCH  45  46
ATOM     46  O   UNL     1       8.518   5.708  25.572  0.00  0.00    -0.381 OA
ATOM     47  H   UNL     1       9.426   5.869  25.894  0.00  0.00    +0.210 HD
ENDBRANCH  45  46
BRANCH  44  48
ATOM     48  O   UNL     1       9.968   3.770  22.798  0.00  0.00    -0.384 OA
ATOM     49  H   UNL     1      10.934   3.908  22.716  0.00  0.00    +0.210 HD
ENDBRANCH  44  48
BRANCH  45  50
ATOM     50  C   UNL     1       8.895   6.372  23.295  0.00  0.00    +0.195 C 
BRANCH  50  51
ATOM     51  O   UNL     1       8.344   6.131  21.997  0.00  0.00    -0.392 OA
ATOM     52  H   UNL     1       9.050   6.371  21.367  0.00  0.00    +0.210 HD
ENDBRANCH  50  51
ENDBRANCH  45  50
ENDBRANCH  40  43
ENDBRANCH   1  40
TORSDOF 17
ENDMDL
MODEL 8
REMARK VINA RESULT:      -6.3      2.277      6.422
REMARK  Name = 
REMARK  17 active torsions:
REMARK  status: ('A' for Active; 'I' for Inactive)
REMARK    1  A    between atoms: C_2  and  C_40
REMARK    2  A    between atoms: C_2  and  O_42
REMARK    3  A    between atoms: C_3  and  O_39
REMARK    4  A    between atoms: C_4  and  O_6
REMARK    5  A    between atoms: O_6  and  C_7
REMARK    6  A    between atoms: C_8  and  O_38
REMARK    7  A    between atoms: C_9  and  O_37
REMARK    8  A    between atoms: C_10  and  C_35
REMARK    9  A    between atoms: C_12  and  O_13
REMARK   10  A    between atoms: O_13  and  C_14
REMARK   11  A    between atoms: C_15  and  C_27
REMARK   12  A    between atoms: C_19  and  O_26
REMARK   13  A    between atoms: C_21  and  O_25
REMARK   14  A    between atoms: C_29  and  O_34
REMARK   15  A    between atoms: C_30  and  O_33
REMARK   16  A    between atoms: C_35  and  O_36
REMARK   17  A    between atoms: C_40  and  O_41
REMARK                            x       y       z     vdW  Elec       q    Type
REMARK                         _______ _______ _______ _____ _____    ______ ____
ROOT
ATOM      1  C   UNL     1       8.141  -1.819  24.374  0.00  0.00    +0.221 C 
ATOM      2  C   UNL     1       7.420  -1.898  25.744  0.00  0.00    +0.340 C 
ATOM      3  O   UNL     1       8.209  -2.598  26.717  0.00  0.00    -0.331 OA
ATOM      4  C   UNL     1       8.697  -3.894  26.345  0.00  0.00    +0.179 C 
ATOM      5  C   UNL     1       9.336  -3.948  24.945  0.00  0.00    +0.177 C 
ATOM      6  C   UNL     1       8.460  -3.240  23.898  0.00  0.00    +0.180 C 
ENDROOT
BRANCH   6   7
ATOM      7  O   UNL     1       9.119  -3.234  22.623  0.00  0.00    -0.386 OA
ATOM      8  H   UNL     1       9.849  -2.592  22.649  0.00  0.00    +0.210 HD
ENDBRANCH   6   7
BRANCH   5   9
ATOM      9  O   UNL     1       9.619  -5.301  24.571  0.00  0.00    -0.386 OA
ATOM     10  H   UNL     1      10.581  -5.442  24.577  0.00  0.00    +0.210 HD
ENDBRANCH   5   9
BRANCH   4  11
ATOM     11  C   UNL     1       7.615  -4.956  26.584  0.00  0.00    +0.190 C 
BRANCH  11  12
ATOM     12  O   UNL     1       8.106  -5.991  27.440  0.00  0.00    -0.392 OA
ATOM     13  H   UNL     1       7.795  -6.838  27.065  0.00  0.00    +0.210 HD
ENDBRANCH  11  12
ENDBRANCH   4  11
BRANCH   2  14
ATOM     14  O   UNL     1       6.107  -2.453  25.571  0.00  0.00    -0.453 OA
BRANCH  14  15
ATOM     15  C   UNL     1       5.033  -1.759  26.134  0.00  0.00    +0.214 A 
ATOM     16  C   UNL     1       4.832  -0.287  25.887  0.00  0.00    +0.238 A 
ATOM     17  O   UNL     1       5.353   0.287  24.940  0.00  0.00    -0.283 OA
ATOM     18  C   UNL     1       3.917   0.426  26.796  0.00  0.00    +0.109 A 
ATOM     19  C   UNL     1       3.015  -0.350  27.516  0.00  0.00    +0.147 A 
ATOM     20  C   UNL     1       2.024   0.254  28.297  0.00  0.00    +0.092 A 
ATOM     21  C   UNL     1       1.961   1.643  28.361  0.00  0.00    +0.124 A 
ATOM     22  C   UNL     1       2.889   2.433  27.693  0.00  0.00    +0.091 A 
ATOM     23  O   UNL     1       3.040  -1.718  27.503  0.00  0.00    -0.451 OA
ATOM     24  C   UNL     1       3.874   1.824  26.915  0.00  0.00    +0.135 A 
ATOM     25  C   UNL     1       4.130  -2.370  26.934  0.00  0.00    +0.181 A 
BRANCH  25  26
ATOM     26  C   UNL     1       4.236  -3.785  27.410  0.00  0.00    +0.025 A 
ATOM     27  C   UNL     1       4.740  -4.021  28.710  0.00  0.00    +0.015 A 
ATOM     28  C   UNL     1       4.989  -5.316  29.179  0.00  0.00    +0.050 A 
ATOM     29  C   UNL     1       4.722  -6.392  28.356  0.00  0.00    +0.158 A 
ATOM     30  C   UNL     1       4.176  -6.191  27.092  0.00  0.00    +0.159 A 
ATOM     31  C   UNL     1       3.921  -4.901  26.615  0.00  0.00    +0.060 A 
BRANCH  30  32
ATOM     32  O   UNL     1       3.924  -7.303  26.337  0.00  0.00    -0.503 OA
ATOM     33  H   UNL     1       2.985  -7.531  26.439  0.00  0.00    +0.292 HD
ENDBRANCH  30  32
BRANCH  29  34
ATOM     34  O   UNL     1       5.012  -7.652  28.795  0.00  0.00    -0.503 OA
ATOM     35  H   UNL     1       5.953  -7.786  28.566  0.00  0.00    +0.292 HD
ENDBRANCH  29  34
ENDBRANCH  25  26
BRANCH  24  36
ATOM     36  O   UNL     1       4.808   2.611  26.303  0.00  0.00    -0.506 OA
ATOM     37  H   UNL     1       5.634   2.116  26.177  0.00  0.00    +0.292 HD
ENDBRANCH  24  36
BRANCH  21  38
ATOM     38  O   UNL     1       0.998   2.281  29.086  0.00  0.00    -0.507 OA
ATOM     39  H   UNL     1       1.125   2.086  30.029  0.00  0.00    +0.292 HD
ENDBRANCH  21  38
ENDBRANCH  14  15
ENDBRANCH   2  14
BRANCH   1  40
ATOM     40  O   UNL     1       9.317  -0.998  24.566  0.00  0.00    -0.337 OA
BRANCH  40  43
ATOM     41  C   UNL     1      10.723   2.033  23.788  0.00  0.00    +0.202 C 
ATOM     42  O   UNL     1      10.875   0.602  23.867  0.00  0.00    -0.346 OA
ATOM     43  C   UNL     1       9.603  -0.019  23.574  0.00  0.00    +0.282 C 
ATOM     44  C   UNL     1       8.572   1.122  23.562  0.00  0.00    +0.206 C 
ATOM     45  C   UNL     1       9.409   2.286  23.059  0.00  0.00    +0.142 C 
BRANCH  45  46
ATOM     46  O   UNL     1       9.582   2.176  21.628  0.00  0.00    -0.381 OA
ATOM     47  H   UNL     1       8.733   2.386  21.194  0.00  0.00    +0.210 HD
ENDBRANCH  45  46
BRANCH  44  48
ATOM     48  O   UNL     1       8.086   1.369  24.893  0.00  0.00    -0.384 OA
ATOM     49  H   UNL     1       8.190   2.326  25.067  0.00  0.00    +0.210 HD
ENDBRANCH  44  48
BRANCH  45  50
ATOM     50  C   UNL     1       8.815   3.662  23.352  0.00  0.00    +0.195 C 
BRANCH  50  51
ATOM     51  O   UNL     1       8.118   4.152  22.203  0.00  0.00    -0.392 OA
ATOM     52  H   UNL     1       7.185   3.898  22.337  0.00  0.00    +0.210 HD
ENDBRANCH  50  51
ENDBRANCH  45  50
ENDBRANCH  40  43
ENDBRANCH   1  40
TORSDOF 17
ENDMDL
MODEL 9
REMARK VINA RESULT:      -6.3      2.383      8.086
REMARK  Name = 
REMARK  17 active torsions:
REMARK  status: ('A' for Active; 'I' for Inactive)
REMARK    1  A    between atoms: C_2  and  C_40
REMARK    2  A    between atoms: C_2  and  O_42
REMARK    3  A    between atoms: C_3  and  O_39
REMARK    4  A    between atoms: C_4  and  O_6
REMARK    5  A    between atoms: O_6  and  C_7
REMARK    6  A    between atoms: C_8  and  O_38
REMARK    7  A    between atoms: C_9  and  O_37
REMARK    8  A    between atoms: C_10  and  C_35
REMARK    9  A    between atoms: C_12  and  O_13
REMARK   10  A    between atoms: O_13  and  C_14
REMARK   11  A    between atoms: C_15  and  C_27
REMARK   12  A    between atoms: C_19  and  O_26
REMARK   13  A    between atoms: C_21  and  O_25
REMARK   14  A    between atoms: C_29  and  O_34
REMARK   15  A    between atoms: C_30  and  O_33
REMARK   16  A    between atoms: C_35  and  O_36
REMARK   17  A    between atoms: C_40  and  O_41
REMARK                            x       y       z     vdW  Elec       q    Type
REMARK                         _______ _______ _______ _____ _____    ______ ____
ROOT
ATOM      1  C   UNL     1       7.740   0.865  24.004  0.00  0.00    +0.221 C 
ATOM      2  C   UNL     1       7.870  -0.464  24.793  0.00  0.00    +0.340 C 
ATOM      3  O   UNL     1       9.164  -1.058  24.617  0.00  0.00    -0.331 OA
ATOM      4  C   UNL     1       9.613  -1.245  23.268  0.00  0.00    +0.179 C 
ATOM      5  C   UNL     1       9.423  -0.012  22.365  0.00  0.00    +0.177 C 
ATOM      6  C   UNL     1       8.016   0.591  22.522  0.00  0.00    +0.180 C 
ENDROOT
BRANCH   6   7
ATOM      7  O   UNL     1       7.898   1.784  21.733  0.00  0.00    -0.386 OA
ATOM      8  H   UNL     1       6.961   2.044  21.695  0.00  0.00    +0.210 HD
ENDBRANCH   6   7
BRANCH   5   9
ATOM      9  O   UNL     1       9.712  -0.336  21.001  0.00  0.00    -0.386 OA
ATOM     10  H   UNL     1       9.980  -1.268  20.942  0.00  0.00    +0.210 HD
ENDBRANCH   5   9
BRANCH   4  11
ATOM     11  C   UNL     1       9.031  -2.542  22.690  0.00  0.00    +0.190 C 
BRANCH  11  12
ATOM     12  O   UNL     1       7.812  -2.279  21.992  0.00  0.00    -0.392 OA
ATOM     13  H   UNL     1       7.131  -2.104  22.670  0.00  0.00    +0.210 HD
ENDBRANCH  11  12
ENDBRANCH   4  11
BRANCH   2  14
ATOM     14  O   UNL     1       6.788  -1.342  24.448  0.00  0.00    -0.453 OA
BRANCH  14  15
ATOM     15  C   UNL     1       6.404  -2.296  25.395  0.00  0.00    +0.214 A 
ATOM     16  C   UNL     1       6.384  -3.766  25.067  0.00  0.00    +0.238 A 
ATOM     17  O   UNL     1       7.012  -4.227  24.123  0.00  0.00    -0.283 OA
ATOM     18  C   UNL     1       5.628  -4.645  25.977  0.00  0.00    +0.109 A 
ATOM     19  C   UNL     1       5.358  -4.150  27.249  0.00  0.00    +0.147 A 
ATOM     20  C   UNL     1       4.767  -4.967  28.218  0.00  0.00    +0.092 A 
ATOM     21  C   UNL     1       4.433  -6.277  27.890  0.00  0.00    +0.124 A 
ATOM     22  C   UNL     1       4.644  -6.771  26.608  0.00  0.00    +0.091 A 
ATOM     23  O   UNL     1       5.650  -2.865  27.621  0.00  0.00    -0.451 OA
ATOM     24  C   UNL     1       5.235  -5.951  25.647  0.00  0.00    +0.135 A 
ATOM     25  C   UNL     1       6.025  -1.947  26.645  0.00  0.00    +0.181 A 
BRANCH  25  26
ATOM     26  C   UNL     1       5.845  -0.538  27.116  0.00  0.00    +0.025 A 
ATOM     27  C   UNL     1       4.637   0.127  26.802  0.00  0.00    +0.015 A 
ATOM     28  C   UNL     1       4.445   1.482  27.095  0.00  0.00    +0.050 A 
ATOM     29  C   UNL     1       5.457   2.185  27.720  0.00  0.00    +0.158 A 
ATOM     30  C   UNL     1       6.635   1.542  28.088  0.00  0.00    +0.159 A 
ATOM     31  C   UNL     1       6.836   0.188  27.801  0.00  0.00    +0.060 A 
BRANCH  30  32
ATOM     32  O   UNL     1       7.587   2.297  28.715  0.00  0.00    -0.503 OA
ATOM     33  H   UNL     1       8.442   1.844  28.622  0.00  0.00    +0.292 HD
ENDBRANCH  30  32
BRANCH  29  34
ATOM     34  O   UNL     1       5.288   3.518  27.960  0.00  0.00    -0.503 OA
ATOM     35  H   UNL     1       5.575   3.645  28.886  0.00  0.00    +0.292 HD
ENDBRANCH  29  34
ENDBRANCH  25  26
BRANCH  24  36
ATOM     36  O   UNL     1       5.393  -6.433  24.379  0.00  0.00    -0.506 OA
ATOM     37  H   UNL     1       4.867  -7.240  24.258  0.00  0.00    +0.292 HD
ENDBRANCH  24  36
BRANCH  21  38
ATOM     38  O   UNL     1       3.879  -7.123  28.806  0.00  0.00    -0.507 OA
ATOM     39  H   UNL     1       4.079  -8.040  28.556  0.00  0.00    +0.292 HD
ENDBRANCH  21  38
ENDBRANCH  14  15
ENDBRANCH   2  14
BRANCH   1  40
ATOM     40  O   UNL     1       8.669   1.800  24.600  0.00  0.00    -0.337 OA
BRANCH  40  43
ATOM     41  C   UNL     1       6.825   4.521  23.615  0.00  0.00    +0.202 C 
ATOM     42  O   UNL     1       6.868   3.270  24.331  0.00  0.00    -0.346 OA
ATOM     43  C   UNL     1       8.185   3.104  24.902  0.00  0.00    +0.282 C 
ATOM     44  C   UNL     1       9.054   4.209  24.280  0.00  0.00    +0.206 C 
ATOM     45  C   UNL     1       8.038   5.321  24.076  0.00  0.00    +0.142 C 
BRANCH  45  46
ATOM     46  O   UNL     1       7.776   5.975  25.338  0.00  0.00    -0.381 OA
ATOM     47  H   UNL     1       8.534   5.820  25.934  0.00  0.00    +0.210 HD
ENDBRANCH  45  46
BRANCH  44  48
ATOM     48  O   UNL     1       9.601   3.768  23.026  0.00  0.00    -0.384 OA
ATOM     49  H   UNL     1      10.309   4.399  22.780  0.00  0.00    +0.210 HD
ENDBRANCH  44  48
BRANCH  45  50
ATOM     50  C   UNL     1       8.468   6.391  23.076  0.00  0.00    +0.195 C 
BRANCH  50  51
ATOM     51  O   UNL     1       7.984   6.067  21.769  0.00  0.00    -0.392 OA
ATOM     52  H   UNL     1       8.233   6.824  21.205  0.00  0.00    +0.210 HD
ENDBRANCH  50  51
ENDBRANCH  45  50
ENDBRANCH  40  43
ENDBRANCH   1  40
TORSDOF 17
ENDMDL
