MODEL 1
REMARK VINA RESULT:      -7.6      0.000      0.000
REMARK  Name = 
REMARK  12 active torsions:
REMARK  status: ('A' for Active; 'I' for Inactive)
REMARK    1  A    between atoms: C_3  and  O_39
REMARK    2  A    between atoms: C_4  and  O_21
REMARK    3  A    between atoms: C_6  and  C_7
REMARK    4  A    between atoms: C_8  and  O_20
REMARK    5  A    between atoms: C_12  and  O_19
REMARK    6  A    between atoms: C_14  and  O_18
REMARK    7  A    between atoms: O_21  and  C_22
REMARK    8  A    between atoms: C_24  and  O_38
REMARK    9  A    between atoms: C_26  and  O_37
REMARK   10  A    between atoms: C_28  and  O_36
REMARK   11  A    between atoms: C_30  and  C_33
REMARK   12  A    between atoms: C_33  and  O_35
REMARK                            x       y       z     vdW  Elec       q    Type
REMARK                         _______ _______ _______ _____ _____    ______ ____
ROOT
ATOM      1  C   UNL     1       9.685  -1.274  22.993  0.00  0.00    +0.015 A 
ATOM      2  C   UNL     1       8.309  -1.430  23.228  0.00  0.00    +0.025 A 
ATOM      3  C   UNL     1       7.468  -0.427  22.718  0.00  0.00    +0.061 A 
ATOM      4  C   UNL     1       7.971   0.737  22.094  0.00  0.00    +0.166 A 
ATOM      5  C   UNL     1       9.342   0.907  21.976  0.00  0.00    +0.159 A 
ATOM      6  C   UNL     1      10.199  -0.114  22.394  0.00  0.00    +0.050 A 
ENDROOT
BRANCH   2   7
ATOM      7  C   UNL     1       7.756  -2.572  24.019  0.00  0.00    +0.181 A 
ATOM      8  O   UNL     1       6.878  -3.392  23.306  0.00  0.00    -0.451 OA
ATOM      9  C   UNL     1       6.240  -4.429  23.956  0.00  0.00    +0.147 A 
ATOM     10  C   UNL     1       6.524  -4.775  25.276  0.00  0.00    +0.109 A 
ATOM     11  C   UNL     1       5.870  -5.853  25.885  0.00  0.00    +0.135 A 
ATOM     12  C   UNL     1       4.914  -6.588  25.184  0.00  0.00    +0.091 A 
ATOM     13  C   UNL     1       4.626  -6.228  23.870  0.00  0.00    +0.124 A 
ATOM     14  C   UNL     1       7.499  -3.968  26.013  0.00  0.00    +0.238 A 
ATOM     15  O   UNL     1       7.801  -4.277  27.161  0.00  0.00    -0.283 OA
ATOM     16  C   UNL     1       5.282  -5.159  23.251  0.00  0.00    +0.092 A 
ATOM     17  C   UNL     1       8.043  -2.772  25.329  0.00  0.00    +0.208 A 
BRANCH  11  18
ATOM     18  O   UNL     1       6.113  -6.248  27.174  0.00  0.00    -0.506 OA
ATOM     19  H   UNL     1       5.673  -5.606  27.776  0.00  0.00    +0.292 HD
ENDBRANCH  11  18
BRANCH  13  20
ATOM     20  O   UNL     1       3.692  -6.913  23.149  0.00  0.00    -0.507 OA
ATOM     21  H   UNL     1       2.877  -6.377  23.095  0.00  0.00    +0.292 HD
ENDBRANCH  13  20
BRANCH  17  22
ATOM     22  O   UNL     1       8.805  -1.919  26.113  0.00  0.00    -0.501 OA
ATOM     23  H   UNL     1       9.423  -2.457  26.637  0.00  0.00    +0.292 HD
ENDBRANCH  17  22
ENDBRANCH   2   7
BRANCH   5  24
ATOM     24  O   UNL     1       9.861   2.089  21.537  0.00  0.00    -0.503 OA
ATOM     25  H   UNL     1      10.092   2.005  20.598  0.00  0.00    +0.292 HD
ENDBRANCH   5  24
BRANCH   4  26
ATOM     26  O   UNL     1       7.007   1.648  21.833  0.00  0.00    -0.457 OA
BRANCH  26  27
ATOM     27  C   UNL     1       6.748   2.854  22.541  0.00  0.00    +0.340 C 
ATOM     28  O   UNL     1       7.475   4.001  22.066  0.00  0.00    -0.322 OA
ATOM     29  C   UNL     1       7.719   4.959  23.119  0.00  0.00    +0.261 C 
ATOM     30  C   UNL     1       6.458   5.351  23.929  0.00  0.00    +0.185 C 
ATOM     31  C   UNL     1       5.520   4.158  24.243  0.00  0.00    +0.180 C 
ATOM     32  C   UNL     1       5.329   3.246  23.005  0.00  0.00    +0.214 C 
BRANCH  29  33
ATOM     33  C   UNL     1       8.848   4.461  24.020  0.00  0.00    +0.337 C 
ATOM     34  O   UNL     1       8.740   4.215  25.210  0.00  0.00    -0.248 OA
BRANCH  33  35
ATOM     35  O   UNL     1       9.998   4.254  23.331  0.00  0.00    -0.479 OA
ATOM     36  H   UNL     1      10.402   5.111  23.060  0.00  0.00    +0.295 HD
ENDBRANCH  33  35
ENDBRANCH  29  33
BRANCH  30  37
ATOM     37  O   UNL     1       5.735   6.318  23.144  0.00  0.00    -0.386 OA
ATOM     38  H   UNL     1       4.880   5.917  22.896  0.00  0.00    +0.210 HD
ENDBRANCH  30  37
BRANCH  31  39
ATOM     39  O   UNL     1       5.956   3.395  25.372  0.00  0.00    -0.386 OA
ATOM     40  H   UNL     1       6.907   3.186  25.336  0.00  0.00    +0.210 HD
ENDBRANCH  31  39
BRANCH  32  41
ATOM     41  O   UNL     1       4.577   3.977  22.027  0.00  0.00    -0.383 OA
ATOM     42  H   UNL     1       4.502   3.410  21.232  0.00  0.00    +0.210 HD
ENDBRANCH  32  41
ENDBRANCH  26  27
ENDBRANCH   4  26
TORSDOF 12
ENDMDL
MODEL 2
REMARK VINA RESULT:      -7.6      0.973      2.121
REMARK  Name = 
REMARK  12 active torsions:
REMARK  status: ('A' for Active; 'I' for Inactive)
REMARK    1  A    between atoms: C_3  and  O_39
REMARK    2  A    between atoms: C_4  and  O_21
REMARK    3  A    between atoms: C_6  and  C_7
REMARK    4  A    between atoms: C_8  and  O_20
REMARK    5  A    between atoms: C_12  and  O_19
REMARK    6  A    between atoms: C_14  and  O_18
REMARK    7  A    between atoms: O_21  and  C_22
REMARK    8  A    between atoms: C_24  and  O_38
REMARK    9  A    between atoms: C_26  and  O_37
REMARK   10  A    between atoms: C_28  and  O_36
REMARK   11  A    between atoms: C_30  and  C_33
REMARK   12  A    between atoms: C_33  and  O_35
REMARK                            x       y       z     vdW  Elec       q    Type
REMARK                         _______ _______ _______ _____ _____    ______ ____
ROOT
ATOM      1  C   UNL     1       9.260  -1.738  22.470  0.00  0.00    +0.015 A 
ATOM      2  C   UNL     1       8.053  -1.661  23.185  0.00  0.00    +0.025 A 
ATOM      3  C   UNL     1       7.366  -0.437  23.124  0.00  0.00    +0.061 A 
ATOM      4  C   UNL     1       7.899   0.698  22.472  0.00  0.00    +0.166 A 
ATOM      5  C   UNL     1       9.145   0.614  21.869  0.00  0.00    +0.159 A 
ATOM      6  C   UNL     1       9.811  -0.613  21.838  0.00  0.00    +0.050 A 
ENDROOT
BRANCH   2   7
ATOM      7  C   UNL     1       7.537  -2.795  24.011  0.00  0.00    +0.181 A 
ATOM      8  O   UNL     1       6.623  -3.618  23.349  0.00  0.00    -0.451 OA
ATOM      9  C   UNL     1       6.015  -4.648  24.038  0.00  0.00    +0.147 A 
ATOM     10  C   UNL     1       6.364  -4.985  25.345  0.00  0.00    +0.109 A 
ATOM     11  C   UNL     1       5.739  -6.057  25.994  0.00  0.00    +0.135 A 
ATOM     12  C   UNL     1       4.747  -6.794  25.347  0.00  0.00    +0.091 A 
ATOM     13  C   UNL     1       4.394  -6.443  24.047  0.00  0.00    +0.124 A 
ATOM     14  C   UNL     1       7.377  -4.176  26.026  0.00  0.00    +0.238 A 
ATOM     15  O   UNL     1       7.735  -4.477  27.160  0.00  0.00    -0.283 OA
ATOM     16  C   UNL     1       5.021  -5.380  23.388  0.00  0.00    +0.092 A 
ATOM     17  C   UNL     1       7.889  -2.986  25.307  0.00  0.00    +0.208 A 
BRANCH  11  18
ATOM     18  O   UNL     1       6.044  -6.443  27.273  0.00  0.00    -0.506 OA
ATOM     19  H   UNL     1       6.900  -6.023  27.520  0.00  0.00    +0.292 HD
ENDBRANCH  11  18
BRANCH  13  20
ATOM     20  O   UNL     1       3.424  -7.130  23.379  0.00  0.00    -0.507 OA
ATOM     21  H   UNL     1       3.450  -6.879  22.435  0.00  0.00    +0.292 HD
ENDBRANCH  13  20
BRANCH  17  22
ATOM     22  O   UNL     1       8.692  -2.130  26.045  0.00  0.00    -0.501 OA
ATOM     23  H   UNL     1       9.004  -2.607  26.832  0.00  0.00    +0.292 HD
ENDBRANCH  17  22
ENDBRANCH   2   7
BRANCH   5  24
ATOM     24  O   UNL     1       9.759   1.731  21.385  0.00  0.00    -0.503 OA
ATOM     25  H   UNL     1       9.921   1.617  20.434  0.00  0.00    +0.292 HD
ENDBRANCH   5  24
BRANCH   4  26
ATOM     26  O   UNL     1       7.162   1.813  22.678  0.00  0.00    -0.457 OA
BRANCH  26  27
ATOM     27  C   UNL     1       7.535   2.967  23.421  0.00  0.00    +0.340 C 
ATOM     28  O   UNL     1       6.434   3.774  23.874  0.00  0.00    -0.322 OA
ATOM     29  C   UNL     1       6.802   5.165  24.003  0.00  0.00    +0.261 C 
ATOM     30  C   UNL     1       8.092   5.409  24.824  0.00  0.00    +0.185 C 
ATOM     31  C   UNL     1       9.221   4.389  24.532  0.00  0.00    +0.180 C 
ATOM     32  C   UNL     1       8.674   2.941  24.463  0.00  0.00    +0.214 C 
BRANCH  29  33
ATOM     33  C   UNL     1       6.869   5.813  22.621  0.00  0.00    +0.337 C 
ATOM     34  O   UNL     1       7.855   6.352  22.146  0.00  0.00    -0.248 OA
BRANCH  33  35
ATOM     35  O   UNL     1       5.710   5.667  21.931  0.00  0.00    -0.479 OA
ATOM     36  H   UNL     1       5.038   6.321  22.236  0.00  0.00    +0.295 HD
ENDBRANCH  33  35
ENDBRANCH  29  33
BRANCH  30  37
ATOM     37  O   UNL     1       7.731   5.321  26.216  0.00  0.00    -0.386 OA
ATOM     38  H   UNL     1       8.043   4.456  26.546  0.00  0.00    +0.210 HD
ENDBRANCH  30  37
BRANCH  31  39
ATOM     39  O   UNL     1       9.963   4.708  23.351  0.00  0.00    -0.386 OA
ATOM     40  H   UNL     1      10.373   3.923  22.945  0.00  0.00    +0.210 HD
ENDBRANCH  31  39
BRANCH  32  41
ATOM     41  O   UNL     1       8.251   2.562  25.779  0.00  0.00    -0.383 OA
ATOM     42  H   UNL     1       9.028   2.643  26.370  0.00  0.00    +0.210 HD
ENDBRANCH  32  41
ENDBRANCH  26  27
ENDBRANCH   4  26
TORSDOF 12
ENDMDL
MODEL 3
REMARK VINA RESULT:      -7.5      1.375      2.474
REMARK  Name = 
REMARK  12 active torsions:
REMARK  status: ('A' for Active; 'I' for Inactive)
REMARK    1  A    between atoms: C_3  and  O_39
REMARK    2  A    between atoms: C_4  and  O_21
REMARK    3  A    between atoms: C_6  and  C_7
REMARK    4  A    between atoms: C_8  and  O_20
REMARK    5  A    between atoms: C_12  and  O_19
REMARK    6  A    between atoms: C_14  and  O_18
REMARK    7  A    between atoms: O_21  and  C_22
REMARK    8  A    between atoms: C_24  and  O_38
REMARK    9  A    between atoms: C_26  and  O_37
REMARK   10  A    between atoms: C_28  and  O_36
REMARK   11  A    between atoms: C_30  and  C_33
REMARK   12  A    between atoms: C_33  and  O_35
REMARK                            x       y       z     vdW  Elec       q    Type
REMARK                         _______ _______ _______ _____ _____    ______ ____
ROOT
ATOM      1  C   UNL     1       9.615  -2.706  23.732  0.00  0.00    +0.015 A 
ATOM      2  C   UNL     1       8.214  -2.733  23.827  0.00  0.00    +0.025 A 
ATOM      3  C   UNL     1       7.522  -1.698  23.177  0.00  0.00    +0.061 A 
ATOM      4  C   UNL     1       8.187  -0.620  22.549  0.00  0.00    +0.166 A 
ATOM      5  C   UNL     1       9.573  -0.572  22.570  0.00  0.00    +0.159 A 
ATOM      6  C   UNL     1      10.289  -1.632  23.131  0.00  0.00    +0.050 A 
ENDROOT
BRANCH   2   7
ATOM      7  C   UNL     1       7.484  -3.774  24.614  0.00  0.00    +0.181 A 
ATOM      8  O   UNL     1       6.576  -4.527  23.866  0.00  0.00    -0.451 OA
ATOM      9  C   UNL     1       5.783  -5.460  24.502  0.00  0.00    +0.147 A 
ATOM     10  C   UNL     1       5.933  -5.777  25.852  0.00  0.00    +0.109 A 
ATOM     11  C   UNL     1       5.123  -6.752  26.448  0.00  0.00    +0.135 A 
ATOM     12  C   UNL     1       4.145  -7.410  25.703  0.00  0.00    +0.091 A 
ATOM     13  C   UNL     1       3.992  -7.079  24.359  0.00  0.00    +0.124 A 
ATOM     14  C   UNL     1       6.935  -5.047  26.631  0.00  0.00    +0.238 A 
ATOM     15  O   UNL     1       7.119  -5.336  27.809  0.00  0.00    -0.283 OA
ATOM     16  C   UNL     1       4.803  -6.114  23.754  0.00  0.00    +0.092 A 
ATOM     17  C   UNL     1       7.654  -3.946  25.948  0.00  0.00    +0.208 A 
BRANCH  11  18
ATOM     18  O   UNL     1       5.228  -7.114  27.765  0.00  0.00    -0.506 OA
ATOM     19  H   UNL     1       4.776  -6.427  28.306  0.00  0.00    +0.292 HD
ENDBRANCH  11  18
BRANCH  13  20
ATOM     20  O   UNL     1       3.043  -7.692  23.595  0.00  0.00    -0.507 OA
ATOM     21  H   UNL     1       2.265  -7.104  23.523  0.00  0.00    +0.292 HD
ENDBRANCH  13  20
BRANCH  17  22
ATOM     22  O   UNL     1       8.447  -3.146  26.757  0.00  0.00    -0.501 OA
ATOM     23  H   UNL     1       8.180  -2.221  26.626  0.00  0.00    +0.292 HD
ENDBRANCH  17  22
ENDBRANCH   2   7
BRANCH   5  24
ATOM     24  O   UNL     1      10.236   0.534  22.127  0.00  0.00    -0.503 OA
ATOM     25  H   UNL     1      10.100   1.260  22.757  0.00  0.00    +0.292 HD
ENDBRANCH   5  24
BRANCH   4  26
ATOM     26  O   UNL     1       7.339   0.350  22.139  0.00  0.00    -0.457 OA
BRANCH  26  27
ATOM     27  C   UNL     1       7.132   1.622  22.738  0.00  0.00    +0.340 C 
ATOM     28  O   UNL     1       7.199   1.630  24.175  0.00  0.00    -0.322 OA
ATOM     29  C   UNL     1       6.376   2.670  24.748  0.00  0.00    +0.261 C 
ATOM     30  C   UNL     1       6.606   4.074  24.137  0.00  0.00    +0.185 C 
ATOM     31  C   UNL     1       6.787   4.064  22.598  0.00  0.00    +0.180 C 
ATOM     32  C   UNL     1       7.725   2.918  22.145  0.00  0.00    +0.214 C 
BRANCH  29  33
ATOM     33  C   UNL     1       4.906   2.254  24.697  0.00  0.00    +0.337 C 
ATOM     34  O   UNL     1       4.015   2.893  24.161  0.00  0.00    -0.248 OA
BRANCH  33  35
ATOM     35  O   UNL     1       4.698   1.040  25.265  0.00  0.00    -0.479 OA
ATOM     36  H   UNL     1       3.867   1.042  25.795  0.00  0.00    +0.295 HD
ENDBRANCH  33  35
ENDBRANCH  29  33
BRANCH  30  37
ATOM     37  O   UNL     1       7.798   4.609  24.744  0.00  0.00    -0.386 OA
ATOM     38  H   UNL     1       7.538   5.017  25.593  0.00  0.00    +0.210 HD
ENDBRANCH  30  37
BRANCH  31  39
ATOM     39  O   UNL     1       5.542   4.009  21.896  0.00  0.00    -0.386 OA
ATOM     40  H   UNL     1       5.218   4.892  21.642  0.00  0.00    +0.210 HD
ENDBRANCH  31  39
BRANCH  32  41
ATOM     41  O   UNL     1       9.049   3.217  22.607  0.00  0.00    -0.383 OA
ATOM     42  H   UNL     1       9.614   2.446  22.395  0.00  0.00    +0.210 HD
ENDBRANCH  32  41
ENDBRANCH  26  27
ENDBRANCH   4  26
TORSDOF 12
ENDMDL
MODEL 4
REMARK VINA RESULT:      -7.5      1.031      1.394
REMARK  Name = 
REMARK  12 active torsions:
REMARK  status: ('A' for Active; 'I' for Inactive)
REMARK    1  A    between atoms: C_3  and  O_39
REMARK    2  A    between atoms: C_4  and  O_21
REMARK    3  A    between atoms: C_6  and  C_7
REMARK    4  A    between atoms: C_8  and  O_20
REMARK    5  A    between atoms: C_12  and  O_19
REMARK    6  A    between atoms: C_14  and  O_18
REMARK    7  A    between atoms: O_21  and  C_22
REMARK    8  A    between atoms: C_24  and  O_38
REMARK    9  A    between atoms: C_26  and  O_37
REMARK   10  A    between atoms: C_28  and  O_36
REMARK   11  A    between atoms: C_30  and  C_33
REMARK   12  A    between atoms: C_33  and  O_35
REMARK                            x       y       z     vdW  Elec       q    Type
REMARK                         _______ _______ _______ _____ _____    ______ ____
ROOT
ATOM      1  C   UNL     1       9.684  -1.503  22.744  0.00  0.00    +0.015 A 
ATOM      2  C   UNL     1       8.344  -1.527  23.164  0.00  0.00    +0.025 A 
ATOM      3  C   UNL     1       7.563  -0.408  22.830  0.00  0.00    +0.061 A 
ATOM      4  C   UNL     1       8.107   0.734  22.200  0.00  0.00    +0.166 A 
ATOM      5  C   UNL     1       9.460   0.764  21.897  0.00  0.00    +0.159 A 
ATOM      6  C   UNL     1      10.243  -0.368  22.137  0.00  0.00    +0.050 A 
ENDROOT
BRANCH   2   7
ATOM      7  C   UNL     1       7.776  -2.653  23.967  0.00  0.00    +0.181 A 
ATOM      8  O   UNL     1       6.896  -3.476  23.259  0.00  0.00    -0.451 OA
ATOM      9  C   UNL     1       6.245  -4.497  23.919  0.00  0.00    +0.147 A 
ATOM     10  C   UNL     1       6.517  -4.827  25.246  0.00  0.00    +0.109 A 
ATOM     11  C   UNL     1       5.850  -5.892  25.865  0.00  0.00    +0.135 A 
ATOM     12  C   UNL     1       4.892  -6.628  25.168  0.00  0.00    +0.091 A 
ATOM     13  C   UNL     1       4.616  -6.284  23.848  0.00  0.00    +0.124 A 
ATOM     14  C   UNL     1       7.493  -4.018  25.978  0.00  0.00    +0.238 A 
ATOM     15  O   UNL     1       7.785  -4.314  27.133  0.00  0.00    -0.283 OA
ATOM     16  C   UNL     1       5.285  -5.229  23.218  0.00  0.00    +0.092 A 
ATOM     17  C   UNL     1       8.052  -2.836  25.282  0.00  0.00    +0.208 A 
BRANCH  11  18
ATOM     18  O   UNL     1       6.080  -6.270  27.162  0.00  0.00    -0.506 OA
ATOM     19  H   UNL     1       5.246  -6.140  27.669  0.00  0.00    +0.292 HD
ENDBRANCH  11  18
BRANCH  13  20
ATOM     20  O   UNL     1       3.682  -6.971  23.130  0.00  0.00    -0.507 OA
ATOM     21  H   UNL     1       3.639  -6.600  22.227  0.00  0.00    +0.292 HD
ENDBRANCH  13  20
BRANCH  17  22
ATOM     22  O   UNL     1       8.816  -1.979  26.059  0.00  0.00    -0.501 OA
ATOM     23  H   UNL     1       9.740  -2.278  26.024  0.00  0.00    +0.292 HD
ENDBRANCH  17  22
ENDBRANCH   2   7
BRANCH   5  24
ATOM     24  O   UNL     1      10.047   1.910  21.449  0.00  0.00    -0.503 OA
ATOM     25  H   UNL     1      10.826   2.103  21.996  0.00  0.00    +0.292 HD
ENDBRANCH   5  24
BRANCH   4  26
ATOM     26  O   UNL     1       7.228   1.759  22.125  0.00  0.00    -0.457 OA
BRANCH  26  27
ATOM     27  C   UNL     1       7.182   2.916  22.951  0.00  0.00    +0.340 C 
ATOM     28  O   UNL     1       8.389   3.180  23.686  0.00  0.00    -0.322 OA
ATOM     29  C   UNL     1       8.125   3.874  24.925  0.00  0.00    +0.261 C 
ATOM     30  C   UNL     1       7.236   5.133  24.774  0.00  0.00    +0.185 C 
ATOM     31  C   UNL     1       6.058   4.952  23.784  0.00  0.00    +0.180 C 
ATOM     32  C   UNL     1       6.510   4.227  22.491  0.00  0.00    +0.214 C 
BRANCH  29  33
ATOM     33  C   UNL     1       7.565   2.896  25.957  0.00  0.00    +0.337 C 
ATOM     34  O   UNL     1       6.580   3.095  26.650  0.00  0.00    -0.248 OA
BRANCH  33  35
ATOM     35  O   UNL     1       8.252   1.726  25.979  0.00  0.00    -0.479 OA
ATOM     36  H   UNL     1       7.639   0.964  26.108  0.00  0.00    +0.295 HD
ENDBRANCH  33  35
ENDBRANCH  29  33
BRANCH  30  37
ATOM     37  O   UNL     1       8.086   6.195  24.299  0.00  0.00    -0.386 OA
ATOM     38  H   UNL     1       7.527   6.814  23.790  0.00  0.00    +0.210 HD
ENDBRANCH  30  37
BRANCH  31  39
ATOM     39  O   UNL     1       4.938   4.284  24.374  0.00  0.00    -0.386 OA
ATOM     40  H   UNL     1       4.533   3.634  23.773  0.00  0.00    +0.210 HD
ENDBRANCH  31  39
BRANCH  32  41
ATOM     41  O   UNL     1       7.382   5.108  21.771  0.00  0.00    -0.383 OA
ATOM     42  H   UNL     1       8.302   4.870  22.010  0.00  0.00    +0.210 HD
ENDBRANCH  32  41
ENDBRANCH  26  27
ENDBRANCH   4  26
TORSDOF 12
ENDMDL
MODEL 5
REMARK VINA RESULT:      -7.4      1.643      8.954
REMARK  Name = 
REMARK  12 active torsions:
REMARK  status: ('A' for Active; 'I' for Inactive)
REMARK    1  A    between atoms: C_3  and  O_39
REMARK    2  A    between atoms: C_4  and  O_21
REMARK    3  A    between atoms: C_6  and  C_7
REMARK    4  A    between atoms: C_8  and  O_20
REMARK    5  A    between atoms: C_12  and  O_19
REMARK    6  A    between atoms: C_14  and  O_18
REMARK    7  A    between atoms: O_21  and  C_22
REMARK    8  A    between atoms: C_24  and  O_38
REMARK    9  A    between atoms: C_26  and  O_37
REMARK   10  A    between atoms: C_28  and  O_36
REMARK   11  A    between atoms: C_30  and  C_33
REMARK   12  A    between atoms: C_33  and  O_35
REMARK                            x       y       z     vdW  Elec       q    Type
REMARK                         _______ _______ _______ _____ _____    ______ ____
ROOT
ATOM      1  C   UNL     1       9.951  -0.885  23.010  0.00  0.00    +0.015 A 
ATOM      2  C   UNL     1       8.998  -0.204  23.786  0.00  0.00    +0.025 A 
ATOM      3  C   UNL     1       8.496  -0.889  24.905  0.00  0.00    +0.061 A 
ATOM      4  C   UNL     1       8.841  -2.230  25.188  0.00  0.00    +0.166 A 
ATOM      5  C   UNL     1       9.702  -2.905  24.337  0.00  0.00    +0.159 A 
ATOM      6  C   UNL     1      10.285  -2.223  23.267  0.00  0.00    +0.050 A 
ENDROOT
BRANCH   2   7
ATOM      7  C   UNL     1       8.497   1.158  23.426  0.00  0.00    +0.181 A 
ATOM      8  O   UNL     1       9.389   2.193  23.720  0.00  0.00    -0.451 OA
ATOM      9  C   UNL     1       9.001   3.501  23.510  0.00  0.00    +0.147 A 
ATOM     10  C   UNL     1       7.795   3.837  22.899  0.00  0.00    +0.109 A 
ATOM     11  C   UNL     1       7.457   5.179  22.682  0.00  0.00    +0.135 A 
ATOM     12  C   UNL     1       8.318   6.199  23.087  0.00  0.00    +0.091 A 
ATOM     13  C   UNL     1       9.515   5.856  23.709  0.00  0.00    +0.124 A 
ATOM     14  C   UNL     1       6.883   2.757  22.517  0.00  0.00    +0.238 A 
ATOM     15  O   UNL     1       5.834   3.022  21.937  0.00  0.00    -0.283 OA
ATOM     16  C   UNL     1       9.864   4.518  23.921  0.00  0.00    +0.092 A 
ATOM     17  C   UNL     1       7.266   1.379  22.902  0.00  0.00    +0.208 A 
BRANCH  11  18
ATOM     18  O   UNL     1       6.292   5.573  22.078  0.00  0.00    -0.506 OA
ATOM     19  H   UNL     1       5.637   4.845  22.177  0.00  0.00    +0.292 HD
ENDBRANCH  11  18
BRANCH  13  20
ATOM     20  O   UNL     1      10.383   6.821  24.130  0.00  0.00    -0.507 OA
ATOM     21  H   UNL     1      11.298   6.507  23.989  0.00  0.00    +0.292 HD
ENDBRANCH  13  20
BRANCH  17  22
ATOM     22  O   UNL     1       6.300   0.404  22.709  0.00  0.00    -0.501 OA
ATOM     23  H   UNL     1       6.526  -0.095  21.906  0.00  0.00    +0.292 HD
ENDBRANCH  17  22
ENDBRANCH   2   7
BRANCH   5  24
ATOM     24  O   UNL     1       9.917  -4.244  24.485  0.00  0.00    -0.503 OA
ATOM     25  H   UNL     1      10.476  -4.558  23.756  0.00  0.00    +0.292 HD
ENDBRANCH   5  24
BRANCH   4  26
ATOM     26  O   UNL     1       8.119  -2.751  26.207  0.00  0.00    -0.457 OA
BRANCH  26  27
ATOM     27  C   UNL     1       7.093  -3.731  26.121  0.00  0.00    +0.340 C 
ATOM     28  O   UNL     1       7.514  -5.001  25.592  0.00  0.00    -0.322 OA
ATOM     29  C   UNL     1       6.438  -5.689  24.919  0.00  0.00    +0.261 C 
ATOM     30  C   UNL     1       5.134  -5.797  25.746  0.00  0.00    +0.185 C 
ATOM     31  C   UNL     1       4.784  -4.508  26.533  0.00  0.00    +0.180 C 
ATOM     32  C   UNL     1       6.033  -3.912  27.229  0.00  0.00    +0.214 C 
BRANCH  29  33
ATOM     33  C   UNL     1       6.199  -5.059  23.547  0.00  0.00    +0.337 C 
ATOM     34  O   UNL     1       5.123  -4.649  23.142  0.00  0.00    -0.248 OA
BRANCH  33  35
ATOM     35  O   UNL     1       7.345  -4.940  22.832  0.00  0.00    -0.479 OA
ATOM     36  H   UNL     1       7.190  -5.162  21.885  0.00  0.00    +0.295 HD
ENDBRANCH  33  35
ENDBRANCH  29  33
BRANCH  30  37
ATOM     37  O   UNL     1       5.313  -6.879  26.680  0.00  0.00    -0.386 OA
ATOM     38  H   UNL     1       5.959  -6.585  27.350  0.00  0.00    +0.210 HD
ENDBRANCH  30  37
BRANCH  31  39
ATOM     39  O   UNL     1       4.138  -3.523  25.721  0.00  0.00    -0.386 OA
ATOM     40  H   UNL     1       4.155  -3.752  24.774  0.00  0.00    +0.210 HD
ENDBRANCH  31  39
BRANCH  32  41
ATOM     41  O   UNL     1       6.430  -4.810  28.273  0.00  0.00    -0.383 OA
ATOM     42  H   UNL     1       6.633  -5.673  27.857  0.00  0.00    +0.210 HD
ENDBRANCH  32  41
ENDBRANCH  26  27
ENDBRANCH   4  26
TORSDOF 12
ENDMDL
MODEL 6
REMARK VINA RESULT:      -7.4      1.343      3.139
REMARK  Name = 
REMARK  12 active torsions:
REMARK  status: ('A' for Active; 'I' for Inactive)
REMARK    1  A    between atoms: C_3  and  O_39
REMARK    2  A    between atoms: C_4  and  O_21
REMARK    3  A    between atoms: C_6  and  C_7
REMARK    4  A    between atoms: C_8  and  O_20
REMARK    5  A    between atoms: C_12  and  O_19
REMARK    6  A    between atoms: C_14  and  O_18
REMARK    7  A    between atoms: O_21  and  C_22
REMARK    8  A    between atoms: C_24  and  O_38
REMARK    9  A    between atoms: C_26  and  O_37
REMARK   10  A    between atoms: C_28  and  O_36
REMARK   11  A    between atoms: C_30  and  C_33
REMARK   12  A    between atoms: C_33  and  O_35
REMARK                            x       y       z     vdW  Elec       q    Type
REMARK                         _______ _______ _______ _____ _____    ______ ____
ROOT
ATOM      1  C   UNL     1       8.976  -1.726  22.083  0.00  0.00    +0.015 A 
ATOM      2  C   UNL     1       7.678  -1.578  22.600  0.00  0.00    +0.025 A 
ATOM      3  C   UNL     1       7.138  -0.281  22.575  0.00  0.00    +0.061 A 
ATOM      4  C   UNL     1       7.887   0.842  22.156  0.00  0.00    +0.166 A 
ATOM      5  C   UNL     1       9.203   0.671  21.754  0.00  0.00    +0.159 A 
ATOM      6  C   UNL     1       9.738  -0.617  21.684  0.00  0.00    +0.050 A 
ENDROOT
BRANCH   2   7
ATOM      7  C   UNL     1       6.916  -2.719  23.193  0.00  0.00    +0.181 A 
ATOM      8  O   UNL     1       7.294  -3.045  24.499  0.00  0.00    -0.451 OA
ATOM      9  C   UNL     1       6.719  -4.136  25.118  0.00  0.00    +0.147 A 
ATOM     10  C   UNL     1       5.680  -4.864  24.542  0.00  0.00    +0.109 A 
ATOM     11  C   UNL     1       5.108  -5.947  25.222  0.00  0.00    +0.135 A 
ATOM     12  C   UNL     1       5.581  -6.322  26.479  0.00  0.00    +0.091 A 
ATOM     13  C   UNL     1       6.628  -5.598  27.042  0.00  0.00    +0.124 A 
ATOM     14  C   UNL     1       5.223  -4.486  23.203  0.00  0.00    +0.238 A 
ATOM     15  O   UNL     1       4.280  -5.081  22.691  0.00  0.00    -0.283 OA
ATOM     16  C   UNL     1       7.198  -4.509  26.374  0.00  0.00    +0.092 A 
ATOM     17  C   UNL     1       5.971  -3.411  22.511  0.00  0.00    +0.208 A 
BRANCH  11  18
ATOM     18  O   UNL     1       4.079  -6.695  24.713  0.00  0.00    -0.506 OA
ATOM     19  H   UNL     1       3.329  -6.652  25.349  0.00  0.00    +0.292 HD
ENDBRANCH  11  18
BRANCH  13  20
ATOM     20  O   UNL     1       7.128  -5.934  28.266  0.00  0.00    -0.507 OA
ATOM     21  H   UNL     1       7.499  -5.134  28.688  0.00  0.00    +0.292 HD
ENDBRANCH  13  20
BRANCH  17  22
ATOM     22  O   UNL     1       5.649  -3.210  21.178  0.00  0.00    -0.501 OA
ATOM     23  H   UNL     1       4.785  -3.621  21.007  0.00  0.00    +0.292 HD
ENDBRANCH  17  22
ENDBRANCH   2   7
BRANCH   5  24
ATOM     24  O   UNL     1      10.001   1.749  21.509  0.00  0.00    -0.503 OA
ATOM     25  H   UNL     1       9.589   2.542  21.890  0.00  0.00    +0.292 HD
ENDBRANCH   5  24
BRANCH   4  26
ATOM     26  O   UNL     1       7.241   2.011  22.372  0.00  0.00    -0.457 OA
BRANCH  26  27
ATOM     27  C   UNL     1       7.628   3.058  23.253  0.00  0.00    +0.340 C 
ATOM     28  O   UNL     1       6.538   3.837  23.779  0.00  0.00    -0.322 OA
ATOM     29  C   UNL     1       6.939   5.191  24.078  0.00  0.00    +0.261 C 
ATOM     30  C   UNL     1       8.218   5.301  24.945  0.00  0.00    +0.185 C 
ATOM     31  C   UNL     1       9.326   4.291  24.556  0.00  0.00    +0.180 C 
ATOM     32  C   UNL     1       8.743   2.878  24.305  0.00  0.00    +0.214 C 
BRANCH  29  33
ATOM     33  C   UNL     1       7.052   5.996  22.784  0.00  0.00    +0.337 C 
ATOM     34  O   UNL     1       8.072   6.529  22.376  0.00  0.00    -0.248 OA
BRANCH  33  35
ATOM     35  O   UNL     1       5.891   6.003  22.083  0.00  0.00    -0.479 OA
ATOM     36  H   UNL     1       6.056   5.809  21.131  0.00  0.00    +0.295 HD
ENDBRANCH  33  35
ENDBRANCH  29  33
BRANCH  30  37
ATOM     37  O   UNL     1       7.825   5.059  26.310  0.00  0.00    -0.386 OA
ATOM     38  H   UNL     1       8.276   4.245  26.606  0.00  0.00    +0.210 HD
ENDBRANCH  30  37
BRANCH  31  39
ATOM     39  O   UNL     1      10.101   4.726  23.434  0.00  0.00    -0.386 OA
ATOM     40  H   UNL     1      11.048   4.813  23.646  0.00  0.00    +0.210 HD
ENDBRANCH  31  39
BRANCH  32  41
ATOM     41  O   UNL     1       8.283   2.358  25.559  0.00  0.00    -0.383 OA
ATOM     42  H   UNL     1       7.647   3.005  25.928  0.00  0.00    +0.210 HD
ENDBRANCH  32  41
ENDBRANCH  26  27
ENDBRANCH   4  26
TORSDOF 12
ENDMDL
MODEL 7
REMARK VINA RESULT:      -7.3      1.509      2.042
REMARK  Name = 
REMARK  12 active torsions:
REMARK  status: ('A' for Active; 'I' for Inactive)
REMARK    1  A    between atoms: C_3  and  O_39
REMARK    2  A    between atoms: C_4  and  O_21
REMARK    3  A    between atoms: C_6  and  C_7
REMARK    4  A    between atoms: C_8  and  O_20
REMARK    5  A    between atoms: C_12  and  O_19
REMARK    6  A    between atoms: C_14  and  O_18
REMARK    7  A    between atoms: O_21  and  C_22
REMARK    8  A    between atoms: C_24  and  O_38
REMARK    9  A    between atoms: C_26  and  O_37
REMARK   10  A    between atoms: C_28  and  O_36
REMARK   11  A    between atoms: C_30  and  C_33
REMARK   12  A    between atoms: C_33  and  O_35
REMARK                            x       y       z     vdW  Elec       q    Type
REMARK                         _______ _______ _______ _____ _____    ______ ____
ROOT
ATOM      1  C   UNL     1       9.266  -1.468  22.216  0.00  0.00    +0.015 A 
ATOM      2  C   UNL     1       8.049  -1.430  22.916  0.00  0.00    +0.025 A 
ATOM      3  C   UNL     1       7.364  -0.203  22.916  0.00  0.00    +0.061 A 
ATOM      4  C   UNL     1       7.909   0.967  22.339  0.00  0.00    +0.166 A 
ATOM      5  C   UNL     1       9.163   0.915  21.751  0.00  0.00    +0.159 A 
ATOM      6  C   UNL     1       9.828  -0.310  21.658  0.00  0.00    +0.050 A 
ENDROOT
BRANCH   2   7
ATOM      7  C   UNL     1       7.519  -2.609  23.667  0.00  0.00    +0.181 A 
ATOM      8  O   UNL     1       6.559  -3.348  22.972  0.00  0.00    -0.451 OA
ATOM      9  C   UNL     1       5.937  -4.409  23.598  0.00  0.00    +0.147 A 
ATOM     10  C   UNL     1       6.311  -4.859  24.863  0.00  0.00    +0.109 A 
ATOM     11  C   UNL     1       5.669  -5.958  25.446  0.00  0.00    +0.135 A 
ATOM     12  C   UNL     1       4.635  -6.610  24.775  0.00  0.00    +0.091 A 
ATOM     13  C   UNL     1       4.257  -6.148  23.518  0.00  0.00    +0.124 A 
ATOM     14  C   UNL     1       7.370  -4.138  25.572  0.00  0.00    +0.238 A 
ATOM     15  O   UNL     1       7.751  -4.539  26.668  0.00  0.00    -0.283 OA
ATOM     16  C   UNL     1       4.900  -5.056  22.924  0.00  0.00    +0.092 A 
ATOM     17  C   UNL     1       7.901  -2.912  24.932  0.00  0.00    +0.208 A 
BRANCH  11  18
ATOM     18  O   UNL     1       5.998  -6.453  26.680  0.00  0.00    -0.506 OA
ATOM     19  H   UNL     1       5.215  -6.350  27.268  0.00  0.00    +0.292 HD
ENDBRANCH  11  18
BRANCH  13  20
ATOM     20  O   UNL     1       3.245  -6.749  22.829  0.00  0.00    -0.507 OA
ATOM     21  H   UNL     1       2.500  -6.914  23.439  0.00  0.00    +0.292 HD
ENDBRANCH  13  20
BRANCH  17  22
ATOM     22  O   UNL     1       8.753  -2.142  25.710  0.00  0.00    -0.501 OA
ATOM     23  H   UNL     1       9.664  -2.297  25.409  0.00  0.00    +0.292 HD
ENDBRANCH  17  22
ENDBRANCH   2   7
BRANCH   5  24
ATOM     24  O   UNL     1       9.786   2.057  21.341  0.00  0.00    -0.503 OA
ATOM     25  H   UNL     1      10.645   1.827  20.949  0.00  0.00    +0.292 HD
ENDBRANCH   5  24
BRANCH   4  26
ATOM     26  O   UNL     1       7.170   2.070  22.598  0.00  0.00    -0.457 OA
BRANCH  26  27
ATOM     27  C   UNL     1       6.631   2.470  23.852  0.00  0.00    +0.340 C 
ATOM     28  O   UNL     1       7.609   2.866  24.830  0.00  0.00    -0.322 OA
ATOM     29  C   UNL     1       7.153   2.620  26.178  0.00  0.00    +0.261 C 
ATOM     30  C   UNL     1       5.744   3.183  26.488  0.00  0.00    +0.185 C 
ATOM     31  C   UNL     1       4.726   2.988  25.336  0.00  0.00    +0.180 C 
ATOM     32  C   UNL     1       5.353   3.328  23.961  0.00  0.00    +0.214 C 
BRANCH  29  33
ATOM     33  C   UNL     1       7.259   1.129  26.496  0.00  0.00    +0.337 C 
ATOM     34  O   UNL     1       6.344   0.433  26.907  0.00  0.00    -0.248 OA
BRANCH  33  35
ATOM     35  O   UNL     1       8.486   0.630  26.206  0.00  0.00    -0.479 OA
ATOM     36  H   UNL     1       8.413  -0.276  25.825  0.00  0.00    +0.295 HD
ENDBRANCH  33  35
ENDBRANCH  29  33
BRANCH  30  37
ATOM     37  O   UNL     1       5.899   4.593  26.740  0.00  0.00    -0.386 OA
ATOM     38  H   UNL     1       6.304   4.691  27.624  0.00  0.00    +0.210 HD
ENDBRANCH  30  37
BRANCH  31  39
ATOM     39  O   UNL     1       4.152   1.678  25.322  0.00  0.00    -0.386 OA
ATOM     40  H   UNL     1       3.731   1.446  26.169  0.00  0.00    +0.210 HD
ENDBRANCH  31  39
BRANCH  32  41
ATOM     41  O   UNL     1       5.594   4.741  23.920  0.00  0.00    -0.383 OA
ATOM     42  H   UNL     1       4.790   5.185  24.260  0.00  0.00    +0.210 HD
ENDBRANCH  32  41
ENDBRANCH  26  27
ENDBRANCH   4  26
TORSDOF 12
ENDMDL
MODEL 8
REMARK VINA RESULT:      -7.3      1.658      3.092
REMARK  Name = 
REMARK  12 active torsions:
REMARK  status: ('A' for Active; 'I' for Inactive)
REMARK    1  A    between atoms: C_3  and  O_39
REMARK    2  A    between atoms: C_4  and  O_21
REMARK    3  A    between atoms: C_6  and  C_7
REMARK    4  A    between atoms: C_8  and  O_20
REMARK    5  A    between atoms: C_12  and  O_19
REMARK    6  A    between atoms: C_14  and  O_18
REMARK    7  A    between atoms: O_21  and  C_22
REMARK    8  A    between atoms: C_24  and  O_38
REMARK    9  A    between atoms: C_26  and  O_37
REMARK   10  A    between atoms: C_28  and  O_36
REMARK   11  A    between atoms: C_30  and  C_33
REMARK   12  A    between atoms: C_33  and  O_35
REMARK                            x       y       z     vdW  Elec       q    Type
REMARK                         _______ _______ _______ _____ _____    ______ ____
ROOT
ATOM      1  C   UNL     1       9.214  -2.435  23.306  0.00  0.00    +0.015 A 
ATOM      2  C   UNL     1       7.887  -2.288  23.746  0.00  0.00    +0.025 A 
ATOM      3  C   UNL     1       7.488  -0.991  24.111  0.00  0.00    +0.061 A 
ATOM      4  C   UNL     1       8.390   0.097  24.142  0.00  0.00    +0.166 A 
ATOM      5  C   UNL     1       9.718  -0.110  23.804  0.00  0.00    +0.159 A 
ATOM      6  C   UNL     1      10.124  -1.368  23.353  0.00  0.00    +0.050 A 
ENDROOT
BRANCH   2   7
ATOM      7  C   UNL     1       6.952  -3.447  23.870  0.00  0.00    +0.181 A 
ATOM      8  O   UNL     1       6.840  -3.958  25.166  0.00  0.00    -0.451 OA
ATOM      9  C   UNL     1       6.070  -5.081  25.387  0.00  0.00    +0.147 A 
ATOM     10  C   UNL     1       5.292  -5.667  24.390  0.00  0.00    +0.109 A 
ATOM     11  C   UNL     1       4.505  -6.791  24.669  0.00  0.00    +0.135 A 
ATOM     12  C   UNL     1       4.498  -7.349  25.947  0.00  0.00    +0.091 A 
ATOM     13  C   UNL     1       5.287  -6.767  26.935  0.00  0.00    +0.124 A 
ATOM     14  C   UNL     1       5.342  -5.095  23.043  0.00  0.00    +0.238 A 
ATOM     15  O   UNL     1       4.634  -5.562  22.156  0.00  0.00    -0.283 OA
ATOM     16  C   UNL     1       6.069  -5.638  26.667  0.00  0.00    +0.092 A 
ATOM     17  C   UNL     1       6.300  -3.988  22.812  0.00  0.00    +0.208 A 
BRANCH  11  18
ATOM     18  O   UNL     1       3.713  -7.404  23.735  0.00  0.00    -0.506 OA
ATOM     19  H   UNL     1       3.202  -8.113  24.188  0.00  0.00    +0.292 HD
ENDBRANCH  11  18
BRANCH  13  20
ATOM     20  O   UNL     1       5.318  -7.285  28.197  0.00  0.00    -0.507 OA
ATOM     21  H   UNL     1       4.909  -8.172  28.186  0.00  0.00    +0.292 HD
ENDBRANCH  13  20
BRANCH  17  22
ATOM     22  O   UNL     1       6.472  -3.601  21.492  0.00  0.00    -0.501 OA
ATOM     23  H   UNL     1       5.917  -4.169  20.932  0.00  0.00    +0.292 HD
ENDBRANCH  17  22
ENDBRANCH   2   7
BRANCH   5  24
ATOM     24  O   UNL     1      10.644   0.874  23.989  0.00  0.00    -0.503 OA
ATOM     25  H   UNL     1      10.345   1.461  24.703  0.00  0.00    +0.292 HD
ENDBRANCH   5  24
BRANCH   4  26
ATOM     26  O   UNL     1       7.846   1.211  24.684  0.00  0.00    -0.457 OA
BRANCH  26  27
ATOM     27  C   UNL     1       8.015   2.553  24.245  0.00  0.00    +0.340 C 
ATOM     28  O   UNL     1       9.028   3.294  24.949  0.00  0.00    -0.322 OA
ATOM     29  C   UNL     1       8.739   4.708  24.977  0.00  0.00    +0.261 C 
ATOM     30  C   UNL     1       8.413   5.320  23.593  0.00  0.00    +0.185 C 
ATOM     31  C   UNL     1       7.516   4.419  22.706  0.00  0.00    +0.180 C 
ATOM     32  C   UNL     1       7.977   2.941  22.752  0.00  0.00    +0.214 C 
BRANCH  29  33
ATOM     33  C   UNL     1       7.642   4.993  26.004  0.00  0.00    +0.337 C 
ATOM     34  O   UNL     1       7.568   4.483  27.110  0.00  0.00    -0.248 OA
BRANCH  33  35
ATOM     35  O   UNL     1       6.774   5.942  25.574  0.00  0.00    -0.479 OA
ATOM     36  H   UNL     1       6.529   6.550  26.311  0.00  0.00    +0.295 HD
ENDBRANCH  33  35
ENDBRANCH  29  33
BRANCH  30  37
ATOM     37  O   UNL     1       9.668   5.536  22.920  0.00  0.00    -0.386 OA
ATOM     38  H   UNL     1       9.554   5.262  21.989  0.00  0.00    +0.210 HD
ENDBRANCH  30  37
BRANCH  31  39
ATOM     39  O   UNL     1       6.128   4.528  23.034  0.00  0.00    -0.386 OA
ATOM     40  H   UNL     1       5.857   5.448  23.205  0.00  0.00    +0.210 HD
ENDBRANCH  31  39
BRANCH  32  41
ATOM     41  O   UNL     1       9.247   2.851  22.093  0.00  0.00    -0.383 OA
ATOM     42  H   UNL     1       9.656   2.002  22.361  0.00  0.00    +0.210 HD
ENDBRANCH  32  41
ENDBRANCH  26  27
ENDBRANCH   4  26
TORSDOF 12
ENDMDL
MODEL 9
REMARK VINA RESULT:      -7.3      1.407      2.749
REMARK  Name = 
REMARK  12 active torsions:
REMARK  status: ('A' for Active; 'I' for Inactive)
REMARK    1  A    between atoms: C_3  and  O_39
REMARK    2  A    between atoms: C_4  and  O_21
REMARK    3  A    between atoms: C_6  and  C_7
REMARK    4  A    between atoms: C_8  and  O_20
REMARK    5  A    between atoms: C_12  and  O_19
REMARK    6  A    between atoms: C_14  and  O_18
REMARK    7  A    between atoms: O_21  and  C_22
REMARK    8  A    between atoms: C_24  and  O_38
REMARK    9  A    between atoms: C_26  and  O_37
REMARK   10  A    between atoms: C_28  and  O_36
REMARK   11  A    between atoms: C_30  and  C_33
REMARK   12  A    between atoms: C_33  and  O_35
REMARK                            x       y       z     vdW  Elec       q    Type
REMARK                         _______ _______ _______ _____ _____    ______ ____
ROOT
ATOM      1  C   UNL     1       9.169  -1.604  22.288  0.00  0.00    +0.015 A 
ATOM      2  C   UNL     1       7.806  -1.466  22.599  0.00  0.00    +0.025 A 
ATOM      3  C   UNL     1       7.236  -0.203  22.369  0.00  0.00    +0.061 A 
ATOM      4  C   UNL     1       8.002   0.908  21.949  0.00  0.00    +0.166 A 
ATOM      5  C   UNL     1       9.367   0.759  21.756  0.00  0.00    +0.159 A 
ATOM      6  C   UNL     1       9.946  -0.504  21.892  0.00  0.00    +0.050 A 
ENDROOT
BRANCH   2   7
ATOM      7  C   UNL     1       7.003  -2.579  23.190  0.00  0.00    +0.181 A 
ATOM      8  O   UNL     1       7.406  -2.962  24.472  0.00  0.00    -0.451 OA
ATOM      9  C   UNL     1       6.793  -4.036  25.083  0.00  0.00    +0.147 A 
ATOM     10  C   UNL     1       5.694  -4.690  24.526  0.00  0.00    +0.109 A 
ATOM     11  C   UNL     1       5.087  -5.758  25.198  0.00  0.00    +0.135 A 
ATOM     12  C   UNL     1       5.582  -6.193  26.428  0.00  0.00    +0.091 A 
ATOM     13  C   UNL     1       6.687  -5.544  26.971  0.00  0.00    +0.124 A 
ATOM     14  C   UNL     1       5.213  -4.249  23.216  0.00  0.00    +0.238 A 
ATOM     15  O   UNL     1       4.221  -4.777  22.723  0.00  0.00    -0.283 OA
ATOM     16  C   UNL     1       7.293  -4.470  26.311  0.00  0.00    +0.092 A 
ATOM     17  C   UNL     1       5.996  -3.198  22.524  0.00  0.00    +0.208 A 
BRANCH  11  18
ATOM     18  O   UNL     1       4.000  -6.433  24.708  0.00  0.00    -0.506 OA
ATOM     19  H   UNL     1       3.322  -6.475  25.420  0.00  0.00    +0.292 HD
ENDBRANCH  11  18
BRANCH  13  20
ATOM     20  O   UNL     1       7.209  -5.941  28.167  0.00  0.00    -0.507 OA
ATOM     21  H   UNL     1       8.185  -5.931  28.106  0.00  0.00    +0.292 HD
ENDBRANCH  13  20
BRANCH  17  22
ATOM     22  O   UNL     1       5.640  -2.943  21.209  0.00  0.00    -0.501 OA
ATOM     23  H   UNL     1       6.381  -2.489  20.775  0.00  0.00    +0.292 HD
ENDBRANCH  17  22
ENDBRANCH   2   7
BRANCH   5  24
ATOM     24  O   UNL     1      10.158   1.845  21.520  0.00  0.00    -0.503 OA
ATOM     25  H   UNL     1      11.082   1.609  21.699  0.00  0.00    +0.292 HD
ENDBRANCH   5  24
BRANCH   4  26
ATOM     26  O   UNL     1       7.295   2.062  21.954  0.00  0.00    -0.457 OA
BRANCH  26  27
ATOM     27  C   UNL     1       7.360   3.107  22.915  0.00  0.00    +0.340 C 
ATOM     28  O   UNL     1       8.598   3.180  23.644  0.00  0.00    -0.322 OA
ATOM     29  C   UNL     1       8.414   3.733  24.966  0.00  0.00    +0.261 C 
ATOM     30  C   UNL     1       7.631   5.068  24.995  0.00  0.00    +0.185 C 
ATOM     31  C   UNL     1       6.424   5.107  24.023  0.00  0.00    +0.180 C 
ATOM     32  C   UNL     1       6.791   4.515  22.639  0.00  0.00    +0.214 C 
BRANCH  29  33
ATOM     33  C   UNL     1       7.793   2.682  25.885  0.00  0.00    +0.337 C 
ATOM     34  O   UNL     1       6.837   2.871  26.620  0.00  0.00    -0.248 OA
BRANCH  33  35
ATOM     35  O   UNL     1       8.385   1.470  25.749  0.00  0.00    -0.479 OA
ATOM     36  H   UNL     1       9.328   1.508  26.034  0.00  0.00    +0.295 HD
ENDBRANCH  33  35
ENDBRANCH  29  33
BRANCH  30  37
ATOM     37  O   UNL     1       8.557   6.110  24.630  0.00  0.00    -0.386 OA
ATOM     38  H   UNL     1       8.193   6.955  24.957  0.00  0.00    +0.210 HD
ENDBRANCH  30  37
BRANCH  31  39
ATOM     39  O   UNL     1       5.264   4.463  24.558  0.00  0.00    -0.386 OA
ATOM     40  H   UNL     1       5.272   4.429  25.532  0.00  0.00    +0.210 HD
ENDBRANCH  31  39
BRANCH  32  41
ATOM     41  O   UNL     1       7.721   5.405  22.008  0.00  0.00    -0.383 OA
ATOM     42  H   UNL     1       7.605   6.288  22.416  0.00  0.00    +0.210 HD
ENDBRANCH  32  41
ENDBRANCH  26  27
ENDBRANCH   4  26
TORSDOF 12
ENDMDL
