MODEL 1
REMARK VINA RESULT:      -8.4      0.000      0.000
REMARK  Name = 
REMARK  17 active torsions:
REMARK  status: ('A' for Active; 'I' for Inactive)
REMARK    1  A    between atoms: C_3  and  O_50
REMARK    2  A    between atoms: C_4  and  O_49
REMARK    3  A    between atoms: C_6  and  C_7
REMARK    4  A    between atoms: C_8  and  C_9
REMARK    5  A    between atoms: C_9  and  O_11
REMARK    6  A    between atoms: O_11  and  C_12
REMARK    7  A    between atoms: C_12  and  C_13
REMARK    8  A    between atoms: C_15  and  O_48
REMARK    9  A    between atoms: C_17  and  O_47
REMARK   10  A    between atoms: C_19  and  O_46
REMARK   11  A    between atoms: C_21  and  O_24
REMARK   12  A    between atoms: O_24  and  C_25
REMARK   13  A    between atoms: C_26  and  O_45
REMARK   14  A    between atoms: C_28  and  C_31
REMARK   15  A    between atoms: C_32  and  O_44
REMARK   16  A    between atoms: C_36  and  O_43
REMARK   17  A    between atoms: C_38  and  O_42
REMARK                            x       y       z     vdW  Elec       q    Type
REMARK                         _______ _______ _______ _____ _____    ______ ____
ROOT
ATOM      1  C   UNL     1       5.252  -4.776  24.362  0.00  0.00    +0.191 C 
ATOM      2  O   UNL     1       5.066  -3.684  25.269  0.00  0.00    -0.330 OA
ATOM      3  C   UNL     1       5.858  -3.817  26.457  0.00  0.00    +0.339 C 
ATOM      4  C   UNL     1       5.408  -5.070  27.242  0.00  0.00    +0.214 C 
ATOM      5  C   UNL     1       5.480  -6.301  26.328  0.00  0.00    +0.180 C 
ATOM      6  C   UNL     1       4.729  -6.066  25.011  0.00  0.00    +0.178 C 
ENDROOT
BRANCH   6   7
ATOM      7  O   UNL     1       4.924  -7.225  24.193  0.00  0.00    -0.386 OA
ATOM      8  H   UNL     1       5.729  -7.673  24.518  0.00  0.00    +0.210 HD
ENDBRANCH   6   7
BRANCH   5   9
ATOM      9  O   UNL     1       4.941  -7.453  26.986  0.00  0.00    -0.386 OA
ATOM     10  H   UNL     1       5.372  -8.222  26.562  0.00  0.00    +0.210 HD
ENDBRANCH   5   9
BRANCH   4  11
ATOM     11  O   UNL     1       6.217  -5.235  28.419  0.00  0.00    -0.383 OA
ATOM     12  H   UNL     1       5.800  -4.755  29.155  0.00  0.00    +0.210 HD
ENDBRANCH   4  11
BRANCH   3  13
ATOM     13  O   UNL     1       5.707  -2.696  27.339  0.00  0.00    -0.457 OA
BRANCH  13  14
ATOM     14  C   UNL     1       6.092  -1.460  26.907  0.00  0.00    +0.165 A 
ATOM     15  C   UNL     1       7.380  -0.938  26.916  0.00  0.00    +0.050 A 
ATOM     16  C   UNL     1       7.653   0.268  26.251  0.00  0.00    +0.015 A 
ATOM     17  C   UNL     1       6.638   0.996  25.608  0.00  0.00    +0.025 A 
ATOM     18  C   UNL     1       5.319   0.547  25.773  0.00  0.00    +0.060 A 
ATOM     19  C   UNL     1       5.067  -0.684  26.365  0.00  0.00    +0.159 A 
BRANCH  17  20
ATOM     20  C   UNL     1       6.968   2.173  24.760  0.00  0.00    +0.181 A 
ATOM     21  O   UNL     1       7.724   3.138  25.426  0.00  0.00    -0.451 OA
ATOM     22  C   UNL     1       8.169   4.235  24.731  0.00  0.00    +0.147 A 
ATOM     23  C   UNL     1       7.792   4.498  23.418  0.00  0.00    +0.109 A 
ATOM     24  C   UNL     1       8.235   5.659  22.773  0.00  0.00    +0.135 A 
ATOM     25  C   UNL     1       9.071   6.553  23.433  0.00  0.00    +0.091 A 
ATOM     26  C   UNL     1       9.467   6.268  24.737  0.00  0.00    +0.124 A 
ATOM     27  C   UNL     1       6.957   3.518  22.725  0.00  0.00    +0.238 A 
ATOM     28  O   UNL     1       6.592   3.737  21.574  0.00  0.00    -0.283 OA
ATOM     29  C   UNL     1       9.024   5.119  25.391  0.00  0.00    +0.092 A 
ATOM     30  C   UNL     1       6.622   2.270  23.455  0.00  0.00    +0.208 A 
BRANCH  24  31
ATOM     31  O   UNL     1       7.886   5.977  21.487  0.00  0.00    -0.506 OA
ATOM     32  H   UNL     1       7.052   5.499  21.271  0.00  0.00    +0.292 HD
ENDBRANCH  24  31
BRANCH  30  33
ATOM     33  O   UNL     1       6.001   1.284  22.709  0.00  0.00    -0.501 OA
ATOM     34  H   UNL     1       5.098   1.151  23.040  0.00  0.00    +0.292 HD
ENDBRANCH  30  33
BRANCH  26  35
ATOM     35  O   UNL     1      10.299   7.108  25.416  0.00  0.00    -0.507 OA
ATOM     36  H   UNL     1      10.566   6.679  26.247  0.00  0.00    +0.292 HD
ENDBRANCH  26  35
ENDBRANCH  17  20
BRANCH  19  37
ATOM     37  O   UNL     1       3.777  -1.143  26.357  0.00  0.00    -0.503 OA
ATOM     38  H   UNL     1       3.223  -0.368  26.134  0.00  0.00    +0.292 HD
ENDBRANCH  19  37
ENDBRANCH  13  14
ENDBRANCH   3  13
BRANCH   1  39
ATOM     39  C   UNL     1       4.526  -4.441  23.050  0.00  0.00    +0.266 C 
BRANCH  39  40
ATOM     40  O   UNL     1       5.250  -3.493  22.249  0.00  0.00    -0.459 OA
BRANCH  40  41
ATOM     41  C   UNL     1       6.597  -3.665  22.233  0.00  0.00    +0.332 C 
ATOM     42  O   UNL     1       7.188  -4.688  21.922  0.00  0.00    -0.246 OA
BRANCH  41  44
ATOM     43  C   UNL     1       8.527  -2.173  22.354  0.00  0.00    +0.015 C 
ATOM     44  C   UNL     1       7.233  -2.392  22.627  0.00  0.00    +0.092 C 
BRANCH  43  46
ATOM     45  C   UNL     1       9.902  -0.886  23.966  0.00  0.00    +0.012 A 
ATOM     46  C   UNL     1       9.264  -0.948  22.710  0.00  0.00    -0.021 A 
ATOM     47  C   UNL     1       9.295   0.183  21.882  0.00  0.00    +0.057 A 
ATOM     48  C   UNL     1       9.959   1.332  22.302  0.00  0.00    +0.159 A 
ATOM     49  C   UNL     1      10.591   1.377  23.545  0.00  0.00    +0.158 A 
ATOM     50  C   UNL     1      10.570   0.275  24.380  0.00  0.00    +0.050 A 
BRANCH  49  51
ATOM     51  O   UNL     1      11.211   2.545  23.893  0.00  0.00    -0.503 OA
ATOM     52  H   UNL     1      11.863   2.348  24.589  0.00  0.00    +0.292 HD
ENDBRANCH  49  51
BRANCH  48  53
ATOM     53  O   UNL     1       9.978   2.422  21.488  0.00  0.00    -0.503 OA
ATOM     54  H   UNL     1      10.404   2.108  20.665  0.00  0.00    +0.292 HD
ENDBRANCH  48  53
ENDBRANCH  43  46
ENDBRANCH  41  44
ENDBRANCH  40  41
ENDBRANCH  39  40
ENDBRANCH   1  39
TORSDOF 17
ENDMDL
MODEL 2
REMARK VINA RESULT:      -8.1      1.756      9.155
REMARK  Name = 
REMARK  17 active torsions:
REMARK  status: ('A' for Active; 'I' for Inactive)
REMARK    1  A    between atoms: C_3  and  O_50
REMARK    2  A    between atoms: C_4  and  O_49
REMARK    3  A    between atoms: C_6  and  C_7
REMARK    4  A    between atoms: C_8  and  C_9
REMARK    5  A    between atoms: C_9  and  O_11
REMARK    6  A    between atoms: O_11  and  C_12
REMARK    7  A    between atoms: C_12  and  C_13
REMARK    8  A    between atoms: C_15  and  O_48
REMARK    9  A    between atoms: C_17  and  O_47
REMARK   10  A    between atoms: C_19  and  O_46
REMARK   11  A    between atoms: C_21  and  O_24
REMARK   12  A    between atoms: O_24  and  C_25
REMARK   13  A    between atoms: C_26  and  O_45
REMARK   14  A    between atoms: C_28  and  C_31
REMARK   15  A    between atoms: C_32  and  O_44
REMARK   16  A    between atoms: C_36  and  O_43
REMARK   17  A    between atoms: C_38  and  O_42
REMARK                            x       y       z     vdW  Elec       q    Type
REMARK                         _______ _______ _______ _____ _____    ______ ____
ROOT
ATOM      1  C   UNL     1       8.865   3.886  23.927  0.00  0.00    +0.191 C 
ATOM      2  O   UNL     1       9.621   2.682  24.101  0.00  0.00    -0.330 OA
ATOM      3  C   UNL     1       9.896   2.022  22.858  0.00  0.00    +0.339 C 
ATOM      4  C   UNL     1       8.569   1.571  22.205  0.00  0.00    +0.214 C 
ATOM      5  C   UNL     1       7.636   2.780  22.053  0.00  0.00    +0.180 C 
ATOM      6  C   UNL     1       7.473   3.534  23.379  0.00  0.00    +0.178 C 
ENDROOT
BRANCH   6   7
ATOM      7  O   UNL     1       6.664   4.686  23.121  0.00  0.00    -0.386 OA
ATOM      8  H   UNL     1       6.019   4.753  23.852  0.00  0.00    +0.210 HD
ENDBRANCH   6   7
BRANCH   5   9
ATOM      9  O   UNL     1       6.350   2.370  21.576  0.00  0.00    -0.386 OA
ATOM     10  H   UNL     1       6.435   2.322  20.603  0.00  0.00    +0.210 HD
ENDBRANCH   5   9
BRANCH   4  11
ATOM     11  O   UNL     1       8.830   0.939  20.940  0.00  0.00    -0.383 OA
ATOM     12  H   UNL     1       8.894   1.625  20.254  0.00  0.00    +0.210 HD
ENDBRANCH   4  11
BRANCH   3  13
ATOM     13  O   UNL     1      10.696   0.845  23.034  0.00  0.00    -0.457 OA
BRANCH  13  14
ATOM     14  C   UNL     1      10.173  -0.211  23.724  0.00  0.00    +0.165 A 
ATOM     15  C   UNL     1       9.702  -0.200  25.032  0.00  0.00    +0.050 A 
ATOM     16  C   UNL     1       9.006  -1.310  25.536  0.00  0.00    +0.015 A 
ATOM     17  C   UNL     1       8.810  -2.465  24.760  0.00  0.00    +0.025 A 
ATOM     18  C   UNL     1       9.455  -2.524  23.516  0.00  0.00    +0.060 A 
ATOM     19  C   UNL     1      10.076  -1.395  22.994  0.00  0.00    +0.159 A 
BRANCH  17  20
ATOM     20  C   UNL     1       7.922  -3.559  25.238  0.00  0.00    +0.181 A 
ATOM     21  O   UNL     1       6.890  -3.859  24.349  0.00  0.00    -0.451 OA
ATOM     22  C   UNL     1       6.049  -4.908  24.630  0.00  0.00    +0.147 A 
ATOM     23  C   UNL     1       6.097  -5.610  25.829  0.00  0.00    +0.109 A 
ATOM     24  C   UNL     1       5.183  -6.639  26.085  0.00  0.00    +0.135 A 
ATOM     25  C   UNL     1       4.227  -6.981  25.135  0.00  0.00    +0.091 A 
ATOM     26  C   UNL     1       4.204  -6.292  23.925  0.00  0.00    +0.124 A 
ATOM     27  C   UNL     1       7.144  -5.271  26.792  0.00  0.00    +0.238 A 
ATOM     28  O   UNL     1       7.195  -5.861  27.868  0.00  0.00    -0.283 OA
ATOM     29  C   UNL     1       5.105  -5.260  23.665  0.00  0.00    +0.092 A 
ATOM     30  C   UNL     1       8.131  -4.238  26.391  0.00  0.00    +0.208 A 
BRANCH  24  31
ATOM     31  O   UNL     1       5.173  -7.356  27.252  0.00  0.00    -0.506 OA
ATOM     32  H   UNL     1       5.315  -8.305  27.027  0.00  0.00    +0.292 HD
ENDBRANCH  24  31
BRANCH  30  33
ATOM     33  O   UNL     1       9.216  -4.081  27.234  0.00  0.00    -0.501 OA
ATOM     34  H   UNL     1      10.005  -3.873  26.708  0.00  0.00    +0.292 HD
ENDBRANCH  30  33
BRANCH  26  35
ATOM     35  O   UNL     1       3.295  -6.604  22.958  0.00  0.00    -0.507 OA
ATOM     36  H   UNL     1       3.686  -7.266  22.364  0.00  0.00    +0.292 HD
ENDBRANCH  26  35
ENDBRANCH  17  20
BRANCH  19  37
ATOM     37  O   UNL     1      10.549  -1.464  21.712  0.00  0.00    -0.503 OA
ATOM     38  H   UNL     1      10.477  -2.405  21.454  0.00  0.00    +0.292 HD
ENDBRANCH  19  37
ENDBRANCH  13  14
ENDBRANCH   3  13
BRANCH   1  39
ATOM     39  C   UNL     1       8.799   4.612  25.279  0.00  0.00    +0.266 C 
BRANCH  39  40
ATOM     40  O   UNL     1       7.448   4.853  25.707  0.00  0.00    -0.459 OA
BRANCH  40  41
ATOM     41  C   UNL     1       7.168   4.456  26.975  0.00  0.00    +0.332 C 
ATOM     42  O   UNL     1       7.536   5.008  28.000  0.00  0.00    -0.246 OA
BRANCH  41  44
ATOM     43  C   UNL     1       6.868   2.036  26.819  0.00  0.00    +0.015 C 
ATOM     44  C   UNL     1       6.312   3.254  26.906  0.00  0.00    +0.092 C 
BRANCH  43  46
ATOM     45  C   UNL     1       5.693   0.156  27.928  0.00  0.00    +0.012 A 
ATOM     46  C   UNL     1       6.112   0.774  26.732  0.00  0.00    -0.021 A 
ATOM     47  C   UNL     1       5.856   0.129  25.514  0.00  0.00    +0.057 A 
ATOM     48  C   UNL     1       5.188  -1.092  25.503  0.00  0.00    +0.159 A 
ATOM     49  C   UNL     1       4.774  -1.689  26.694  0.00  0.00    +0.158 A 
ATOM     50  C   UNL     1       5.019  -1.073  27.907  0.00  0.00    +0.050 A 
BRANCH  49  51
ATOM     51  O   UNL     1       4.135  -2.895  26.603  0.00  0.00    -0.503 OA
ATOM     52  H   UNL     1       4.732  -3.582  26.950  0.00  0.00    +0.292 HD
ENDBRANCH  49  51
BRANCH  48  53
ATOM     53  O   UNL     1       4.949  -1.706  24.314  0.00  0.00    -0.503 OA
ATOM     54  H   UNL     1       3.994  -1.915  24.330  0.00  0.00    +0.292 HD
ENDBRANCH  48  53
ENDBRANCH  43  46
ENDBRANCH  41  44
ENDBRANCH  40  41
ENDBRANCH  39  40
ENDBRANCH   1  39
TORSDOF 17
ENDMDL
MODEL 3
REMARK VINA RESULT:      -7.8      1.756      8.860
REMARK  Name = 
REMARK  17 active torsions:
REMARK  status: ('A' for Active; 'I' for Inactive)
REMARK    1  A    between atoms: C_3  and  O_50
REMARK    2  A    between atoms: C_4  and  O_49
REMARK    3  A    between atoms: C_6  and  C_7
REMARK    4  A    between atoms: C_8  and  C_9
REMARK    5  A    between atoms: C_9  and  O_11
REMARK    6  A    between atoms: O_11  and  C_12
REMARK    7  A    between atoms: C_12  and  C_13
REMARK    8  A    between atoms: C_15  and  O_48
REMARK    9  A    between atoms: C_17  and  O_47
REMARK   10  A    between atoms: C_19  and  O_46
REMARK   11  A    between atoms: C_21  and  O_24
REMARK   12  A    between atoms: O_24  and  C_25
REMARK   13  A    between atoms: C_26  and  O_45
REMARK   14  A    between atoms: C_28  and  C_31
REMARK   15  A    between atoms: C_32  and  O_44
REMARK   16  A    between atoms: C_36  and  O_43
REMARK   17  A    between atoms: C_38  and  O_42
REMARK                            x       y       z     vdW  Elec       q    Type
REMARK                         _______ _______ _______ _____ _____    ______ ____
ROOT
ATOM      1  C   UNL     1       8.825   2.853  23.671  0.00  0.00    +0.191 C 
ATOM      2  O   UNL     1       8.813   2.222  24.956  0.00  0.00    -0.330 OA
ATOM      3  C   UNL     1       7.550   2.361  25.624  0.00  0.00    +0.339 C 
ATOM      4  C   UNL     1       7.278   3.856  25.909  0.00  0.00    +0.214 C 
ATOM      5  C   UNL     1       7.358   4.651  24.598  0.00  0.00    +0.180 C 
ATOM      6  C   UNL     1       8.669   4.370  23.851  0.00  0.00    +0.178 C 
ENDROOT
BRANCH   6   7
ATOM      7  O   UNL     1       8.616   5.081  22.610  0.00  0.00    -0.386 OA
ATOM      8  H   UNL     1       7.705   4.995  22.269  0.00  0.00    +0.210 HD
ENDBRANCH   6   7
BRANCH   5   9
ATOM      9  O   UNL     1       7.244   6.055  24.850  0.00  0.00    -0.386 OA
ATOM     10  H   UNL     1       6.436   6.159  25.393  0.00  0.00    +0.210 HD
ENDBRANCH   5   9
BRANCH   4  11
ATOM     11  O   UNL     1       5.999   4.012  26.547  0.00  0.00    -0.383 OA
ATOM     12  H   UNL     1       5.997   3.500  27.374  0.00  0.00    +0.210 HD
ENDBRANCH   4  11
BRANCH   3  13
ATOM     13  O   UNL     1       7.528   1.685  26.888  0.00  0.00    -0.457 OA
BRANCH  13  14
ATOM     14  C   UNL     1       6.933   0.459  26.970  0.00  0.00    +0.165 A 
ATOM     15  C   UNL     1       5.591   0.199  27.225  0.00  0.00    +0.050 A 
ATOM     16  C   UNL     1       5.089  -1.104  27.076  0.00  0.00    +0.015 A 
ATOM     17  C   UNL     1       5.925  -2.174  26.717  0.00  0.00    +0.025 A 
ATOM     18  C   UNL     1       7.303  -1.923  26.651  0.00  0.00    +0.060 A 
ATOM     19  C   UNL     1       7.782  -0.620  26.723  0.00  0.00    +0.159 A 
BRANCH  17  20
ATOM     20  C   UNL     1       5.352  -3.508  26.389  0.00  0.00    +0.181 A 
ATOM     21  O   UNL     1       4.387  -3.461  25.383  0.00  0.00    -0.451 OA
ATOM     22  C   UNL     1       3.841  -4.635  24.926  0.00  0.00    +0.147 A 
ATOM     23  C   UNL     1       4.111  -5.868  25.509  0.00  0.00    +0.109 A 
ATOM     24  C   UNL     1       3.487  -7.028  25.035  0.00  0.00    +0.135 A 
ATOM     25  C   UNL     1       2.604  -6.962  23.963  0.00  0.00    +0.091 A 
ATOM     26  C   UNL     1       2.361  -5.728  23.365  0.00  0.00    +0.124 A 
ATOM     27  C   UNL     1       5.084  -5.923  26.600  0.00  0.00    +0.238 A 
ATOM     28  O   UNL     1       5.323  -6.996  27.147  0.00  0.00    -0.283 OA
ATOM     29  C   UNL     1       2.971  -4.566  23.837  0.00  0.00    +0.092 A 
ATOM     30  C   UNL     1       5.770  -4.659  26.966  0.00  0.00    +0.208 A 
BRANCH  24  31
ATOM     31  O   UNL     1       3.703  -8.267  25.578  0.00  0.00    -0.506 OA
ATOM     32  H   UNL     1       3.134  -8.351  26.379  0.00  0.00    +0.292 HD
ENDBRANCH  24  31
BRANCH  30  33
ATOM     33  O   UNL     1       6.818  -4.780  27.860  0.00  0.00    -0.501 OA
ATOM     34  H   UNL     1       6.996  -3.916  28.266  0.00  0.00    +0.292 HD
ENDBRANCH  30  33
BRANCH  26  35
ATOM     35  O   UNL     1       1.516  -5.618  22.302  0.00  0.00    -0.507 OA
ATOM     36  H   UNL     1       1.815  -6.223  21.601  0.00  0.00    +0.292 HD
ENDBRANCH  26  35
ENDBRANCH  17  20
BRANCH  19  37
ATOM     37  O   UNL     1       9.116  -0.418  26.494  0.00  0.00    -0.503 OA
ATOM     38  H   UNL     1       9.581  -1.086  27.037  0.00  0.00    +0.292 HD
ENDBRANCH  19  37
ENDBRANCH  13  14
ENDBRANCH   3  13
BRANCH   1  39
ATOM     39  C   UNL     1      10.135   2.476  22.963  0.00  0.00    +0.266 C 
BRANCH  39  40
ATOM     40  O   UNL     1      10.079   1.171  22.363  0.00  0.00    -0.459 OA
BRANCH  40  41
ATOM     41  C   UNL     1      10.206   0.134  23.233  0.00  0.00    +0.332 C 
ATOM     42  O   UNL     1      11.010   0.057  24.149  0.00  0.00    -0.246 OA
BRANCH  41  44
ATOM     43  C   UNL     1       9.242  -2.100  23.445  0.00  0.00    +0.015 C 
ATOM     44  C   UNL     1       9.180  -0.875  22.902  0.00  0.00    +0.092 C 
BRANCH  43  46
ATOM     45  C   UNL     1       8.311  -4.329  24.001  0.00  0.00    +0.012 A 
ATOM     46  C   UNL     1       8.282  -3.185  23.178  0.00  0.00    -0.021 A 
ATOM     47  C   UNL     1       7.391  -3.155  22.095  0.00  0.00    +0.057 A 
ATOM     48  C   UNL     1       6.549  -4.239  21.860  0.00  0.00    +0.159 A 
ATOM     49  C   UNL     1       6.585  -5.363  22.686  0.00  0.00    +0.158 A 
ATOM     50  C   UNL     1       7.457  -5.415  23.757  0.00  0.00    +0.050 A 
BRANCH  49  51
ATOM     51  O   UNL     1       5.737  -6.392  22.383  0.00  0.00    -0.503 OA
ATOM     52  H   UNL     1       5.426  -6.271  21.468  0.00  0.00    +0.292 HD
ENDBRANCH  49  51
BRANCH  48  53
ATOM     53  O   UNL     1       5.693  -4.196  20.804  0.00  0.00    -0.503 OA
ATOM     54  H   UNL     1       4.805  -4.133  21.209  0.00  0.00    +0.292 HD
ENDBRANCH  48  53
ENDBRANCH  43  46
ENDBRANCH  41  44
ENDBRANCH  40  41
ENDBRANCH  39  40
ENDBRANCH   1  39
TORSDOF 17
ENDMDL
MODEL 4
REMARK VINA RESULT:      -7.7      2.054      4.050
REMARK  Name = 
REMARK  17 active torsions:
REMARK  status: ('A' for Active; 'I' for Inactive)
REMARK    1  A    between atoms: C_3  and  O_50
REMARK    2  A    between atoms: C_4  and  O_49
REMARK    3  A    between atoms: C_6  and  C_7
REMARK    4  A    between atoms: C_8  and  C_9
REMARK    5  A    between atoms: C_9  and  O_11
REMARK    6  A    between atoms: O_11  and  C_12
REMARK    7  A    between atoms: C_12  and  C_13
REMARK    8  A    between atoms: C_15  and  O_48
REMARK    9  A    between atoms: C_17  and  O_47
REMARK   10  A    between atoms: C_19  and  O_46
REMARK   11  A    between atoms: C_21  and  O_24
REMARK   12  A    between atoms: O_24  and  C_25
REMARK   13  A    between atoms: C_26  and  O_45
REMARK   14  A    between atoms: C_28  and  C_31
REMARK   15  A    between atoms: C_32  and  O_44
REMARK   16  A    between atoms: C_36  and  O_43
REMARK   17  A    between atoms: C_38  and  O_42
REMARK                            x       y       z     vdW  Elec       q    Type
REMARK                         _______ _______ _______ _____ _____    ______ ____
ROOT
ATOM      1  C   UNL     1       5.720  -5.641  24.585  0.00  0.00    +0.191 C 
ATOM      2  O   UNL     1       6.340  -4.658  23.748  0.00  0.00    -0.330 OA
ATOM      3  C   UNL     1       7.751  -4.873  23.602  0.00  0.00    +0.339 C 
ATOM      4  C   UNL     1       8.443  -4.723  24.977  0.00  0.00    +0.214 C 
ATOM      5  C   UNL     1       7.789  -5.676  25.987  0.00  0.00    +0.180 C 
ATOM      6  C   UNL     1       6.264  -5.503  26.015  0.00  0.00    +0.178 C 
ENDROOT
BRANCH   6   7
ATOM      7  O   UNL     1       5.738  -6.486  26.913  0.00  0.00    -0.386 OA
ATOM      8  H   UNL     1       6.016  -7.360  26.578  0.00  0.00    +0.210 HD
ENDBRANCH   6   7
BRANCH   5   9
ATOM      9  O   UNL     1       8.318  -5.463  27.300  0.00  0.00    -0.386 OA
ATOM     10  H   UNL     1       8.149  -4.520  27.500  0.00  0.00    +0.210 HD
ENDBRANCH   5   9
BRANCH   4  11
ATOM     11  O   UNL     1       9.853  -4.970  24.850  0.00  0.00    -0.383 OA
ATOM     12  H   UNL     1      10.006  -5.930  24.876  0.00  0.00    +0.210 HD
ENDBRANCH   4  11
BRANCH   3  13
ATOM     13  O   UNL     1       8.357  -3.916  22.723  0.00  0.00    -0.457 OA
BRANCH  13  14
ATOM     14  C   UNL     1       8.556  -2.642  23.171  0.00  0.00    +0.165 A 
ATOM     15  C   UNL     1       9.688  -2.151  23.812  0.00  0.00    +0.050 A 
ATOM     16  C   UNL     1       9.829  -0.771  24.029  0.00  0.00    +0.015 A 
ATOM     17  C   UNL     1       8.823   0.135  23.653  0.00  0.00    +0.025 A 
ATOM     18  C   UNL     1       7.615  -0.400  23.182  0.00  0.00    +0.060 A 
ATOM     19  C   UNL     1       7.513  -1.757  22.899  0.00  0.00    +0.159 A 
BRANCH  17  20
ATOM     20  C   UNL     1       9.058   1.602  23.724  0.00  0.00    +0.181 A 
ATOM     21  O   UNL     1      10.407   1.950  23.635  0.00  0.00    -0.451 OA
ATOM     22  C   UNL     1      10.753   3.278  23.601  0.00  0.00    +0.147 A 
ATOM     23  C   UNL     1       9.830   4.302  23.783  0.00  0.00    +0.109 A 
ATOM     24  C   UNL     1      10.247   5.638  23.790  0.00  0.00    +0.135 A 
ATOM     25  C   UNL     1      11.587   5.957  23.598  0.00  0.00    +0.091 A 
ATOM     26  C   UNL     1      12.501   4.927  23.388  0.00  0.00    +0.124 A 
ATOM     27  C   UNL     1       8.419   3.948  23.929  0.00  0.00    +0.238 A 
ATOM     28  O   UNL     1       7.587   4.831  24.113  0.00  0.00    -0.283 OA
ATOM     29  C   UNL     1      12.096   3.593  23.388  0.00  0.00    +0.092 A 
ATOM     30  C   UNL     1       8.060   2.513  23.805  0.00  0.00    +0.208 A 
BRANCH  24  31
ATOM     31  O   UNL     1       9.386   6.687  23.977  0.00  0.00    -0.506 OA
ATOM     32  H   UNL     1       8.579   6.518  23.438  0.00  0.00    +0.292 HD
ENDBRANCH  24  31
BRANCH  30  33
ATOM     33  O   UNL     1       6.706   2.234  23.752  0.00  0.00    -0.501 OA
ATOM     34  H   UNL     1       6.215   3.054  23.581  0.00  0.00    +0.292 HD
ENDBRANCH  30  33
BRANCH  26  35
ATOM     35  O   UNL     1      13.821   5.194  23.179  0.00  0.00    -0.507 OA
ATOM     36  H   UNL     1      14.273   4.367  22.939  0.00  0.00    +0.292 HD
ENDBRANCH  26  35
ENDBRANCH  17  20
BRANCH  19  37
ATOM     37  O   UNL     1       6.367  -2.197  22.293  0.00  0.00    -0.503 OA
ATOM     38  H   UNL     1       5.937  -1.397  21.929  0.00  0.00    +0.292 HD
ENDBRANCH  19  37
ENDBRANCH  13  14
ENDBRANCH   3  13
BRANCH   1  39
ATOM     39  C   UNL     1       4.198  -5.444  24.513  0.00  0.00    +0.266 C 
BRANCH  39  40
ATOM     40  O   UNL     1       3.667  -4.836  25.703  0.00  0.00    -0.459 OA
BRANCH  40  41
ATOM     41  C   UNL     1       2.918  -3.723  25.493  0.00  0.00    +0.332 C 
ATOM     42  O   UNL     1       1.855  -3.673  24.893  0.00  0.00    -0.246 OA
BRANCH  41  44
ATOM     43  C   UNL     1       4.776  -2.149  25.686  0.00  0.00    +0.015 C 
ATOM     44  C   UNL     1       3.591  -2.581  26.143  0.00  0.00    +0.092 C 
BRANCH  43  46
ATOM     45  C   UNL     1       4.921   0.233  26.356  0.00  0.00    +0.012 A 
ATOM     46  C   UNL     1       5.540  -1.030  26.265  0.00  0.00    -0.021 A 
ATOM     47  C   UNL     1       6.879  -1.155  26.661  0.00  0.00    +0.057 A 
ATOM     48  C   UNL     1       7.565  -0.044  27.146  0.00  0.00    +0.159 A 
ATOM     49  C   UNL     1       6.938   1.199  27.235  0.00  0.00    +0.158 A 
ATOM     50  C   UNL     1       5.619   1.345  26.847  0.00  0.00    +0.050 A 
BRANCH  49  51
ATOM     51  O   UNL     1       7.681   2.245  27.709  0.00  0.00    -0.503 OA
ATOM     52  H   UNL     1       7.541   3.008  27.120  0.00  0.00    +0.292 HD
ENDBRANCH  49  51
BRANCH  48  53
ATOM     53  O   UNL     1       8.864  -0.181  27.523  0.00  0.00    -0.503 OA
ATOM     54  H   UNL     1       8.931  -1.100  27.851  0.00  0.00    +0.292 HD
ENDBRANCH  48  53
ENDBRANCH  43  46
ENDBRANCH  41  44
ENDBRANCH  40  41
ENDBRANCH  39  40
ENDBRANCH   1  39
TORSDOF 17
ENDMDL
MODEL 5
REMARK VINA RESULT:      -7.7      1.970      9.365
REMARK  Name = 
REMARK  17 active torsions:
REMARK  status: ('A' for Active; 'I' for Inactive)
REMARK    1  A    between atoms: C_3  and  O_50
REMARK    2  A    between atoms: C_4  and  O_49
REMARK    3  A    between atoms: C_6  and  C_7
REMARK    4  A    between atoms: C_8  and  C_9
REMARK    5  A    between atoms: C_9  and  O_11
REMARK    6  A    between atoms: O_11  and  C_12
REMARK    7  A    between atoms: C_12  and  C_13
REMARK    8  A    between atoms: C_15  and  O_48
REMARK    9  A    between atoms: C_17  and  O_47
REMARK   10  A    between atoms: C_19  and  O_46
REMARK   11  A    between atoms: C_21  and  O_24
REMARK   12  A    between atoms: O_24  and  C_25
REMARK   13  A    between atoms: C_26  and  O_45
REMARK   14  A    between atoms: C_28  and  C_31
REMARK   15  A    between atoms: C_32  and  O_44
REMARK   16  A    between atoms: C_36  and  O_43
REMARK   17  A    between atoms: C_38  and  O_42
REMARK                            x       y       z     vdW  Elec       q    Type
REMARK                         _______ _______ _______ _____ _____    ______ ____
ROOT
ATOM      1  C   UNL     1       8.252   2.989  25.219  0.00  0.00    +0.191 C 
ATOM      2  O   UNL     1       8.897   1.739  24.949  0.00  0.00    -0.330 OA
ATOM      3  C   UNL     1       9.858   1.836  23.888  0.00  0.00    +0.339 C 
ATOM      4  C   UNL     1       9.140   2.209  22.571  0.00  0.00    +0.214 C 
ATOM      5  C   UNL     1       8.334   3.500  22.775  0.00  0.00    +0.180 C 
ATOM      6  C   UNL     1       7.414   3.400  23.999  0.00  0.00    +0.178 C 
ENDROOT
BRANCH   6   7
ATOM      7  O   UNL     1       6.774   4.670  24.159  0.00  0.00    -0.386 OA
ATOM      8  H   UNL     1       6.497   4.966  23.271  0.00  0.00    +0.210 HD
ENDBRANCH   6   7
BRANCH   5   9
ATOM      9  O   UNL     1       7.551   3.796  21.613  0.00  0.00    -0.386 OA
ATOM     10  H   UNL     1       6.947   3.035  21.504  0.00  0.00    +0.210 HD
ENDBRANCH   5   9
BRANCH   4  11
ATOM     11  O   UNL     1      10.097   2.343  21.507  0.00  0.00    -0.383 OA
ATOM     12  H   UNL     1       9.633   2.261  20.656  0.00  0.00    +0.210 HD
ENDBRANCH   4  11
BRANCH   3  13
ATOM     13  O   UNL     1      10.536   0.594  23.656  0.00  0.00    -0.457 OA
BRANCH  13  14
ATOM     14  C   UNL     1       9.870  -0.575  23.884  0.00  0.00    +0.165 A 
ATOM     15  C   UNL     1       9.426  -1.056  25.111  0.00  0.00    +0.050 A 
ATOM     16  C   UNL     1       8.577  -2.173  25.161  0.00  0.00    +0.015 A 
ATOM     17  C   UNL     1       8.195  -2.855  23.994  0.00  0.00    +0.025 A 
ATOM     18  C   UNL     1       8.803  -2.467  22.791  0.00  0.00    +0.060 A 
ATOM     19  C   UNL     1       9.581  -1.316  22.738  0.00  0.00    +0.159 A 
BRANCH  17  20
ATOM     20  C   UNL     1       7.158  -3.921  24.042  0.00  0.00    +0.181 A 
ATOM     21  O   UNL     1       7.036  -4.515  25.299  0.00  0.00    -0.451 OA
ATOM     22  C   UNL     1       6.055  -5.454  25.502  0.00  0.00    +0.147 A 
ATOM     23  C   UNL     1       5.254  -5.940  24.474  0.00  0.00    +0.109 A 
ATOM     24  C   UNL     1       4.303  -6.935  24.727  0.00  0.00    +0.135 A 
ATOM     25  C   UNL     1       4.137  -7.437  26.014  0.00  0.00    +0.091 A 
ATOM     26  C   UNL     1       4.924  -6.924  27.043  0.00  0.00    +0.124 A 
ATOM     27  C   UNL     1       5.407  -5.361  23.140  0.00  0.00    +0.238 A 
ATOM     28  O   UNL     1       4.728  -5.787  22.211  0.00  0.00    -0.283 OA
ATOM     29  C   UNL     1       5.880  -5.939  26.798  0.00  0.00    +0.092 A 
ATOM     30  C   UNL     1       6.368  -4.239  22.990  0.00  0.00    +0.208 A 
BRANCH  24  31
ATOM     31  O   UNL     1       3.496  -7.461  23.754  0.00  0.00    -0.506 OA
ATOM     32  H   UNL     1       3.919  -7.287  22.881  0.00  0.00    +0.292 HD
ENDBRANCH  24  31
BRANCH  30  33
ATOM     33  O   UNL     1       6.347  -3.588  21.770  0.00  0.00    -0.501 OA
ATOM     34  H   UNL     1       6.241  -4.240  21.059  0.00  0.00    +0.292 HD
ENDBRANCH  30  33
BRANCH  26  35
ATOM     35  O   UNL     1       4.784  -7.375  28.322  0.00  0.00    -0.507 OA
ATOM     36  H   UNL     1       3.985  -6.977  28.708  0.00  0.00    +0.292 HD
ENDBRANCH  26  35
ENDBRANCH  17  20
BRANCH  19  37
ATOM     37  O   UNL     1      10.017  -0.899  21.510  0.00  0.00    -0.503 OA
ATOM     38  H   UNL     1      10.797  -0.333  21.685  0.00  0.00    +0.292 HD
ENDBRANCH  19  37
ENDBRANCH  13  14
ENDBRANCH   3  13
BRANCH   1  39
ATOM     39  C   UNL     1       7.402   2.827  26.489  0.00  0.00    +0.266 C 
BRANCH  39  40
ATOM     40  O   UNL     1       6.363   1.846  26.332  0.00  0.00    -0.459 OA
BRANCH  40  41
ATOM     41  C   UNL     1       6.541   0.702  27.043  0.00  0.00    +0.332 C 
ATOM     42  O   UNL     1       7.471   0.462  27.798  0.00  0.00    -0.246 OA
BRANCH  41  44
ATOM     43  C   UNL     1       5.462  -1.487  27.123  0.00  0.00    +0.015 C 
ATOM     44  C   UNL     1       5.399  -0.194  26.775  0.00  0.00    +0.092 C 
BRANCH  43  46
ATOM     45  C   UNL     1       3.890  -2.630  25.583  0.00  0.00    +0.012 A 
ATOM     46  C   UNL     1       4.389  -2.471  26.892  0.00  0.00    -0.021 A 
ATOM     47  C   UNL     1       3.797  -3.200  27.933  0.00  0.00    +0.057 A 
ATOM     48  C   UNL     1       2.746  -4.072  27.658  0.00  0.00    +0.159 A 
ATOM     49  C   UNL     1       2.267  -4.224  26.357  0.00  0.00    +0.158 A 
ATOM     50  C   UNL     1       2.833  -3.512  25.316  0.00  0.00    +0.050 A 
BRANCH  49  51
ATOM     51  O   UNL     1       1.223  -5.088  26.169  0.00  0.00    -0.503 OA
ATOM     52  H   UNL     1       0.407  -4.564  26.081  0.00  0.00    +0.292 HD
ENDBRANCH  49  51
BRANCH  48  53
ATOM     53  O   UNL     1       2.181  -4.770  28.679  0.00  0.00    -0.503 OA
ATOM     54  H   UNL     1       1.617  -4.119  29.142  0.00  0.00    +0.292 HD
ENDBRANCH  48  53
ENDBRANCH  43  46
ENDBRANCH  41  44
ENDBRANCH  40  41
ENDBRANCH  39  40
ENDBRANCH   1  39
TORSDOF 17
ENDMDL
MODEL 6
REMARK VINA RESULT:      -7.7      1.835      9.182
REMARK  Name = 
REMARK  17 active torsions:
REMARK  status: ('A' for Active; 'I' for Inactive)
REMARK    1  A    between atoms: C_3  and  O_50
REMARK    2  A    between atoms: C_4  and  O_49
REMARK    3  A    between atoms: C_6  and  C_7
REMARK    4  A    between atoms: C_8  and  C_9
REMARK    5  A    between atoms: C_9  and  O_11
REMARK    6  A    between atoms: O_11  and  C_12
REMARK    7  A    between atoms: C_12  and  C_13
REMARK    8  A    between atoms: C_15  and  O_48
REMARK    9  A    between atoms: C_17  and  O_47
REMARK   10  A    between atoms: C_19  and  O_46
REMARK   11  A    between atoms: C_21  and  O_24
REMARK   12  A    between atoms: O_24  and  C_25
REMARK   13  A    between atoms: C_26  and  O_45
REMARK   14  A    between atoms: C_28  and  C_31
REMARK   15  A    between atoms: C_32  and  O_44
REMARK   16  A    between atoms: C_36  and  O_43
REMARK   17  A    between atoms: C_38  and  O_42
REMARK                            x       y       z     vdW  Elec       q    Type
REMARK                         _______ _______ _______ _____ _____    ______ ____
ROOT
ATOM      1  C   UNL     1       8.292   2.546  25.249  0.00  0.00    +0.191 C 
ATOM      2  O   UNL     1       8.841   1.308  24.782  0.00  0.00    -0.330 OA
ATOM      3  C   UNL     1       9.860   1.499  23.791  0.00  0.00    +0.339 C 
ATOM      4  C   UNL     1       9.245   2.163  22.537  0.00  0.00    +0.214 C 
ATOM      5  C   UNL     1       8.543   3.467  22.939  0.00  0.00    +0.180 C 
ATOM      6  C   UNL     1       7.556   3.241  24.093  0.00  0.00    +0.178 C 
ENDROOT
BRANCH   6   7
ATOM      7  O   UNL     1       7.020   4.517  24.455  0.00  0.00    -0.386 OA
ATOM      8  H   UNL     1       7.568   5.195  24.014  0.00  0.00    +0.210 HD
ENDBRANCH   6   7
BRANCH   5   9
ATOM      9  O   UNL     1       7.849   4.034  21.823  0.00  0.00    -0.386 OA
ATOM     10  H   UNL     1       7.495   3.273  21.321  0.00  0.00    +0.210 HD
ENDBRANCH   5   9
BRANCH   4  11
ATOM     11  O   UNL     1      10.264   2.391  21.548  0.00  0.00    -0.383 OA
ATOM     12  H   UNL     1      10.717   1.549  21.366  0.00  0.00    +0.210 HD
ENDBRANCH   4  11
BRANCH   3  13
ATOM     13  O   UNL     1      10.440   0.259  23.364  0.00  0.00    -0.457 OA
BRANCH  13  14
ATOM     14  C   UNL     1       9.720  -0.891  23.508  0.00  0.00    +0.165 A 
ATOM     15  C   UNL     1       9.483  -1.584  24.690  0.00  0.00    +0.050 A 
ATOM     16  C   UNL     1       8.554  -2.636  24.713  0.00  0.00    +0.015 A 
ATOM     17  C   UNL     1       7.883  -3.045  23.548  0.00  0.00    +0.025 A 
ATOM     18  C   UNL     1       8.277  -2.459  22.337  0.00  0.00    +0.060 A 
ATOM     19  C   UNL     1       9.138  -1.368  22.334  0.00  0.00    +0.159 A 
BRANCH  17  20
ATOM     20  C   UNL     1       6.776  -4.037  23.619  0.00  0.00    +0.181 A 
ATOM     21  O   UNL     1       5.579  -3.495  24.090  0.00  0.00    -0.451 OA
ATOM     22  C   UNL     1       4.456  -4.283  24.122  0.00  0.00    +0.147 A 
ATOM     23  C   UNL     1       4.481  -5.642  23.828  0.00  0.00    +0.109 A 
ATOM     24  C   UNL     1       3.315  -6.410  23.926  0.00  0.00    +0.135 A 
ATOM     25  C   UNL     1       2.115  -5.819  24.302  0.00  0.00    +0.091 A 
ATOM     26  C   UNL     1       2.091  -4.452  24.568  0.00  0.00    +0.124 A 
ATOM     27  C   UNL     1       5.742  -6.234  23.381  0.00  0.00    +0.238 A 
ATOM     28  O   UNL     1       5.797  -7.435  23.136  0.00  0.00    -0.283 OA
ATOM     29  C   UNL     1       3.250  -3.680  24.481  0.00  0.00    +0.092 A 
ATOM     30  C   UNL     1       6.900  -5.321  23.209  0.00  0.00    +0.208 A 
BRANCH  24  31
ATOM     31  O   UNL     1       3.282  -7.754  23.661  0.00  0.00    -0.506 OA
ATOM     32  H   UNL     1       3.332  -7.873  22.684  0.00  0.00    +0.292 HD
ENDBRANCH  24  31
BRANCH  30  33
ATOM     33  O   UNL     1       8.015  -5.870  22.602  0.00  0.00    -0.501 OA
ATOM     34  H   UNL     1       7.833  -6.797  22.375  0.00  0.00    +0.292 HD
ENDBRANCH  30  33
BRANCH  26  35
ATOM     35  O   UNL     1       0.934  -3.827  24.924  0.00  0.00    -0.507 OA
ATOM     36  H   UNL     1       0.767  -3.099  24.301  0.00  0.00    +0.292 HD
ENDBRANCH  26  35
ENDBRANCH  17  20
BRANCH  19  37
ATOM     37  O   UNL     1       9.362  -0.737  21.140  0.00  0.00    -0.503 OA
ATOM     38  H   UNL     1       8.669  -0.050  21.070  0.00  0.00    +0.292 HD
ENDBRANCH  19  37
ENDBRANCH  13  14
ENDBRANCH   3  13
BRANCH   1  39
ATOM     39  C   UNL     1       7.367   2.244  26.438  0.00  0.00    +0.266 C 
BRANCH  39  40
ATOM     40  O   UNL     1       7.332   0.845  26.764  0.00  0.00    -0.459 OA
BRANCH  40  41
ATOM     41  C   UNL     1       6.108   0.263  26.663  0.00  0.00    +0.332 C 
ATOM     42  O   UNL     1       5.053   0.838  26.446  0.00  0.00    -0.246 OA
BRANCH  41  44
ATOM     43  C   UNL     1       5.256  -1.941  27.283  0.00  0.00    +0.015 C 
ATOM     44  C   UNL     1       6.274  -1.196  26.827  0.00  0.00    +0.092 C 
BRANCH  43  46
ATOM     45  C   UNL     1       4.126  -4.078  27.832  0.00  0.00    +0.012 A 
ATOM     46  C   UNL     1       5.314  -3.398  27.496  0.00  0.00    -0.021 A 
ATOM     47  C   UNL     1       6.515  -4.120  27.448  0.00  0.00    +0.057 A 
ATOM     48  C   UNL     1       6.512  -5.487  27.717  0.00  0.00    +0.159 A 
ATOM     49  C   UNL     1       5.328  -6.148  28.043  0.00  0.00    +0.158 A 
ATOM     50  C   UNL     1       4.133  -5.454  28.100  0.00  0.00    +0.050 A 
BRANCH  49  51
ATOM     51  O   UNL     1       5.408  -7.487  28.308  0.00  0.00    -0.503 OA
ATOM     52  H   UNL     1       5.695  -7.941  27.494  0.00  0.00    +0.292 HD
ENDBRANCH  49  51
BRANCH  48  53
ATOM     53  O   UNL     1       7.685  -6.173  27.669  0.00  0.00    -0.503 OA
ATOM     54  H   UNL     1       7.988  -6.082  26.743  0.00  0.00    +0.292 HD
ENDBRANCH  48  53
ENDBRANCH  43  46
ENDBRANCH  41  44
ENDBRANCH  40  41
ENDBRANCH  39  40
ENDBRANCH   1  39
TORSDOF 17
ENDMDL
MODEL 7
REMARK VINA RESULT:      -7.5      1.774      8.613
REMARK  Name = 
REMARK  17 active torsions:
REMARK  status: ('A' for Active; 'I' for Inactive)
REMARK    1  A    between atoms: C_3  and  O_50
REMARK    2  A    between atoms: C_4  and  O_49
REMARK    3  A    between atoms: C_6  and  C_7
REMARK    4  A    between atoms: C_8  and  C_9
REMARK    5  A    between atoms: C_9  and  O_11
REMARK    6  A    between atoms: O_11  and  C_12
REMARK    7  A    between atoms: C_12  and  C_13
REMARK    8  A    between atoms: C_15  and  O_48
REMARK    9  A    between atoms: C_17  and  O_47
REMARK   10  A    between atoms: C_19  and  O_46
REMARK   11  A    between atoms: C_21  and  O_24
REMARK   12  A    between atoms: O_24  and  C_25
REMARK   13  A    between atoms: C_26  and  O_45
REMARK   14  A    between atoms: C_28  and  C_31
REMARK   15  A    between atoms: C_32  and  O_44
REMARK   16  A    between atoms: C_36  and  O_43
REMARK   17  A    between atoms: C_38  and  O_42
REMARK                            x       y       z     vdW  Elec       q    Type
REMARK                         _______ _______ _______ _____ _____    ______ ____
ROOT
ATOM      1  C   UNL     1       9.602   3.709  23.621  0.00  0.00    +0.191 C 
ATOM      2  O   UNL     1       8.937   3.129  24.748  0.00  0.00    -0.330 OA
ATOM      3  C   UNL     1       7.894   3.970  25.262  0.00  0.00    +0.339 C 
ATOM      4  C   UNL     1       8.505   5.288  25.791  0.00  0.00    +0.214 C 
ATOM      5  C   UNL     1       9.326   5.956  24.679  0.00  0.00    +0.180 C 
ATOM      6  C   UNL     1      10.340   4.981  24.068  0.00  0.00    +0.178 C 
ENDROOT
BRANCH   6   7
ATOM      7  O   UNL     1      10.992   5.660  22.990  0.00  0.00    -0.386 OA
ATOM      8  H   UNL     1      10.646   6.573  22.975  0.00  0.00    +0.210 HD
ENDBRANCH   6   7
BRANCH   5   9
ATOM      9  O   UNL     1      10.013   7.108  25.180  0.00  0.00    -0.386 OA
ATOM     10  H   UNL     1      10.475   6.806  25.988  0.00  0.00    +0.210 HD
ENDBRANCH   5   9
BRANCH   4  11
ATOM     11  O   UNL     1       7.465   6.154  26.278  0.00  0.00    -0.383 OA
ATOM     12  H   UNL     1       7.665   7.067  26.006  0.00  0.00    +0.210 HD
ENDBRANCH   4  11
BRANCH   3  13
ATOM     13  O   UNL     1       7.199   3.363  26.359  0.00  0.00    -0.457 OA
BRANCH  13  14
ATOM     14  C   UNL     1       6.570   2.167  26.161  0.00  0.00    +0.165 A 
ATOM     15  C   UNL     1       5.751   1.823  25.091  0.00  0.00    +0.050 A 
ATOM     16  C   UNL     1       5.342   0.491  24.921  0.00  0.00    +0.015 A 
ATOM     17  C   UNL     1       5.703  -0.508  25.840  0.00  0.00    +0.025 A 
ATOM     18  C   UNL     1       6.367  -0.103  27.007  0.00  0.00    +0.060 A 
ATOM     19  C   UNL     1       6.835   1.200  27.130  0.00  0.00    +0.159 A 
BRANCH  17  20
ATOM     20  C   UNL     1       5.415  -1.940  25.556  0.00  0.00    +0.181 A 
ATOM     21  O   UNL     1       5.597  -2.284  24.216  0.00  0.00    -0.451 OA
ATOM     22  C   UNL     1       5.448  -3.595  23.837  0.00  0.00    +0.147 A 
ATOM     23  C   UNL     1       4.996  -4.583  24.704  0.00  0.00    +0.109 A 
ATOM     24  C   UNL     1       4.814  -5.895  24.251  0.00  0.00    +0.135 A 
ATOM     25  C   UNL     1       5.100  -6.228  22.931  0.00  0.00    +0.091 A 
ATOM     26  C   UNL     1       5.580  -5.239  22.076  0.00  0.00    +0.124 A 
ATOM     27  C   UNL     1       4.753  -4.224  26.101  0.00  0.00    +0.238 A 
ATOM     28  O   UNL     1       4.332  -5.072  26.882  0.00  0.00    -0.283 OA
ATOM     29  C   UNL     1       5.756  -3.927  22.517  0.00  0.00    +0.092 A 
ATOM     30  C   UNL     1       5.072  -2.834  26.513  0.00  0.00    +0.208 A 
BRANCH  24  31
ATOM     31  O   UNL     1       4.358  -6.906  25.055  0.00  0.00    -0.506 OA
ATOM     32  H   UNL     1       3.717  -6.520  25.695  0.00  0.00    +0.292 HD
ENDBRANCH  24  31
BRANCH  30  33
ATOM     33  O   UNL     1       5.018  -2.582  27.872  0.00  0.00    -0.501 OA
ATOM     34  H   UNL     1       4.226  -2.055  28.070  0.00  0.00    +0.292 HD
ENDBRANCH  30  33
BRANCH  26  35
ATOM     35  O   UNL     1       5.889  -5.523  20.779  0.00  0.00    -0.507 OA
ATOM     36  H   UNL     1       6.372  -6.367  20.751  0.00  0.00    +0.292 HD
ENDBRANCH  26  35
ENDBRANCH  17  20
BRANCH  19  37
ATOM     37  O   UNL     1       7.612   1.497  28.216  0.00  0.00    -0.503 OA
ATOM     38  H   UNL     1       8.068   2.334  27.994  0.00  0.00    +0.292 HD
ENDBRANCH  19  37
ENDBRANCH  13  14
ENDBRANCH   3  13
BRANCH   1  39
ATOM     39  C   UNL     1      10.552   2.656  23.028  0.00  0.00    +0.266 C 
BRANCH  39  40
ATOM     40  O   UNL     1      10.149   1.314  23.347  0.00  0.00    -0.459 OA
BRANCH  40  41
ATOM     41  C   UNL     1       9.407   0.695  22.392  0.00  0.00    +0.332 C 
ATOM     42  O   UNL     1       9.139   1.142  21.287  0.00  0.00    -0.246 OA
BRANCH  41  44
ATOM     43  C   UNL     1       9.386  -1.023  24.128  0.00  0.00    +0.015 C 
ATOM     44  C   UNL     1       9.003  -0.630  22.904  0.00  0.00    +0.092 C 
BRANCH  43  46
ATOM     45  C   UNL     1       8.827  -2.385  26.123  0.00  0.00    +0.012 A 
ATOM     46  C   UNL     1       9.051  -2.325  24.732  0.00  0.00    -0.021 A 
ATOM     47  C   UNL     1       9.016  -3.515  23.991  0.00  0.00    +0.057 A 
ATOM     48  C   UNL     1       8.751  -4.722  24.632  0.00  0.00    +0.159 A 
ATOM     49  C   UNL     1       8.527  -4.766  26.008  0.00  0.00    +0.158 A 
ATOM     50  C   UNL     1       8.559  -3.605  26.759  0.00  0.00    +0.050 A 
BRANCH  49  51
ATOM     51  O   UNL     1       8.286  -5.991  26.567  0.00  0.00    -0.503 OA
ATOM     52  H   UNL     1       7.809  -5.854  27.405  0.00  0.00    +0.292 HD
ENDBRANCH  49  51
BRANCH  48  53
ATOM     53  O   UNL     1       8.724  -5.868  23.900  0.00  0.00    -0.503 OA
ATOM     54  H   UNL     1       9.474  -6.397  24.239  0.00  0.00    +0.292 HD
ENDBRANCH  48  53
ENDBRANCH  43  46
ENDBRANCH  41  44
ENDBRANCH  40  41
ENDBRANCH  39  40
ENDBRANCH   1  39
TORSDOF 17
ENDMDL
MODEL 8
REMARK VINA RESULT:      -7.5      1.726      8.713
REMARK  Name = 
REMARK  17 active torsions:
REMARK  status: ('A' for Active; 'I' for Inactive)
REMARK    1  A    between atoms: C_3  and  O_50
REMARK    2  A    between atoms: C_4  and  O_49
REMARK    3  A    between atoms: C_6  and  C_7
REMARK    4  A    between atoms: C_8  and  C_9
REMARK    5  A    between atoms: C_9  and  O_11
REMARK    6  A    between atoms: O_11  and  C_12
REMARK    7  A    between atoms: C_12  and  C_13
REMARK    8  A    between atoms: C_15  and  O_48
REMARK    9  A    between atoms: C_17  and  O_47
REMARK   10  A    between atoms: C_19  and  O_46
REMARK   11  A    between atoms: C_21  and  O_24
REMARK   12  A    between atoms: O_24  and  C_25
REMARK   13  A    between atoms: C_26  and  O_45
REMARK   14  A    between atoms: C_28  and  C_31
REMARK   15  A    between atoms: C_32  and  O_44
REMARK   16  A    between atoms: C_36  and  O_43
REMARK   17  A    between atoms: C_38  and  O_42
REMARK                            x       y       z     vdW  Elec       q    Type
REMARK                         _______ _______ _______ _____ _____    ______ ____
ROOT
ATOM      1  C   UNL     1       9.527   3.681  23.686  0.00  0.00    +0.191 C 
ATOM      2  O   UNL     1       8.945   2.985  24.794  0.00  0.00    -0.330 OA
ATOM      3  C   UNL     1       7.806   3.670  25.334  0.00  0.00    +0.339 C 
ATOM      4  C   UNL     1       8.247   5.036  25.907  0.00  0.00    +0.214 C 
ATOM      5  C   UNL     1       8.973   5.839  24.818  0.00  0.00    +0.180 C 
ATOM      6  C   UNL     1      10.100   5.020  24.175  0.00  0.00    +0.178 C 
ENDROOT
BRANCH   6   7
ATOM      7  O   UNL     1      10.657   5.811  23.120  0.00  0.00    -0.386 OA
ATOM      8  H   UNL     1       9.946   6.396  22.794  0.00  0.00    +0.210 HD
ENDBRANCH   6   7
BRANCH   5   9
ATOM      9  O   UNL     1       9.511   7.051  25.356  0.00  0.00    -0.386 OA
ATOM     10  H   UNL     1       9.546   6.915  26.324  0.00  0.00    +0.210 HD
ENDBRANCH   5   9
BRANCH   4  11
ATOM     11  O   UNL     1       7.109   5.748  26.422  0.00  0.00    -0.383 OA
ATOM     12  H   UNL     1       6.416   5.105  26.653  0.00  0.00    +0.210 HD
ENDBRANCH   4  11
BRANCH   3  13
ATOM     13  O   UNL     1       7.197   2.944  26.411  0.00  0.00    -0.457 OA
BRANCH  13  14
ATOM     14  C   UNL     1       6.597   1.747  26.144  0.00  0.00    +0.165 A 
ATOM     15  C   UNL     1       5.825   1.432  25.031  0.00  0.00    +0.050 A 
ATOM     16  C   UNL     1       5.446   0.101  24.794  0.00  0.00    +0.015 A 
ATOM     17  C   UNL     1       5.790  -0.928  25.687  0.00  0.00    +0.025 A 
ATOM     18  C   UNL     1       6.404  -0.558  26.893  0.00  0.00    +0.060 A 
ATOM     19  C   UNL     1       6.843   0.747  27.084  0.00  0.00    +0.159 A 
BRANCH  17  20
ATOM     20  C   UNL     1       5.539  -2.352  25.338  0.00  0.00    +0.181 A 
ATOM     21  O   UNL     1       5.255  -3.150  26.447  0.00  0.00    -0.451 OA
ATOM     22  C   UNL     1       4.920  -4.468  26.253  0.00  0.00    +0.147 A 
ATOM     23  C   UNL     1       4.974  -5.083  25.007  0.00  0.00    +0.109 A 
ATOM     24  C   UNL     1       4.670  -6.443  24.875  0.00  0.00    +0.135 A 
ATOM     25  C   UNL     1       4.293  -7.189  25.986  0.00  0.00    +0.091 A 
ATOM     26  C   UNL     1       4.213  -6.559  27.226  0.00  0.00    +0.124 A 
ATOM     27  C   UNL     1       5.320  -4.268  23.844  0.00  0.00    +0.238 A 
ATOM     28  O   UNL     1       5.396  -4.792  22.736  0.00  0.00    -0.283 OA
ATOM     29  C   UNL     1       4.523  -5.207  27.368  0.00  0.00    +0.092 A 
ATOM     30  C   UNL     1       5.525  -2.815  24.066  0.00  0.00    +0.208 A 
BRANCH  24  31
ATOM     31  O   UNL     1       4.719  -7.106  23.678  0.00  0.00    -0.506 OA
ATOM     32  H   UNL     1       4.867  -8.062  23.866  0.00  0.00    +0.292 HD
ENDBRANCH  24  31
BRANCH  30  33
ATOM     33  O   UNL     1       5.656  -2.044  22.925  0.00  0.00    -0.501 OA
ATOM     34  H   UNL     1       4.876  -1.473  22.832  0.00  0.00    +0.292 HD
ENDBRANCH  30  33
BRANCH  26  35
ATOM     35  O   UNL     1       3.833  -7.247  28.339  0.00  0.00    -0.507 OA
ATOM     36  H   UNL     1       4.561  -7.833  28.608  0.00  0.00    +0.292 HD
ENDBRANCH  26  35
ENDBRANCH  17  20
BRANCH  19  37
ATOM     37  O   UNL     1       7.576   1.014  28.208  0.00  0.00    -0.503 OA
ATOM     38  H   UNL     1       7.614   0.172  28.705  0.00  0.00    +0.292 HD
ENDBRANCH  19  37
ENDBRANCH  13  14
ENDBRANCH   3  13
BRANCH   1  39
ATOM     39  C   UNL     1      10.599   2.776  23.059  0.00  0.00    +0.266 C 
BRANCH  39  40
ATOM     40  O   UNL     1      10.343   1.381  23.290  0.00  0.00    -0.459 OA
BRANCH  40  41
ATOM     41  C   UNL     1       9.599   0.768  22.332  0.00  0.00    +0.332 C 
ATOM     42  O   UNL     1       9.334   1.219  21.228  0.00  0.00    -0.246 OA
BRANCH  41  44
ATOM     43  C   UNL     1       9.505  -0.925  24.090  0.00  0.00    +0.015 C 
ATOM     44  C   UNL     1       9.188  -0.556  22.840  0.00  0.00    +0.092 C 
BRANCH  43  46
ATOM     45  C   UNL     1       9.030  -2.303  26.096  0.00  0.00    +0.012 A 
ATOM     46  C   UNL     1       9.157  -2.224  24.694  0.00  0.00    -0.021 A 
ATOM     47  C   UNL     1       9.019  -3.396  23.936  0.00  0.00    +0.057 A 
ATOM     48  C   UNL     1       8.748  -4.604  24.573  0.00  0.00    +0.159 A 
ATOM     49  C   UNL     1       8.619  -4.667  25.961  0.00  0.00    +0.158 A 
ATOM     50  C   UNL     1       8.755  -3.524  26.727  0.00  0.00    +0.050 A 
BRANCH  49  51
ATOM     51  O   UNL     1       8.366  -5.891  26.514  0.00  0.00    -0.503 OA
ATOM     52  H   UNL     1       8.531  -6.571  25.836  0.00  0.00    +0.292 HD
ENDBRANCH  49  51
BRANCH  48  53
ATOM     53  O   UNL     1       8.619  -5.733  23.825  0.00  0.00    -0.503 OA
ATOM     54  H   UNL     1       7.697  -5.710  23.501  0.00  0.00    +0.292 HD
ENDBRANCH  48  53
ENDBRANCH  43  46
ENDBRANCH  41  44
ENDBRANCH  40  41
ENDBRANCH  39  40
ENDBRANCH   1  39
TORSDOF 17
ENDMDL
MODEL 9
REMARK VINA RESULT:      -7.5      1.725      8.799
REMARK  Name = 
REMARK  17 active torsions:
REMARK  status: ('A' for Active; 'I' for Inactive)
REMARK    1  A    between atoms: C_3  and  O_50
REMARK    2  A    between atoms: C_4  and  O_49
REMARK    3  A    between atoms: C_6  and  C_7
REMARK    4  A    between atoms: C_8  and  C_9
REMARK    5  A    between atoms: C_9  and  O_11
REMARK    6  A    between atoms: O_11  and  C_12
REMARK    7  A    between atoms: C_12  and  C_13
REMARK    8  A    between atoms: C_15  and  O_48
REMARK    9  A    between atoms: C_17  and  O_47
REMARK   10  A    between atoms: C_19  and  O_46
REMARK   11  A    between atoms: C_21  and  O_24
REMARK   12  A    between atoms: O_24  and  C_25
REMARK   13  A    between atoms: C_26  and  O_45
REMARK   14  A    between atoms: C_28  and  C_31
REMARK   15  A    between atoms: C_32  and  O_44
REMARK   16  A    between atoms: C_36  and  O_43
REMARK   17  A    between atoms: C_38  and  O_42
REMARK                            x       y       z     vdW  Elec       q    Type
REMARK                         _______ _______ _______ _____ _____    ______ ____
ROOT
ATOM      1  C   UNL     1       9.814   3.793  23.372  0.00  0.00    +0.191 C 
ATOM      2  O   UNL     1       8.857   3.477  24.389  0.00  0.00    -0.330 OA
ATOM      3  C   UNL     1       7.989   4.580  24.688  0.00  0.00    +0.339 C 
ATOM      4  C   UNL     1       8.819   5.748  25.268  0.00  0.00    +0.214 C 
ATOM      5  C   UNL     1       9.944   6.114  24.290  0.00  0.00    +0.180 C 
ATOM      6  C   UNL     1      10.766   4.880  23.894  0.00  0.00    +0.178 C 
ENDROOT
BRANCH   6   7
ATOM      7  O   UNL     1      11.727   5.300  22.920  0.00  0.00    -0.386 OA
ATOM      8  H   UNL     1      11.229   5.616  22.142  0.00  0.00    +0.210 HD
ENDBRANCH   6   7
BRANCH   5   9
ATOM      9  O   UNL     1      10.809   7.101  24.860  0.00  0.00    -0.386 OA
ATOM     10  H   UNL     1      10.947   7.766  24.155  0.00  0.00    +0.210 HD
ENDBRANCH   5   9
BRANCH   4  11
ATOM     11  O   UNL     1       7.965   6.873  25.540  0.00  0.00    -0.383 OA
ATOM     12  H   UNL     1       8.486   7.558  25.994  0.00  0.00    +0.210 HD
ENDBRANCH   4  11
BRANCH   3  13
ATOM     13  O   UNL     1       7.001   4.242  25.671  0.00  0.00    -0.457 OA
BRANCH  13  14
ATOM     14  C   UNL     1       6.581   2.946  25.766  0.00  0.00    +0.165 A 
ATOM     15  C   UNL     1       5.903   2.216  24.796  0.00  0.00    +0.050 A 
ATOM     16  C   UNL     1       5.719   0.834  24.959  0.00  0.00    +0.015 A 
ATOM     17  C   UNL     1       6.165   0.168  26.112  0.00  0.00    +0.025 A 
ATOM     18  C   UNL     1       6.675   0.954  27.156  0.00  0.00    +0.060 A 
ATOM     19  C   UNL     1       6.924   2.306  26.956  0.00  0.00    +0.159 A 
BRANCH  17  20
ATOM     20  C   UNL     1       6.124  -1.317  26.194  0.00  0.00    +0.181 A 
ATOM     21  O   UNL     1       4.907  -1.859  25.778  0.00  0.00    -0.451 OA
ATOM     22  C   UNL     1       4.767  -3.224  25.723  0.00  0.00    +0.147 A 
ATOM     23  C   UNL     1       5.743  -4.100  26.188  0.00  0.00    +0.109 A 
ATOM     24  C   UNL     1       5.527  -5.482  26.154  0.00  0.00    +0.135 A 
ATOM     25  C   UNL     1       4.342  -5.996  25.640  0.00  0.00    +0.091 A 
ATOM     26  C   UNL     1       3.382  -5.114  25.151  0.00  0.00    +0.124 A 
ATOM     27  C   UNL     1       7.004  -3.541  26.674  0.00  0.00    +0.238 A 
ATOM     28  O   UNL     1       7.872  -4.291  27.110  0.00  0.00    -0.283 OA
ATOM     29  C   UNL     1       3.584  -3.734  25.188  0.00  0.00    +0.092 A 
ATOM     30  C   UNL     1       7.182  -2.071  26.575  0.00  0.00    +0.208 A 
BRANCH  24  31
ATOM     31  O   UNL     1       6.445  -6.392  26.609  0.00  0.00    -0.506 OA
ATOM     32  H   UNL     1       6.233  -6.592  27.551  0.00  0.00    +0.292 HD
ENDBRANCH  24  31
BRANCH  30  33
ATOM     33  O   UNL     1       8.450  -1.598  26.858  0.00  0.00    -0.501 OA
ATOM     34  H   UNL     1       8.426  -1.087  27.684  0.00  0.00    +0.292 HD
ENDBRANCH  30  33
BRANCH  26  35
ATOM     35  O   UNL     1       2.212  -5.573  24.623  0.00  0.00    -0.507 OA
ATOM     36  H   UNL     1       2.407  -6.049  23.798  0.00  0.00    +0.292 HD
ENDBRANCH  26  35
ENDBRANCH  17  20
BRANCH  19  37
ATOM     37  O   UNL     1       7.568   2.989  27.953  0.00  0.00    -0.503 OA
ATOM     38  H   UNL     1       7.063   3.818  28.074  0.00  0.00    +0.292 HD
ENDBRANCH  19  37
ENDBRANCH  13  14
ENDBRANCH   3  13
BRANCH   1  39
ATOM     39  C   UNL     1      10.551   2.501  22.986  0.00  0.00    +0.266 C 
BRANCH  39  40
ATOM     40  O   UNL     1       9.767   1.325  23.245  0.00  0.00    -0.459 OA
BRANCH  40  41
ATOM     41  C   UNL     1      10.363   0.404  24.047  0.00  0.00    +0.332 C 
ATOM     42  O   UNL     1      11.247   0.622  24.861  0.00  0.00    -0.246 OA
BRANCH  41  44
ATOM     43  C   UNL     1       8.499  -0.975  23.277  0.00  0.00    +0.015 C 
ATOM     44  C   UNL     1       9.736  -0.909  23.791  0.00  0.00    +0.092 C 
BRANCH  43  46
ATOM     45  C   UNL     1       6.459  -2.146  22.496  0.00  0.00    +0.012 A 
ATOM     46  C   UNL     1       7.775  -2.227  22.994  0.00  0.00    -0.021 A 
ATOM     47  C   UNL     1       8.318  -3.491  23.266  0.00  0.00    +0.057 A 
ATOM     48  C   UNL     1       7.560  -4.635  23.031  0.00  0.00    +0.159 A 
ATOM     49  C   UNL     1       6.260  -4.541  22.533  0.00  0.00    +0.158 A 
ATOM     50  C   UNL     1       5.704  -3.305  22.261  0.00  0.00    +0.050 A 
BRANCH  49  51
ATOM     51  O   UNL     1       5.575  -5.709  22.341  0.00  0.00    -0.503 OA
ATOM     52  H   UNL     1       4.928  -5.567  21.626  0.00  0.00    +0.292 HD
ENDBRANCH  49  51
BRANCH  48  53
ATOM     53  O   UNL     1       8.099  -5.854  23.303  0.00  0.00    -0.503 OA
ATOM     54  H   UNL     1       8.846  -5.665  23.906  0.00  0.00    +0.292 HD
ENDBRANCH  48  53
ENDBRANCH  43  46
ENDBRANCH  41  44
ENDBRANCH  40  41
ENDBRANCH  39  40
ENDBRANCH   1  39
TORSDOF 17
ENDMDL
