MODEL 1
REMARK VINA RESULT:      -7.5      0.000      0.000
REMARK  Name = 
REMARK  12 active torsions:
REMARK  status: ('A' for Active; 'I' for Inactive)
REMARK    1  A    between atoms: C_3  and  O_38
REMARK    2  A    between atoms: C_4  and  O_37
REMARK    3  A    between atoms: C_6  and  C_7
REMARK    4  A    between atoms: C_8  and  O_20
REMARK    5  A    between atoms: C_12  and  O_19
REMARK    6  A    between atoms: C_14  and  O_18
REMARK    7  A    between atoms: O_20  and  C_21
REMARK    8  A    between atoms: C_23  and  O_36
REMARK    9  A    between atoms: C_25  and  O_35
REMARK   10  A    between atoms: C_27  and  O_34
REMARK   11  A    between atoms: C_29  and  C_32
REMARK   12  A    between atoms: C_32  and  O_33
REMARK                            x       y       z     vdW  Elec       q    Type
REMARK                         _______ _______ _______ _____ _____    ______ ____
ROOT
ATOM      1  C   UNL     1       6.037  -2.255  24.745  0.00  0.00    +0.181 A 
ATOM      2  O   UNL     1       4.760  -2.740  25.017  0.00  0.00    -0.451 OA
ATOM      3  C   UNL     1       4.262  -3.803  24.321  0.00  0.00    +0.147 A 
ATOM      4  C   UNL     1       5.023  -4.507  23.405  0.00  0.00    +0.109 A 
ATOM      5  C   UNL     1       4.499  -5.663  22.805  0.00  0.00    +0.135 A 
ATOM      6  C   UNL     1       3.196  -6.076  23.079  0.00  0.00    +0.091 A 
ATOM      7  C   UNL     1       2.423  -5.322  23.954  0.00  0.00    +0.124 A 
ATOM      8  C   UNL     1       6.352  -3.983  23.063  0.00  0.00    +0.238 A 
ATOM      9  O   UNL     1       7.036  -4.597  22.248  0.00  0.00    -0.283 OA
ATOM     10  C   UNL     1       2.949  -4.197  24.588  0.00  0.00    +0.092 A 
ATOM     11  C   UNL     1       6.820  -2.728  23.731  0.00  0.00    +0.214 A 
ENDROOT
BRANCH   1  13
ATOM     12  C   UNL     1       5.613  -0.057  25.937  0.00  0.00    +0.015 A 
ATOM     13  C   UNL     1       6.411  -1.195  25.722  0.00  0.00    +0.025 A 
ATOM     14  C   UNL     1       7.645  -1.256  26.392  0.00  0.00    +0.060 A 
ATOM     15  C   UNL     1       7.984  -0.288  27.331  0.00  0.00    +0.159 A 
ATOM     16  C   UNL     1       7.096   0.729  27.654  0.00  0.00    +0.158 A 
ATOM     17  C   UNL     1       5.920   0.873  26.938  0.00  0.00    +0.050 A 
BRANCH  15  18
ATOM     18  O   UNL     1       9.202  -0.349  27.945  0.00  0.00    -0.503 OA
ATOM     19  H   UNL     1       9.561  -1.228  27.708  0.00  0.00    +0.292 HD
ENDBRANCH  15  18
BRANCH  16  20
ATOM     20  O   UNL     1       7.424   1.562  28.683  0.00  0.00    -0.503 OA
ATOM     21  H   UNL     1       6.711   1.520  29.345  0.00  0.00    +0.292 HD
ENDBRANCH  16  20
ENDBRANCH   1  13
BRANCH   5  22
ATOM     22  O   UNL     1       5.221  -6.452  21.949  0.00  0.00    -0.506 OA
ATOM     23  H   UNL     1       5.964  -5.912  21.592  0.00  0.00    +0.292 HD
ENDBRANCH   5  22
BRANCH   7  24
ATOM     24  O   UNL     1       1.129  -5.659  24.227  0.00  0.00    -0.507 OA
ATOM     25  H   UNL     1       1.122  -6.376  24.884  0.00  0.00    +0.292 HD
ENDBRANCH   7  24
BRANCH  11  26
ATOM     26  O   UNL     1       8.035  -2.301  23.262  0.00  0.00    -0.453 OA
BRANCH  26  27
ATOM     27  C   UNL     1       8.388  -0.964  22.906  0.00  0.00    +0.340 C 
ATOM     28  O   UNL     1       9.290  -0.494  23.931  0.00  0.00    -0.331 OA
ATOM     29  C   UNL     1       9.600   0.909  23.861  0.00  0.00    +0.179 C 
ATOM     30  C   UNL     1      10.212   1.287  22.501  0.00  0.00    +0.177 C 
ATOM     31  C   UNL     1       9.436   0.686  21.315  0.00  0.00    +0.180 C 
ATOM     32  C   UNL     1       9.103  -0.802  21.549  0.00  0.00    +0.214 C 
BRANCH  30  33
ATOM     33  O   UNL     1      10.322   2.705  22.367  0.00  0.00    -0.386 OA
ATOM     34  H   UNL     1      10.497   2.883  21.419  0.00  0.00    +0.210 HD
ENDBRANCH  30  33
BRANCH  31  35
ATOM     35  O   UNL     1       8.291   1.518  21.058  0.00  0.00    -0.386 OA
ATOM     36  H   UNL     1       8.558   2.415  20.798  0.00  0.00    +0.210 HD
ENDBRANCH  31  35
BRANCH  32  37
ATOM     37  O   UNL     1      10.327  -1.555  21.525  0.00  0.00    -0.383 OA
ATOM     38  H   UNL     1      10.873  -1.258  22.283  0.00  0.00    +0.210 HD
ENDBRANCH  32  37
BRANCH  29  39
ATOM     39  C   UNL     1       8.414   1.788  24.299  0.00  0.00    +0.190 C 
BRANCH  39  40
ATOM     40  O   UNL     1       8.832   2.830  25.182  0.00  0.00    -0.392 OA
ATOM     41  H   UNL     1       8.609   3.682  24.765  0.00  0.00    +0.210 HD
ENDBRANCH  39  40
ENDBRANCH  29  39
ENDBRANCH  26  27
ENDBRANCH  11  26
TORSDOF 12
ENDMDL
MODEL 2
REMARK VINA RESULT:      -7.0      1.390      2.254
REMARK  Name = 
REMARK  12 active torsions:
REMARK  status: ('A' for Active; 'I' for Inactive)
REMARK    1  A    between atoms: C_3  and  O_38
REMARK    2  A    between atoms: C_4  and  O_37
REMARK    3  A    between atoms: C_6  and  C_7
REMARK    4  A    between atoms: C_8  and  O_20
REMARK    5  A    between atoms: C_12  and  O_19
REMARK    6  A    between atoms: C_14  and  O_18
REMARK    7  A    between atoms: O_20  and  C_21
REMARK    8  A    between atoms: C_23  and  O_36
REMARK    9  A    between atoms: C_25  and  O_35
REMARK   10  A    between atoms: C_27  and  O_34
REMARK   11  A    between atoms: C_29  and  C_32
REMARK   12  A    between atoms: C_32  and  O_33
REMARK                            x       y       z     vdW  Elec       q    Type
REMARK                         _______ _______ _______ _____ _____    ______ ____
ROOT
ATOM      1  C   UNL     1       5.913  -2.335  24.983  0.00  0.00    +0.181 A 
ATOM      2  O   UNL     1       5.468  -3.481  25.638  0.00  0.00    -0.451 OA
ATOM      3  C   UNL     1       5.107  -4.587  24.925  0.00  0.00    +0.147 A 
ATOM      4  C   UNL     1       5.264  -4.665  23.553  0.00  0.00    +0.109 A 
ATOM      5  C   UNL     1       4.986  -5.869  22.886  0.00  0.00    +0.135 A 
ATOM      6  C   UNL     1       4.497  -6.970  23.586  0.00  0.00    +0.091 A 
ATOM      7  C   UNL     1       4.285  -6.857  24.954  0.00  0.00    +0.124 A 
ATOM      8  C   UNL     1       5.681  -3.452  22.836  0.00  0.00    +0.238 A 
ATOM      9  O   UNL     1       5.820  -3.507  21.617  0.00  0.00    -0.283 OA
ATOM     10  C   UNL     1       4.599  -5.679  25.633  0.00  0.00    +0.092 A 
ATOM     11  C   UNL     1       5.929  -2.204  23.624  0.00  0.00    +0.214 A 
ENDROOT
BRANCH   1  13
ATOM     12  C   UNL     1       5.560  -0.268  26.411  0.00  0.00    +0.015 A 
ATOM     13  C   UNL     1       6.381  -1.321  25.969  0.00  0.00    +0.025 A 
ATOM     14  C   UNL     1       7.715  -1.332  26.413  0.00  0.00    +0.060 A 
ATOM     15  C   UNL     1       8.149  -0.411  27.359  0.00  0.00    +0.159 A 
ATOM     16  C   UNL     1       7.266   0.507  27.912  0.00  0.00    +0.158 A 
ATOM     17  C   UNL     1       5.976   0.609  27.421  0.00  0.00    +0.050 A 
BRANCH  15  18
ATOM     18  O   UNL     1       9.457  -0.418  27.752  0.00  0.00    -0.503 OA
ATOM     19  H   UNL     1       9.955  -0.706  26.961  0.00  0.00    +0.292 HD
ENDBRANCH  15  18
BRANCH  16  20
ATOM     20  O   UNL     1       7.714   1.288  28.938  0.00  0.00    -0.503 OA
ATOM     21  H   UNL     1       7.544   0.817  29.773  0.00  0.00    +0.292 HD
ENDBRANCH  16  20
ENDBRANCH   1  13
BRANCH   5  22
ATOM     22  O   UNL     1       5.191  -6.041  21.542  0.00  0.00    -0.506 OA
ATOM     23  H   UNL     1       4.374  -5.757  21.071  0.00  0.00    +0.292 HD
ENDBRANCH   5  22
BRANCH   7  24
ATOM     24  O   UNL     1       3.771  -7.892  25.680  0.00  0.00    -0.507 OA
ATOM     25  H   UNL     1       4.505  -8.391  26.079  0.00  0.00    +0.292 HD
ENDBRANCH   7  24
BRANCH  11  26
ATOM     26  O   UNL     1       6.227  -1.128  22.830  0.00  0.00    -0.453 OA
BRANCH  26  27
ATOM     27  C   UNL     1       7.342  -0.247  22.973  0.00  0.00    +0.340 C 
ATOM     28  O   UNL     1       8.007  -0.221  21.692  0.00  0.00    -0.331 OA
ATOM     29  C   UNL     1       9.277   0.455  21.689  0.00  0.00    +0.179 C 
ATOM     30  C   UNL     1       9.146   1.910  22.169  0.00  0.00    +0.177 C 
ATOM     31  C   UNL     1       8.293   2.039  23.444  0.00  0.00    +0.180 C 
ATOM     32  C   UNL     1       6.996   1.210  23.346  0.00  0.00    +0.214 C 
BRANCH  30  33
ATOM     33  O   UNL     1      10.432   2.503  22.359  0.00  0.00    -0.386 OA
ATOM     34  H   UNL     1      11.036   1.780  22.630  0.00  0.00    +0.210 HD
ENDBRANCH  30  33
BRANCH  31  35
ATOM     35  O   UNL     1       9.121   1.715  24.575  0.00  0.00    -0.386 OA
ATOM     36  H   UNL     1       9.225   2.480  25.166  0.00  0.00    +0.210 HD
ENDBRANCH  31  35
BRANCH  32  37
ATOM     37  O   UNL     1       6.146   1.803  22.350  0.00  0.00    -0.383 OA
ATOM     38  H   UNL     1       5.218   1.610  22.599  0.00  0.00    +0.210 HD
ENDBRANCH  32  37
BRANCH  29  39
ATOM     39  C   UNL     1      10.370  -0.362  22.403  0.00  0.00    +0.190 C 
BRANCH  39  40
ATOM     40  O   UNL     1      10.481  -1.677  21.856  0.00  0.00    -0.392 OA
ATOM     41  H   UNL     1      11.316  -1.723  21.355  0.00  0.00    +0.210 HD
ENDBRANCH  39  40
ENDBRANCH  29  39
ENDBRANCH  26  27
ENDBRANCH  11  26
TORSDOF 12
ENDMDL
MODEL 3
REMARK VINA RESULT:      -7.0      2.181      8.006
REMARK  Name = 
REMARK  12 active torsions:
REMARK  status: ('A' for Active; 'I' for Inactive)
REMARK    1  A    between atoms: C_3  and  O_38
REMARK    2  A    between atoms: C_4  and  O_37
REMARK    3  A    between atoms: C_6  and  C_7
REMARK    4  A    between atoms: C_8  and  O_20
REMARK    5  A    between atoms: C_12  and  O_19
REMARK    6  A    between atoms: C_14  and  O_18
REMARK    7  A    between atoms: O_20  and  C_21
REMARK    8  A    between atoms: C_23  and  O_36
REMARK    9  A    between atoms: C_25  and  O_35
REMARK   10  A    between atoms: C_27  and  O_34
REMARK   11  A    between atoms: C_29  and  C_32
REMARK   12  A    between atoms: C_32  and  O_33
REMARK                            x       y       z     vdW  Elec       q    Type
REMARK                         _______ _______ _______ _____ _____    ______ ____
ROOT
ATOM      1  C   UNL     1       7.351  -1.698  23.482  0.00  0.00    +0.181 A 
ATOM      2  O   UNL     1       8.332  -1.042  22.742  0.00  0.00    -0.451 OA
ATOM      3  C   UNL     1       8.686   0.239  23.048  0.00  0.00    +0.147 A 
ATOM      4  C   UNL     1       8.179   0.901  24.152  0.00  0.00    +0.109 A 
ATOM      5  C   UNL     1       8.667   2.175  24.486  0.00  0.00    +0.135 A 
ATOM      6  C   UNL     1       9.615   2.804  23.682  0.00  0.00    +0.091 A 
ATOM      7  C   UNL     1      10.068   2.152  22.541  0.00  0.00    +0.124 A 
ATOM      8  C   UNL     1       7.106   0.250  24.915  0.00  0.00    +0.238 A 
ATOM      9  O   UNL     1       6.645   0.830  25.895  0.00  0.00    -0.283 OA
ATOM     10  C   UNL     1       9.622   0.869  22.225  0.00  0.00    +0.092 A 
ATOM     11  C   UNL     1       6.628  -1.096  24.472  0.00  0.00    +0.214 A 
ENDROOT
BRANCH   1  13
ATOM     12  C   UNL     1       7.916  -4.159  23.723  0.00  0.00    +0.015 A 
ATOM     13  C   UNL     1       7.241  -3.122  23.055  0.00  0.00    +0.025 A 
ATOM     14  C   UNL     1       6.529  -3.457  21.890  0.00  0.00    +0.060 A 
ATOM     15  C   UNL     1       6.394  -4.786  21.507  0.00  0.00    +0.159 A 
ATOM     16  C   UNL     1       6.922  -5.806  22.286  0.00  0.00    +0.158 A 
ATOM     17  C   UNL     1       7.714  -5.503  23.380  0.00  0.00    +0.050 A 
BRANCH  15  18
ATOM     18  O   UNL     1       5.727  -5.086  20.354  0.00  0.00    -0.503 OA
ATOM     19  H   UNL     1       6.146  -5.908  20.027  0.00  0.00    +0.292 HD
ENDBRANCH  15  18
BRANCH  16  20
ATOM     20  O   UNL     1       6.634  -7.094  21.936  0.00  0.00    -0.503 OA
ATOM     21  H   UNL     1       6.173  -7.077  21.079  0.00  0.00    +0.292 HD
ENDBRANCH  16  20
ENDBRANCH   1  13
BRANCH   5  22
ATOM     22  O   UNL     1       8.267   2.856  25.606  0.00  0.00    -0.506 OA
ATOM     23  H   UNL     1       7.316   2.653  25.762  0.00  0.00    +0.292 HD
ENDBRANCH   5  22
BRANCH   7  24
ATOM     24  O   UNL     1      10.966   2.740  21.698  0.00  0.00    -0.507 OA
ATOM     25  H   UNL     1      10.639   3.622  21.455  0.00  0.00    +0.292 HD
ENDBRANCH   7  24
BRANCH  11  26
ATOM     26  O   UNL     1       5.569  -1.553  25.214  0.00  0.00    -0.453 OA
BRANCH  26  27
ATOM     27  C   UNL     1       5.301  -2.909  25.570  0.00  0.00    +0.340 C 
ATOM     28  O   UNL     1       5.446  -2.991  27.004  0.00  0.00    -0.331 OA
ATOM     29  C   UNL     1       5.415  -4.326  27.536  0.00  0.00    +0.179 C 
ATOM     30  C   UNL     1       4.112  -5.054  27.164  0.00  0.00    +0.177 C 
ATOM     31  C   UNL     1       3.745  -4.889  25.678  0.00  0.00    +0.180 C 
ATOM     32  C   UNL     1       3.890  -3.424  25.217  0.00  0.00    +0.214 C 
BRANCH  30  33
ATOM     33  O   UNL     1       4.181  -6.437  27.516  0.00  0.00    -0.386 OA
ATOM     34  H   UNL     1       4.333  -6.930  26.683  0.00  0.00    +0.210 HD
ENDBRANCH  30  33
BRANCH  31  35
ATOM     35  O   UNL     1       4.518  -5.832  24.915  0.00  0.00    -0.386 OA
ATOM     36  H   UNL     1       4.525  -6.707  25.339  0.00  0.00    +0.210 HD
ENDBRANCH  31  35
BRANCH  32  37
ATOM     37  O   UNL     1       2.882  -2.635  25.870  0.00  0.00    -0.383 OA
ATOM     38  H   UNL     1       3.155  -1.696  25.810  0.00  0.00    +0.210 HD
ENDBRANCH  32  37
BRANCH  29  39
ATOM     39  C   UNL     1       6.703  -5.108  27.216  0.00  0.00    +0.190 C 
BRANCH  39  40
ATOM     40  O   UNL     1       7.046  -6.005  28.273  0.00  0.00    -0.392 OA
ATOM     41  H   UNL     1       6.218  -6.314  28.684  0.00  0.00    +0.210 HD
ENDBRANCH  39  40
ENDBRANCH  29  39
ENDBRANCH  26  27
ENDBRANCH  11  26
TORSDOF 12
ENDMDL
MODEL 4
REMARK VINA RESULT:      -6.9      2.402      6.719
REMARK  Name = 
REMARK  12 active torsions:
REMARK  status: ('A' for Active; 'I' for Inactive)
REMARK    1  A    between atoms: C_3  and  O_38
REMARK    2  A    between atoms: C_4  and  O_37
REMARK    3  A    between atoms: C_6  and  C_7
REMARK    4  A    between atoms: C_8  and  O_20
REMARK    5  A    between atoms: C_12  and  O_19
REMARK    6  A    between atoms: C_14  and  O_18
REMARK    7  A    between atoms: O_20  and  C_21
REMARK    8  A    between atoms: C_23  and  O_36
REMARK    9  A    between atoms: C_25  and  O_35
REMARK   10  A    between atoms: C_27  and  O_34
REMARK   11  A    between atoms: C_29  and  C_32
REMARK   12  A    between atoms: C_32  and  O_33
REMARK                            x       y       z     vdW  Elec       q    Type
REMARK                         _______ _______ _______ _____ _____    ______ ____
ROOT
ATOM      1  C   UNL     1       6.774   0.354  25.386  0.00  0.00    +0.181 A 
ATOM      2  O   UNL     1       7.692   1.396  25.276  0.00  0.00    -0.451 OA
ATOM      3  C   UNL     1       8.561   1.443  24.225  0.00  0.00    +0.147 A 
ATOM      4  C   UNL     1       8.504   0.539  23.180  0.00  0.00    +0.109 A 
ATOM      5  C   UNL     1       9.345   0.705  22.068  0.00  0.00    +0.135 A 
ATOM      6  C   UNL     1      10.278   1.739  22.033  0.00  0.00    +0.091 A 
ATOM      7  C   UNL     1      10.366   2.602  23.119  0.00  0.00    +0.124 A 
ATOM      8  C   UNL     1       7.580  -0.598  23.299  0.00  0.00    +0.238 A 
ATOM      9  O   UNL     1       7.524  -1.410  22.379  0.00  0.00    -0.283 OA
ATOM     10  C   UNL     1       9.506   2.471  24.209  0.00  0.00    +0.092 A 
ATOM     11  C   UNL     1       6.741  -0.711  24.532  0.00  0.00    +0.214 A 
ENDROOT
BRANCH   1  13
ATOM     12  C   UNL     1       4.478   0.858  26.338  0.00  0.00    +0.015 A 
ATOM     13  C   UNL     1       5.846   0.595  26.526  0.00  0.00    +0.025 A 
ATOM     14  C   UNL     1       6.345   0.669  27.839  0.00  0.00    +0.060 A 
ATOM     15  C   UNL     1       5.480   0.859  28.910  0.00  0.00    +0.159 A 
ATOM     16  C   UNL     1       4.109   0.937  28.709  0.00  0.00    +0.158 A 
ATOM     17  C   UNL     1       3.598   0.970  27.423  0.00  0.00    +0.050 A 
BRANCH  15  18
ATOM     18  O   UNL     1       5.990   0.961  30.172  0.00  0.00    -0.503 OA
ATOM     19  H   UNL     1       5.414   0.394  30.724  0.00  0.00    +0.292 HD
ENDBRANCH  15  18
BRANCH  16  20
ATOM     20  O   UNL     1       3.302   0.978  29.809  0.00  0.00    -0.503 OA
ATOM     21  H   UNL     1       2.937   0.086  29.949  0.00  0.00    +0.292 HD
ENDBRANCH  16  20
ENDBRANCH   1  13
BRANCH   5  22
ATOM     22  O   UNL     1       9.290  -0.106  20.964  0.00  0.00    -0.506 OA
ATOM     23  H   UNL     1      10.147  -0.024  20.484  0.00  0.00    +0.292 HD
ENDBRANCH   5  22
BRANCH   7  24
ATOM     24  O   UNL     1      11.289   3.607  23.153  0.00  0.00    -0.507 OA
ATOM     25  H   UNL     1      11.385   3.975  22.258  0.00  0.00    +0.292 HD
ENDBRANCH   7  24
BRANCH  11  26
ATOM     26  O   UNL     1       5.990  -1.858  24.557  0.00  0.00    -0.453 OA
BRANCH  26  27
ATOM     27  C   UNL     1       6.358  -3.104  25.150  0.00  0.00    +0.340 C 
ATOM     28  O   UNL     1       7.606  -2.875  25.839  0.00  0.00    -0.331 OA
ATOM     29  C   UNL     1       8.247  -4.064  26.333  0.00  0.00    +0.179 C 
ATOM     30  C   UNL     1       7.330  -4.847  27.287  0.00  0.00    +0.177 C 
ATOM     31  C   UNL     1       5.899  -5.004  26.740  0.00  0.00    +0.180 C 
ATOM     32  C   UNL     1       5.358  -3.675  26.177  0.00  0.00    +0.214 C 
BRANCH  30  33
ATOM     33  O   UNL     1       7.892  -6.123  27.604  0.00  0.00    -0.386 OA
ATOM     34  H   UNL     1       7.413  -6.451  28.394  0.00  0.00    +0.210 HD
ENDBRANCH  30  33
BRANCH  31  35
ATOM     35  O   UNL     1       5.893  -6.094  25.802  0.00  0.00    -0.386 OA
ATOM     36  H   UNL     1       5.928  -6.952  26.257  0.00  0.00    +0.210 HD
ENDBRANCH  31  35
BRANCH  32  37
ATOM     37  O   UNL     1       5.169  -2.757  27.267  0.00  0.00    -0.383 OA
ATOM     38  H   UNL     1       5.542  -1.893  26.995  0.00  0.00    +0.210 HD
ENDBRANCH  32  37
BRANCH  29  39
ATOM     39  C   UNL     1       8.862  -4.904  25.198  0.00  0.00    +0.190 C 
BRANCH  39  40
ATOM     40  O   UNL     1       9.951  -5.700  25.667  0.00  0.00    -0.392 OA
ATOM     41  H   UNL     1      10.168  -6.349  24.973  0.00  0.00    +0.210 HD
ENDBRANCH  39  40
ENDBRANCH  29  39
ENDBRANCH  26  27
ENDBRANCH  11  26
TORSDOF 12
ENDMDL
MODEL 5
REMARK VINA RESULT:      -6.9      1.777      2.605
REMARK  Name = 
REMARK  12 active torsions:
REMARK  status: ('A' for Active; 'I' for Inactive)
REMARK    1  A    between atoms: C_3  and  O_38
REMARK    2  A    between atoms: C_4  and  O_37
REMARK    3  A    between atoms: C_6  and  C_7
REMARK    4  A    between atoms: C_8  and  O_20
REMARK    5  A    between atoms: C_12  and  O_19
REMARK    6  A    between atoms: C_14  and  O_18
REMARK    7  A    between atoms: O_20  and  C_21
REMARK    8  A    between atoms: C_23  and  O_36
REMARK    9  A    between atoms: C_25  and  O_35
REMARK   10  A    between atoms: C_27  and  O_34
REMARK   11  A    between atoms: C_29  and  C_32
REMARK   12  A    between atoms: C_32  and  O_33
REMARK                            x       y       z     vdW  Elec       q    Type
REMARK                         _______ _______ _______ _____ _____    ______ ____
ROOT
ATOM      1  C   UNL     1       6.249  -1.408  24.947  0.00  0.00    +0.181 A 
ATOM      2  O   UNL     1       5.214  -2.278  24.614  0.00  0.00    -0.451 OA
ATOM      3  C   UNL     1       5.477  -3.441  23.949  0.00  0.00    +0.147 A 
ATOM      4  C   UNL     1       6.766  -3.859  23.674  0.00  0.00    +0.109 A 
ATOM      5  C   UNL     1       6.982  -5.119  23.093  0.00  0.00    +0.135 A 
ATOM      6  C   UNL     1       5.905  -5.929  22.737  0.00  0.00    +0.091 A 
ATOM      7  C   UNL     1       4.614  -5.467  22.961  0.00  0.00    +0.124 A 
ATOM      8  C   UNL     1       7.869  -2.934  23.969  0.00  0.00    +0.238 A 
ATOM      9  O   UNL     1       9.019  -3.292  23.725  0.00  0.00    -0.283 OA
ATOM     10  C   UNL     1       4.390  -4.237  23.577  0.00  0.00    +0.092 A 
ATOM     11  C   UNL     1       7.545  -1.600  24.562  0.00  0.00    +0.214 A 
ENDROOT
BRANCH   1  13
ATOM     12  C   UNL     1       5.612  -0.396  27.184  0.00  0.00    +0.015 A 
ATOM     13  C   UNL     1       5.738  -0.289  25.787  0.00  0.00    +0.025 A 
ATOM     14  C   UNL     1       5.265   0.889  25.183  0.00  0.00    +0.060 A 
ATOM     15  C   UNL     1       4.820   1.950  25.963  0.00  0.00    +0.159 A 
ATOM     16  C   UNL     1       4.874   1.883  27.348  0.00  0.00    +0.158 A 
ATOM     17  C   UNL     1       5.238   0.701  27.971  0.00  0.00    +0.050 A 
BRANCH  15  18
ATOM     18  O   UNL     1       4.333   3.070  25.354  0.00  0.00    -0.503 OA
ATOM     19  H   UNL     1       4.912   3.796  25.662  0.00  0.00    +0.292 HD
ENDBRANCH  15  18
BRANCH  16  20
ATOM     20  O   UNL     1       4.560   3.007  28.056  0.00  0.00    -0.503 OA
ATOM     21  H   UNL     1       3.904   2.763  28.734  0.00  0.00    +0.292 HD
ENDBRANCH  16  20
ENDBRANCH   1  13
BRANCH   5  22
ATOM     22  O   UNL     1       8.232  -5.629  22.863  0.00  0.00    -0.506 OA
ATOM     23  H   UNL     1       8.230  -6.051  21.973  0.00  0.00    +0.292 HD
ENDBRANCH   5  22
BRANCH   7  24
ATOM     24  O   UNL     1       3.524  -6.203  22.595  0.00  0.00    -0.507 OA
ATOM     25  H   UNL     1       3.772  -6.785  21.856  0.00  0.00    +0.292 HD
ENDBRANCH   7  24
BRANCH  11  26
ATOM     26  O   UNL     1       8.651  -0.803  24.707  0.00  0.00    -0.453 OA
BRANCH  26  27
ATOM     27  C   UNL     1       8.909   0.427  24.028  0.00  0.00    +0.340 C 
ATOM     28  O   UNL     1       8.643   1.481  24.977  0.00  0.00    -0.331 OA
ATOM     29  C   UNL     1       8.650   2.807  24.420  0.00  0.00    +0.179 C 
ATOM     30  C   UNL     1       9.991   3.129  23.740  0.00  0.00    +0.177 C 
ATOM     31  C   UNL     1      10.482   1.989  22.828  0.00  0.00    +0.180 C 
ATOM     32  C   UNL     1      10.354   0.616  23.518  0.00  0.00    +0.214 C 
BRANCH  30  33
ATOM     33  O   UNL     1       9.914   4.358  23.015  0.00  0.00    -0.386 OA
ATOM     34  H   UNL     1       9.829   5.071  23.682  0.00  0.00    +0.210 HD
ENDBRANCH  30  33
BRANCH  31  35
ATOM     35  O   UNL     1       9.792   2.090  21.570  0.00  0.00    -0.386 OA
ATOM     36  H   UNL     1       9.458   1.223  21.281  0.00  0.00    +0.210 HD
ENDBRANCH  31  35
BRANCH  32  37
ATOM     37  O   UNL     1      11.289   0.559  24.608  0.00  0.00    -0.383 OA
ATOM     38  H   UNL     1      11.537  -0.380  24.737  0.00  0.00    +0.210 HD
ENDBRANCH  32  37
BRANCH  29  39
ATOM     39  C   UNL     1       7.407   3.077  23.552  0.00  0.00    +0.190 C 
BRANCH  39  40
ATOM     40  O   UNL     1       6.800   4.328  23.881  0.00  0.00    -0.392 OA
ATOM     41  H   UNL     1       6.064   4.476  23.260  0.00  0.00    +0.210 HD
ENDBRANCH  39  40
ENDBRANCH  29  39
ENDBRANCH  26  27
ENDBRANCH  11  26
TORSDOF 12
ENDMDL
MODEL 6
REMARK VINA RESULT:      -6.8      2.706      3.074
REMARK  Name = 
REMARK  12 active torsions:
REMARK  status: ('A' for Active; 'I' for Inactive)
REMARK    1  A    between atoms: C_3  and  O_38
REMARK    2  A    between atoms: C_4  and  O_37
REMARK    3  A    between atoms: C_6  and  C_7
REMARK    4  A    between atoms: C_8  and  O_20
REMARK    5  A    between atoms: C_12  and  O_19
REMARK    6  A    between atoms: C_14  and  O_18
REMARK    7  A    between atoms: O_20  and  C_21
REMARK    8  A    between atoms: C_23  and  O_36
REMARK    9  A    between atoms: C_25  and  O_35
REMARK   10  A    between atoms: C_27  and  O_34
REMARK   11  A    between atoms: C_29  and  C_32
REMARK   12  A    between atoms: C_32  and  O_33
REMARK                            x       y       z     vdW  Elec       q    Type
REMARK                         _______ _______ _______ _____ _____    ______ ____
ROOT
ATOM      1  C   UNL     1       6.576  -1.113  26.934  0.00  0.00    +0.181 A 
ATOM      2  O   UNL     1       5.502  -1.921  27.299  0.00  0.00    -0.451 OA
ATOM      3  C   UNL     1       5.613  -3.281  27.247  0.00  0.00    +0.147 A 
ATOM      4  C   UNL     1       6.804  -3.913  26.941  0.00  0.00    +0.109 A 
ATOM      5  C   UNL     1       6.891  -5.312  27.017  0.00  0.00    +0.135 A 
ATOM      6  C   UNL     1       5.771  -6.075  27.341  0.00  0.00    +0.091 A 
ATOM      7  C   UNL     1       4.565  -5.429  27.584  0.00  0.00    +0.124 A 
ATOM      8  C   UNL     1       7.934  -3.082  26.502  0.00  0.00    +0.238 A 
ATOM      9  O   UNL     1       8.997  -3.632  26.224  0.00  0.00    -0.283 OA
ATOM     10  C   UNL     1       4.479  -4.037  27.553  0.00  0.00    +0.092 A 
ATOM     11  C   UNL     1       7.744  -1.600  26.424  0.00  0.00    +0.214 A 
ENDROOT
BRANCH   1  13
ATOM     12  C   UNL     1       5.235   1.006  26.544  0.00  0.00    +0.015 A 
ATOM     13  C   UNL     1       6.266   0.318  27.210  0.00  0.00    +0.025 A 
ATOM     14  C   UNL     1       7.080   1.061  28.084  0.00  0.00    +0.060 A 
ATOM     15  C   UNL     1       6.776   2.386  28.372  0.00  0.00    +0.159 A 
ATOM     16  C   UNL     1       5.645   2.987  27.838  0.00  0.00    +0.158 A 
ATOM     17  C   UNL     1       4.884   2.316  26.895  0.00  0.00    +0.050 A 
BRANCH  15  18
ATOM     18  O   UNL     1       7.598   3.098  29.198  0.00  0.00    -0.503 OA
ATOM     19  H   UNL     1       7.193   3.020  30.085  0.00  0.00    +0.292 HD
ENDBRANCH  15  18
BRANCH  16  20
ATOM     20  O   UNL     1       5.320   4.240  28.270  0.00  0.00    -0.503 OA
ATOM     21  H   UNL     1       5.505   4.287  29.224  0.00  0.00    +0.292 HD
ENDBRANCH  16  20
ENDBRANCH   1  13
BRANCH   5  22
ATOM     22  O   UNL     1       8.057  -6.000  26.803  0.00  0.00    -0.506 OA
ATOM     23  H   UNL     1       8.554  -6.027  27.652  0.00  0.00    +0.292 HD
ENDBRANCH   5  22
BRANCH   7  24
ATOM     24  O   UNL     1       3.429  -6.130  27.867  0.00  0.00    -0.507 OA
ATOM     25  H   UNL     1       3.397  -6.304  28.824  0.00  0.00    +0.292 HD
ENDBRANCH   7  24
BRANCH  11  26
ATOM     26  O   UNL     1       8.843  -0.952  25.920  0.00  0.00    -0.453 OA
BRANCH  26  27
ATOM     27  C   UNL     1       8.883  -0.121  24.759  0.00  0.00    +0.340 C 
ATOM     28  O   UNL     1      10.156   0.560  24.789  0.00  0.00    -0.331 OA
ATOM     29  C   UNL     1      10.304   1.600  23.808  0.00  0.00    +0.179 C 
ATOM     30  C   UNL     1      10.102   1.065  22.380  0.00  0.00    +0.177 C 
ATOM     31  C   UNL     1       8.861   0.162  22.255  0.00  0.00    +0.180 C 
ATOM     32  C   UNL     1       8.784  -0.859  23.408  0.00  0.00    +0.214 C 
BRANCH  30  33
ATOM     33  O   UNL     1      10.044   2.136  21.436  0.00  0.00    -0.386 OA
ATOM     34  H   UNL     1      10.224   2.959  21.937  0.00  0.00    +0.210 HD
ENDBRANCH  30  33
BRANCH  31  35
ATOM     35  O   UNL     1       7.702   1.005  22.129  0.00  0.00    -0.386 OA
ATOM     36  H   UNL     1       7.037   0.793  22.806  0.00  0.00    +0.210 HD
ENDBRANCH  31  35
BRANCH  32  37
ATOM     37  O   UNL     1       9.861  -1.800  23.261  0.00  0.00    -0.383 OA
ATOM     38  H   UNL     1       9.783  -2.204  22.372  0.00  0.00    +0.210 HD
ENDBRANCH  32  37
BRANCH  29  39
ATOM     39  C   UNL     1       9.465   2.845  24.152  0.00  0.00    +0.190 C 
BRANCH  39  40
ATOM     40  O   UNL     1       9.894   3.987  23.408  0.00  0.00    -0.392 OA
ATOM     41  H   UNL     1       9.702   4.780  23.941  0.00  0.00    +0.210 HD
ENDBRANCH  39  40
ENDBRANCH  29  39
ENDBRANCH  26  27
ENDBRANCH  11  26
TORSDOF 12
ENDMDL
MODEL 7
REMARK VINA RESULT:      -6.7      3.938      7.284
REMARK  Name = 
REMARK  12 active torsions:
REMARK  status: ('A' for Active; 'I' for Inactive)
REMARK    1  A    between atoms: C_3  and  O_38
REMARK    2  A    between atoms: C_4  and  O_37
REMARK    3  A    between atoms: C_6  and  C_7
REMARK    4  A    between atoms: C_8  and  O_20
REMARK    5  A    between atoms: C_12  and  O_19
REMARK    6  A    between atoms: C_14  and  O_18
REMARK    7  A    between atoms: O_20  and  C_21
REMARK    8  A    between atoms: C_23  and  O_36
REMARK    9  A    between atoms: C_25  and  O_35
REMARK   10  A    between atoms: C_27  and  O_34
REMARK   11  A    between atoms: C_29  and  C_32
REMARK   12  A    between atoms: C_32  and  O_33
REMARK                            x       y       z     vdW  Elec       q    Type
REMARK                         _______ _______ _______ _____ _____    ______ ____
ROOT
ATOM      1  C   UNL     1       7.583   4.607  24.348  0.00  0.00    +0.181 A 
ATOM      2  O   UNL     1       6.672   5.510  23.804  0.00  0.00    -0.451 OA
ATOM      3  C   UNL     1       5.347   5.193  23.728  0.00  0.00    +0.147 A 
ATOM      4  C   UNL     1       4.834   4.030  24.273  0.00  0.00    +0.109 A 
ATOM      5  C   UNL     1       3.447   3.810  24.269  0.00  0.00    +0.135 A 
ATOM      6  C   UNL     1       2.587   4.726  23.668  0.00  0.00    +0.091 A 
ATOM      7  C   UNL     1       3.123   5.859  23.068  0.00  0.00    +0.124 A 
ATOM      8  C   UNL     1       5.781   3.040  24.804  0.00  0.00    +0.238 A 
ATOM      9  O   UNL     1       5.338   2.001  25.287  0.00  0.00    -0.283 OA
ATOM     10  C   UNL     1       4.495   6.108  23.105  0.00  0.00    +0.092 A 
ATOM     11  C   UNL     1       7.245   3.345  24.743  0.00  0.00    +0.214 A 
ENDROOT
BRANCH   1  13
ATOM     12  C   UNL     1       9.218   6.247  25.383  0.00  0.00    +0.015 A 
ATOM     13  C   UNL     1       8.932   5.230  24.456  0.00  0.00    +0.025 A 
ATOM     14  C   UNL     1       9.945   4.880  23.545  0.00  0.00    +0.060 A 
ATOM     15  C   UNL     1      11.216   5.431  23.662  0.00  0.00    +0.159 A 
ATOM     16  C   UNL     1      11.520   6.300  24.700  0.00  0.00    +0.158 A 
ATOM     17  C   UNL     1      10.518   6.742  25.549  0.00  0.00    +0.050 A 
BRANCH  15  18
ATOM     18  O   UNL     1      12.175   5.103  22.747  0.00  0.00    -0.503 OA
ATOM     19  H   UNL     1      11.860   4.272  22.339  0.00  0.00    +0.292 HD
ENDBRANCH  15  18
BRANCH  16  20
ATOM     20  O   UNL     1      12.818   6.694  24.847  0.00  0.00    -0.503 OA
ATOM     21  H   UNL     1      13.083   6.522  25.768  0.00  0.00    +0.292 HD
ENDBRANCH  16  20
ENDBRANCH   1  13
BRANCH   5  22
ATOM     22  O   UNL     1       2.864   2.719  24.858  0.00  0.00    -0.506 OA
ATOM     23  H   UNL     1       2.803   2.005  24.183  0.00  0.00    +0.292 HD
ENDBRANCH   5  22
BRANCH   7  24
ATOM     24  O   UNL     1       2.329   6.769  22.432  0.00  0.00    -0.507 OA
ATOM     25  H   UNL     1       1.454   6.370  22.280  0.00  0.00    +0.292 HD
ENDBRANCH   7  24
BRANCH  11  26
ATOM     26  O   UNL     1       8.020   2.306  25.190  0.00  0.00    -0.453 OA
BRANCH  26  27
ATOM     27  C   UNL     1       8.439   1.169  24.433  0.00  0.00    +0.340 C 
ATOM     28  O   UNL     1       9.768   1.466  23.953  0.00  0.00    -0.331 OA
ATOM     29  C   UNL     1      10.286   0.524  22.998  0.00  0.00    +0.179 C 
ATOM     30  C   UNL     1      10.310  -0.905  23.567  0.00  0.00    +0.177 C 
ATOM     31  C   UNL     1       8.997  -1.283  24.275  0.00  0.00    +0.180 C 
ATOM     32  C   UNL     1       8.514  -0.159  25.214  0.00  0.00    +0.214 C 
BRANCH  30  33
ATOM     33  O   UNL     1      10.627  -1.855  22.548  0.00  0.00    -0.386 OA
ATOM     34  H   UNL     1       9.867  -2.472  22.496  0.00  0.00    +0.210 HD
ENDBRANCH  30  33
BRANCH  31  35
ATOM     35  O   UNL     1       8.041  -1.673  23.273  0.00  0.00    -0.386 OA
ATOM     36  H   UNL     1       8.473  -1.835  22.418  0.00  0.00    +0.210 HD
ENDBRANCH  31  35
BRANCH  32  37
ATOM     37  O   UNL     1       9.433  -0.053  26.314  0.00  0.00    -0.383 OA
ATOM     38  H   UNL     1      10.180   0.511  26.022  0.00  0.00    +0.210 HD
ENDBRANCH  32  37
BRANCH  29  39
ATOM     39  C   UNL     1       9.603   0.658  21.624  0.00  0.00    +0.190 C 
BRANCH  39  40
ATOM     40  O   UNL     1       9.393   2.027  21.275  0.00  0.00    -0.392 OA
ATOM     41  H   UNL     1       8.664   2.062  20.628  0.00  0.00    +0.210 HD
ENDBRANCH  39  40
ENDBRANCH  29  39
ENDBRANCH  26  27
ENDBRANCH  11  26
TORSDOF 12
ENDMDL
MODEL 8
REMARK VINA RESULT:      -6.7      1.923      5.029
REMARK  Name = 
REMARK  12 active torsions:
REMARK  status: ('A' for Active; 'I' for Inactive)
REMARK    1  A    between atoms: C_3  and  O_38
REMARK    2  A    between atoms: C_4  and  O_37
REMARK    3  A    between atoms: C_6  and  C_7
REMARK    4  A    between atoms: C_8  and  O_20
REMARK    5  A    between atoms: C_12  and  O_19
REMARK    6  A    between atoms: C_14  and  O_18
REMARK    7  A    between atoms: O_20  and  C_21
REMARK    8  A    between atoms: C_23  and  O_36
REMARK    9  A    between atoms: C_25  and  O_35
REMARK   10  A    between atoms: C_27  and  O_34
REMARK   11  A    between atoms: C_29  and  C_32
REMARK   12  A    between atoms: C_32  and  O_33
REMARK                            x       y       z     vdW  Elec       q    Type
REMARK                         _______ _______ _______ _____ _____    ______ ____
ROOT
ATOM      1  C   UNL     1       8.044  -1.694  24.334  0.00  0.00    +0.181 A 
ATOM      2  O   UNL     1       7.779  -2.679  23.385  0.00  0.00    -0.451 OA
ATOM      3  C   UNL     1       7.045  -3.780  23.719  0.00  0.00    +0.147 A 
ATOM      4  C   UNL     1       6.448  -3.920  24.959  0.00  0.00    +0.109 A 
ATOM      5  C   UNL     1       5.607  -5.017  25.208  0.00  0.00    +0.135 A 
ATOM      6  C   UNL     1       5.416  -5.997  24.237  0.00  0.00    +0.091 A 
ATOM      7  C   UNL     1       6.073  -5.875  23.019  0.00  0.00    +0.124 A 
ATOM      8  C   UNL     1       6.757  -2.921  25.991  0.00  0.00    +0.238 A 
ATOM      9  O   UNL     1       6.236  -3.037  27.098  0.00  0.00    -0.283 OA
ATOM     10  C   UNL     1       6.875  -4.767  22.746  0.00  0.00    +0.092 A 
ATOM     11  C   UNL     1       7.685  -1.800  25.647  0.00  0.00    +0.214 A 
ENDROOT
BRANCH   1  13
ATOM     12  C   UNL     1       9.932  -0.004  24.209  0.00  0.00    +0.015 A 
ATOM     13  C   UNL     1       8.732  -0.534  23.701  0.00  0.00    +0.025 A 
ATOM     14  C   UNL     1       8.133   0.139  22.621  0.00  0.00    +0.060 A 
ATOM     15  C   UNL     1       8.786   1.200  22.005  0.00  0.00    +0.159 A 
ATOM     16  C   UNL     1      10.054   1.587  22.415  0.00  0.00    +0.158 A 
ATOM     17  C   UNL     1      10.624   1.013  23.539  0.00  0.00    +0.050 A 
BRANCH  15  18
ATOM     18  O   UNL     1       8.171   1.860  20.980  0.00  0.00    -0.503 OA
ATOM     19  H   UNL     1       7.453   2.371  21.403  0.00  0.00    +0.292 HD
ENDBRANCH  15  18
BRANCH  16  20
ATOM     20  O   UNL     1      10.702   2.537  21.680  0.00  0.00    -0.503 OA
ATOM     21  H   UNL     1      11.178   3.122  22.296  0.00  0.00    +0.292 HD
ENDBRANCH  16  20
ENDBRANCH   1  13
BRANCH   5  22
ATOM     22  O   UNL     1       4.924  -5.180  26.384  0.00  0.00    -0.506 OA
ATOM     23  H   UNL     1       4.938  -6.138  26.614  0.00  0.00    +0.292 HD
ENDBRANCH   5  22
BRANCH   7  24
ATOM     24  O   UNL     1       5.950  -6.826  22.048  0.00  0.00    -0.507 OA
ATOM     25  H   UNL     1       5.599  -7.640  22.448  0.00  0.00    +0.292 HD
ENDBRANCH   7  24
BRANCH  11  26
ATOM     26  O   UNL     1       7.958  -0.990  26.719  0.00  0.00    -0.453 OA
BRANCH  26  27
ATOM     27  C   UNL     1       7.511   0.353  26.907  0.00  0.00    +0.340 C 
ATOM     28  O   UNL     1       6.615   0.642  25.812  0.00  0.00    -0.331 OA
ATOM     29  C   UNL     1       6.216   2.020  25.710  0.00  0.00    +0.179 C 
ATOM     30  C   UNL     1       5.540   2.511  27.000  0.00  0.00    +0.177 C 
ATOM     31  C   UNL     1       6.313   2.103  28.268  0.00  0.00    +0.180 C 
ATOM     32  C   UNL     1       6.744   0.624  28.218  0.00  0.00    +0.214 C 
BRANCH  30  33
ATOM     33  O   UNL     1       5.338   3.926  26.965  0.00  0.00    -0.386 OA
ATOM     34  H   UNL     1       6.192   4.323  26.696  0.00  0.00    +0.210 HD
ENDBRANCH  30  33
BRANCH  31  35
ATOM     35  O   UNL     1       7.395   3.032  28.453  0.00  0.00    -0.386 OA
ATOM     36  H   UNL     1       7.627   3.475  27.619  0.00  0.00    +0.210 HD
ENDBRANCH  31  35
BRANCH  32  37
ATOM     37  O   UNL     1       5.569  -0.200  28.299  0.00  0.00    -0.383 OA
ATOM     38  H   UNL     1       5.272  -0.202  29.233  0.00  0.00    +0.210 HD
ENDBRANCH  32  37
BRANCH  29  39
ATOM     39  C   UNL     1       7.360   2.918  25.201  0.00  0.00    +0.190 C 
BRANCH  39  40
ATOM     40  O   UNL     1       6.872   3.948  24.340  0.00  0.00    -0.392 OA
ATOM     41  H   UNL     1       6.428   4.616  24.894  0.00  0.00    +0.210 HD
ENDBRANCH  39  40
ENDBRANCH  29  39
ENDBRANCH  26  27
ENDBRANCH  11  26
TORSDOF 12
ENDMDL
MODEL 9
REMARK VINA RESULT:      -6.6      2.430      4.957
REMARK  Name = 
REMARK  12 active torsions:
REMARK  status: ('A' for Active; 'I' for Inactive)
REMARK    1  A    between atoms: C_3  and  O_38
REMARK    2  A    between atoms: C_4  and  O_37
REMARK    3  A    between atoms: C_6  and  C_7
REMARK    4  A    between atoms: C_8  and  O_20
REMARK    5  A    between atoms: C_12  and  O_19
REMARK    6  A    between atoms: C_14  and  O_18
REMARK    7  A    between atoms: O_20  and  C_21
REMARK    8  A    between atoms: C_23  and  O_36
REMARK    9  A    between atoms: C_25  and  O_35
REMARK   10  A    between atoms: C_27  and  O_34
REMARK   11  A    between atoms: C_29  and  C_32
REMARK   12  A    between atoms: C_32  and  O_33
REMARK                            x       y       z     vdW  Elec       q    Type
REMARK                         _______ _______ _______ _____ _____    ______ ____
ROOT
ATOM      1  C   UNL     1       7.176  -1.058  23.720  0.00  0.00    +0.181 A 
ATOM      2  O   UNL     1       7.247  -2.166  22.878  0.00  0.00    -0.451 OA
ATOM      3  C   UNL     1       6.342  -3.180  22.995  0.00  0.00    +0.147 A 
ATOM      4  C   UNL     1       5.266  -3.114  23.862  0.00  0.00    +0.109 A 
ATOM      5  C   UNL     1       4.301  -4.134  23.855  0.00  0.00    +0.135 A 
ATOM      6  C   UNL     1       4.448  -5.243  23.025  0.00  0.00    +0.091 A 
ATOM      7  C   UNL     1       5.567  -5.326  22.206  0.00  0.00    +0.124 A 
ATOM      8  C   UNL     1       5.200  -1.981  24.795  0.00  0.00    +0.238 A 
ATOM      9  O   UNL     1       4.252  -1.913  25.573  0.00  0.00    -0.283 OA
ATOM     10  C   UNL     1       6.508  -4.297  22.173  0.00  0.00    +0.092 A 
ATOM     11  C   UNL     1       6.287  -0.954  24.752  0.00  0.00    +0.214 A 
ENDROOT
BRANCH   1  13
ATOM     12  C   UNL     1       8.007   0.757  22.155  0.00  0.00    +0.015 A 
ATOM     13  C   UNL     1       8.171  -0.028  23.310  0.00  0.00    +0.025 A 
ATOM     14  C   UNL     1       9.373   0.116  24.026  0.00  0.00    +0.060 A 
ATOM     15  C   UNL     1      10.290   1.099  23.669  0.00  0.00    +0.159 A 
ATOM     16  C   UNL     1      10.018   1.980  22.632  0.00  0.00    +0.158 A 
ATOM     17  C   UNL     1       8.893   1.797  21.846  0.00  0.00    +0.050 A 
BRANCH  15  18
ATOM     18  O   UNL     1      11.465   1.199  24.356  0.00  0.00    -0.503 OA
ATOM     19  H   UNL     1      11.757   0.275  24.492  0.00  0.00    +0.292 HD
ENDBRANCH  15  18
BRANCH  16  20
ATOM     20  O   UNL     1      10.887   3.011  22.423  0.00  0.00    -0.503 OA
ATOM     21  H   UNL     1      11.768   2.729  22.728  0.00  0.00    +0.292 HD
ENDBRANCH  16  20
ENDBRANCH   1  13
BRANCH   5  22
ATOM     22  O   UNL     1       3.172  -4.097  24.631  0.00  0.00    -0.506 OA
ATOM     23  H   UNL     1       2.879  -3.159  24.697  0.00  0.00    +0.292 HD
ENDBRANCH   5  22
BRANCH   7  24
ATOM     24  O   UNL     1       5.779  -6.408  21.402  0.00  0.00    -0.507 OA
ATOM     25  H   UNL     1       5.810  -7.209  21.954  0.00  0.00    +0.292 HD
ENDBRANCH   7  24
BRANCH  11  26
ATOM     26  O   UNL     1       6.154  -0.001  25.728  0.00  0.00    -0.453 OA
BRANCH  26  27
ATOM     27  C   UNL     1       5.646   1.323  25.562  0.00  0.00    +0.340 C 
ATOM     28  O   UNL     1       5.092   1.384  24.230  0.00  0.00    -0.331 OA
ATOM     29  C   UNL     1       4.711   2.701  23.797  0.00  0.00    +0.179 C 
ATOM     30  C   UNL     1       3.686   3.336  24.750  0.00  0.00    +0.177 C 
ATOM     31  C   UNL     1       4.075   3.177  26.231  0.00  0.00    +0.180 C 
ATOM     32  C   UNL     1       4.532   1.738  26.546  0.00  0.00    +0.214 C 
BRANCH  30  33
ATOM     33  O   UNL     1       3.474   4.713  24.429  0.00  0.00    -0.386 OA
ATOM     34  H   UNL     1       3.045   5.119  25.211  0.00  0.00    +0.210 HD
ENDBRANCH  30  33
BRANCH  31  35
ATOM     35  O   UNL     1       5.041   4.192  26.555  0.00  0.00    -0.386 OA
ATOM     36  H   UNL     1       4.927   4.509  27.467  0.00  0.00    +0.210 HD
ENDBRANCH  31  35
BRANCH  32  37
ATOM     37  O   UNL     1       3.399   0.860  26.432  0.00  0.00    -0.383 OA
ATOM     38  H   UNL     1       2.950   1.064  25.585  0.00  0.00    +0.210 HD
ENDBRANCH  32  37
BRANCH  29  39
ATOM     39  C   UNL     1       5.934   3.584  23.485  0.00  0.00    +0.190 C 
BRANCH  39  40
ATOM     40  O   UNL     1       5.729   4.365  22.307  0.00  0.00    -0.392 OA
ATOM     41  H   UNL     1       5.470   5.263  22.585  0.00  0.00    +0.210 HD
ENDBRANCH  39  40
ENDBRANCH  29  39
ENDBRANCH  26  27
ENDBRANCH  11  26
TORSDOF 12
ENDMDL
