MODEL 1
REMARK VINA RESULT:      -7.3      0.000      0.000
REMARK  Name = 
REMARK  8 active torsions:
REMARK  status: ('A' for Active; 'I' for Inactive)
REMARK    1  A    between atoms: C_3  and  O_26
REMARK    2  A    between atoms: C_4  and  O_25
REMARK    3  A    between atoms: C_6  and  C_7
REMARK    4  A    between atoms: C_8  and  O_24
REMARK    5  A    between atoms: C_12  and  O_23
REMARK    6  A    between atoms: C_14  and  O_18
REMARK    7  A    between atoms: O_18  and  S_19
REMARK    8  A    between atoms: S_19  and  O_22
REMARK                            x       y       z     vdW  Elec       q    Type
REMARK                         _______ _______ _______ _____ _____    ______ ____
ROOT
ATOM      1  C   UNL     1       6.517  -3.356  23.397  0.00  0.00    +0.181 A 
ATOM      2  O   UNL     1       6.641  -3.727  24.742  0.00  0.00    -0.451 OA
ATOM      3  C   UNL     1       5.986  -4.854  25.188  0.00  0.00    +0.147 A 
ATOM      4  C   UNL     1       5.123  -5.588  24.381  0.00  0.00    +0.109 A 
ATOM      5  C   UNL     1       4.475  -6.721  24.881  0.00  0.00    +0.135 A 
ATOM      6  C   UNL     1       4.680  -7.131  26.193  0.00  0.00    +0.095 A 
ATOM      7  C   UNL     1       5.529  -6.395  27.019  0.00  0.00    +0.166 A 
ATOM      8  C   UNL     1       4.933  -5.168  22.996  0.00  0.00    +0.238 A 
ATOM      9  O   UNL     1       4.144  -5.776  22.274  0.00  0.00    -0.283 OA
ATOM     10  C   UNL     1       6.198  -5.267  26.509  0.00  0.00    +0.096 A 
ATOM     11  C   UNL     1       5.755  -4.035  22.509  0.00  0.00    +0.208 A 
ENDROOT
BRANCH   1  13
ATOM     12  C   UNL     1       6.830  -0.851  23.124  0.00  0.00    +0.015 A 
ATOM     13  C   UNL     1       7.335  -2.167  23.010  0.00  0.00    +0.025 A 
ATOM     14  C   UNL     1       8.632  -2.318  22.493  0.00  0.00    +0.060 A 
ATOM     15  C   UNL     1       9.331  -1.206  22.023  0.00  0.00    +0.159 A 
ATOM     16  C   UNL     1       8.768   0.066  22.051  0.00  0.00    +0.158 A 
ATOM     17  C   UNL     1       7.520   0.257  22.618  0.00  0.00    +0.050 A 
BRANCH  15  18
ATOM     18  O   UNL     1      10.583  -1.375  21.502  0.00  0.00    -0.503 OA
ATOM     19  H   UNL     1      10.563  -0.896  20.648  0.00  0.00    +0.292 HD
ENDBRANCH  15  18
BRANCH  16  20
ATOM     20  O   UNL     1       9.482   1.096  21.508  0.00  0.00    -0.503 OA
ATOM     21  H   UNL     1       8.865   1.818  21.290  0.00  0.00    +0.292 HD
ENDBRANCH  16  20
ENDBRANCH   1  13
BRANCH   5  22
ATOM     22  O   UNL     1       3.625  -7.489  24.130  0.00  0.00    -0.506 OA
ATOM     23  H   UNL     1       4.165  -8.106  23.584  0.00  0.00    +0.292 HD
ENDBRANCH   5  22
BRANCH  11  24
ATOM     24  O   UNL     1       5.693  -3.787  21.151  0.00  0.00    -0.501 OA
ATOM     25  H   UNL     1       5.124  -3.012  21.008  0.00  0.00    +0.292 HD
ENDBRANCH  11  24
BRANCH   7  26
ATOM     26  O   UNL     1       5.791  -6.722  28.328  0.00  0.00    -0.325 OA
BRANCH  26  27
ATOM     27  S   UNL     1       5.069  -5.934  29.561  0.00  0.00    +0.251 S 
ATOM     28  O   UNL     1       3.924  -5.198  29.074  0.00  0.00    -0.108 OA
ATOM     29  O   UNL     1       6.087  -5.317  30.385  0.00  0.00    -0.108 OA
BRANCH  27  30
ATOM     30  O   UNL     1       4.501  -7.141  30.468  0.00  0.00    -0.222 OA
ATOM     31  H   UNL     1       3.844  -6.756  31.082  0.00  0.00    +0.248 HD
ENDBRANCH  27  30
ENDBRANCH  26  27
ENDBRANCH   7  26
TORSDOF 8
ENDMDL
MODEL 2
REMARK VINA RESULT:      -7.2      3.238      4.833
REMARK  Name = 
REMARK  8 active torsions:
REMARK  status: ('A' for Active; 'I' for Inactive)
REMARK    1  A    between atoms: C_3  and  O_26
REMARK    2  A    between atoms: C_4  and  O_25
REMARK    3  A    between atoms: C_6  and  C_7
REMARK    4  A    between atoms: C_8  and  O_24
REMARK    5  A    between atoms: C_12  and  O_23
REMARK    6  A    between atoms: C_14  and  O_18
REMARK    7  A    between atoms: O_18  and  S_19
REMARK    8  A    between atoms: S_19  and  O_22
REMARK                            x       y       z     vdW  Elec       q    Type
REMARK                         _______ _______ _______ _____ _____    ______ ____
ROOT
ATOM      1  C   UNL     1       8.058  -0.720  23.133  0.00  0.00    +0.181 A 
ATOM      2  O   UNL     1       6.942  -1.432  22.680  0.00  0.00    -0.451 OA
ATOM      3  C   UNL     1       6.904  -2.799  22.857  0.00  0.00    +0.147 A 
ATOM      4  C   UNL     1       7.975  -3.516  23.377  0.00  0.00    +0.109 A 
ATOM      5  C   UNL     1       7.893  -4.904  23.530  0.00  0.00    +0.135 A 
ATOM      6  C   UNL     1       6.741  -5.588  23.161  0.00  0.00    +0.095 A 
ATOM      7  C   UNL     1       5.665  -4.884  22.621  0.00  0.00    +0.166 A 
ATOM      8  C   UNL     1       9.172  -2.788  23.788  0.00  0.00    +0.238 A 
ATOM      9  O   UNL     1      10.148  -3.405  24.213  0.00  0.00    -0.283 OA
ATOM     10  C   UNL     1       5.740  -3.485  22.488  0.00  0.00    +0.096 A 
ATOM     11  C   UNL     1       9.129  -1.310  23.713  0.00  0.00    +0.208 A 
ENDROOT
BRANCH   1  13
ATOM     12  C   UNL     1       6.737   1.378  22.581  0.00  0.00    +0.015 A 
ATOM     13  C   UNL     1       7.951   0.762  22.963  0.00  0.00    +0.025 A 
ATOM     14  C   UNL     1       9.066   1.594  23.152  0.00  0.00    +0.060 A 
ATOM     15  C   UNL     1       8.977   2.957  22.868  0.00  0.00    +0.159 A 
ATOM     16  C   UNL     1       7.796   3.521  22.393  0.00  0.00    +0.158 A 
ATOM     17  C   UNL     1       6.662   2.740  22.262  0.00  0.00    +0.050 A 
BRANCH  15  18
ATOM     18  O   UNL     1      10.079   3.749  23.037  0.00  0.00    -0.503 OA
ATOM     19  H   UNL     1       9.818   4.393  23.725  0.00  0.00    +0.292 HD
ENDBRANCH  15  18
BRANCH  16  20
ATOM     20  O   UNL     1       7.803   4.848  22.069  0.00  0.00    -0.503 OA
ATOM     21  H   UNL     1       7.342   5.339  22.772  0.00  0.00    +0.292 HD
ENDBRANCH  16  20
ENDBRANCH   1  13
BRANCH   5  22
ATOM     22  O   UNL     1       8.910  -5.661  24.048  0.00  0.00    -0.506 OA
ATOM     23  H   UNL     1       9.035  -6.448  23.469  0.00  0.00    +0.292 HD
ENDBRANCH   5  22
BRANCH  11  24
ATOM     24  O   UNL     1      10.198  -0.646  24.285  0.00  0.00    -0.501 OA
ATOM     25  H   UNL     1      10.982  -1.216  24.218  0.00  0.00    +0.292 HD
ENDBRANCH  11  24
BRANCH   7  26
ATOM     26  O   UNL     1       4.489  -5.474  22.227  0.00  0.00    -0.325 OA
BRANCH  26  27
ATOM     27  S   UNL     1       3.354  -5.915  23.312  0.00  0.00    +0.251 S 
ATOM     28  O   UNL     1       2.058  -5.982  22.673  0.00  0.00    -0.108 OA
ATOM     29  O   UNL     1       3.568  -5.181  24.542  0.00  0.00    -0.108 OA
BRANCH  27  30
ATOM     30  O   UNL     1       3.779  -7.429  23.674  0.00  0.00    -0.222 OA
ATOM     31  H   UNL     1       2.965  -7.901  23.941  0.00  0.00    +0.248 HD
ENDBRANCH  27  30
ENDBRANCH  26  27
ENDBRANCH   7  26
TORSDOF 8
ENDMDL
MODEL 3
REMARK VINA RESULT:      -7.2      1.790      2.667
REMARK  Name = 
REMARK  8 active torsions:
REMARK  status: ('A' for Active; 'I' for Inactive)
REMARK    1  A    between atoms: C_3  and  O_26
REMARK    2  A    between atoms: C_4  and  O_25
REMARK    3  A    between atoms: C_6  and  C_7
REMARK    4  A    between atoms: C_8  and  O_24
REMARK    5  A    between atoms: C_12  and  O_23
REMARK    6  A    between atoms: C_14  and  O_18
REMARK    7  A    between atoms: O_18  and  S_19
REMARK    8  A    between atoms: S_19  and  O_22
REMARK                            x       y       z     vdW  Elec       q    Type
REMARK                         _______ _______ _______ _____ _____    ______ ____
ROOT
ATOM      1  C   UNL     1       8.321  -1.871  23.622  0.00  0.00    +0.181 A 
ATOM      2  O   UNL     1       7.760  -2.149  24.875  0.00  0.00    -0.451 OA
ATOM      3  C   UNL     1       7.031  -3.306  25.040  0.00  0.00    +0.147 A 
ATOM      4  C   UNL     1       6.742  -4.166  23.986  0.00  0.00    +0.109 A 
ATOM      5  C   UNL     1       5.992  -5.326  24.200  0.00  0.00    +0.135 A 
ATOM      6  C   UNL     1       5.519  -5.636  25.470  0.00  0.00    +0.095 A 
ATOM      7  C   UNL     1       5.786  -4.775  26.533  0.00  0.00    +0.166 A 
ATOM      8  C   UNL     1       7.265  -3.848  22.660  0.00  0.00    +0.238 A 
ATOM      9  O   UNL     1       6.989  -4.571  21.703  0.00  0.00    -0.283 OA
ATOM     10  C   UNL     1       6.560  -3.619  26.321  0.00  0.00    +0.096 A 
ATOM     11  C   UNL     1       8.157  -2.672  22.544  0.00  0.00    +0.208 A 
ENDROOT
BRANCH   1  13
ATOM     12  C   UNL     1      10.029  -0.296  24.646  0.00  0.00    +0.015 A 
ATOM     13  C   UNL     1       9.157  -0.633  23.585  0.00  0.00    +0.025 A 
ATOM     14  C   UNL     1       9.085   0.256  22.500  0.00  0.00    +0.060 A 
ATOM     15  C   UNL     1       9.779   1.466  22.541  0.00  0.00    +0.159 A 
ATOM     16  C   UNL     1      10.550   1.820  23.644  0.00  0.00    +0.158 A 
ATOM     17  C   UNL     1      10.695   0.936  24.698  0.00  0.00    +0.050 A 
BRANCH  15  18
ATOM     18  O   UNL     1       9.680   2.329  21.485  0.00  0.00    -0.503 OA
ATOM     19  H   UNL     1       9.031   1.911  20.884  0.00  0.00    +0.292 HD
ENDBRANCH  15  18
BRANCH  16  20
ATOM     20  O   UNL     1      11.143   3.051  23.644  0.00  0.00    -0.503 OA
ATOM     21  H   UNL     1      11.147   3.390  24.557  0.00  0.00    +0.292 HD
ENDBRANCH  16  20
ENDBRANCH   1  13
BRANCH   5  22
ATOM     22  O   UNL     1       5.687  -6.215  23.204  0.00  0.00    -0.506 OA
ATOM     23  H   UNL     1       5.008  -6.842  23.546  0.00  0.00    +0.292 HD
ENDBRANCH   5  22
BRANCH  11  24
ATOM     24  O   UNL     1       8.785  -2.510  21.323  0.00  0.00    -0.501 OA
ATOM     25  H   UNL     1       9.280  -3.323  21.125  0.00  0.00    +0.292 HD
ENDBRANCH  11  24
BRANCH   7  26
ATOM     26  O   UNL     1       5.359  -4.997  27.820  0.00  0.00    -0.325 OA
BRANCH  26  27
ATOM     27  S   UNL     1       6.036  -6.152  28.752  0.00  0.00    +0.251 S 
ATOM     28  O   UNL     1       5.387  -7.423  28.514  0.00  0.00    -0.108 OA
ATOM     29  O   UNL     1       6.231  -5.626  30.087  0.00  0.00    -0.108 OA
BRANCH  27  30
ATOM     30  O   UNL     1       7.528  -6.266  28.148  0.00  0.00    -0.222 OA
ATOM     31  H   UNL     1       8.147  -6.262  28.906  0.00  0.00    +0.248 HD
ENDBRANCH  27  30
ENDBRANCH  26  27
ENDBRANCH   7  26
TORSDOF 8
ENDMDL
MODEL 4
REMARK VINA RESULT:      -7.0      3.565      6.025
REMARK  Name = 
REMARK  8 active torsions:
REMARK  status: ('A' for Active; 'I' for Inactive)
REMARK    1  A    between atoms: C_3  and  O_26
REMARK    2  A    between atoms: C_4  and  O_25
REMARK    3  A    between atoms: C_6  and  C_7
REMARK    4  A    between atoms: C_8  and  O_24
REMARK    5  A    between atoms: C_12  and  O_23
REMARK    6  A    between atoms: C_14  and  O_18
REMARK    7  A    between atoms: O_18  and  S_19
REMARK    8  A    between atoms: S_19  and  O_22
REMARK                            x       y       z     vdW  Elec       q    Type
REMARK                         _______ _______ _______ _____ _____    ______ ____
ROOT
ATOM      1  C   UNL     1       7.800   0.711  24.080  0.00  0.00    +0.181 A 
ATOM      2  O   UNL     1       7.717  -0.310  23.126  0.00  0.00    -0.451 OA
ATOM      3  C   UNL     1       7.795  -1.621  23.542  0.00  0.00    +0.147 A 
ATOM      4  C   UNL     1       8.054  -1.974  24.862  0.00  0.00    +0.109 A 
ATOM      5  C   UNL     1       8.132  -3.319  25.235  0.00  0.00    +0.135 A 
ATOM      6  C   UNL     1       7.956  -4.325  24.292  0.00  0.00    +0.095 A 
ATOM      7  C   UNL     1       7.712  -3.986  22.961  0.00  0.00    +0.166 A 
ATOM      8  C   UNL     1       8.211  -0.913  25.852  0.00  0.00    +0.238 A 
ATOM      9  O   UNL     1       8.482  -1.198  27.018  0.00  0.00    -0.283 OA
ATOM     10  C   UNL     1       7.612  -2.633  22.591  0.00  0.00    +0.096 A 
ATOM     11  C   UNL     1       7.986   0.479  25.400  0.00  0.00    +0.208 A 
ENDROOT
BRANCH   1  13
ATOM     12  C   UNL     1       6.459   2.449  22.802  0.00  0.00    +0.015 A 
ATOM     13  C   UNL     1       7.620   2.088  23.523  0.00  0.00    +0.025 A 
ATOM     14  C   UNL     1       8.616   3.065  23.677  0.00  0.00    +0.060 A 
ATOM     15  C   UNL     1       8.483   4.302  23.045  0.00  0.00    +0.159 A 
ATOM     16  C   UNL     1       7.376   4.595  22.254  0.00  0.00    +0.158 A 
ATOM     17  C   UNL     1       6.347   3.678  22.140  0.00  0.00    +0.050 A 
BRANCH  15  18
ATOM     18  O   UNL     1       9.473   5.235  23.187  0.00  0.00    -0.503 OA
ATOM     19  H   UNL     1      10.034   4.892  23.913  0.00  0.00    +0.292 HD
ENDBRANCH  15  18
BRANCH  16  20
ATOM     20  O   UNL     1       7.349   5.799  21.609  0.00  0.00    -0.503 OA
ATOM     21  H   UNL     1       7.081   6.484  22.247  0.00  0.00    +0.292 HD
ENDBRANCH  16  20
ENDBRANCH   1  13
BRANCH   5  22
ATOM     22  O   UNL     1       8.372  -3.726  26.520  0.00  0.00    -0.506 OA
ATOM     23  H   UNL     1       7.582  -4.220  26.841  0.00  0.00    +0.292 HD
ENDBRANCH   5  22
BRANCH  11  24
ATOM     24  O   UNL     1       7.954   1.438  26.395  0.00  0.00    -0.501 OA
ATOM     25  H   UNL     1       8.283   1.036  27.216  0.00  0.00    +0.292 HD
ENDBRANCH  11  24
BRANCH   7  26
ATOM     26  O   UNL     1       7.528  -4.910  21.962  0.00  0.00    -0.325 OA
BRANCH  26  27
ATOM     27  S   UNL     1       6.036  -5.417  21.538  0.00  0.00    +0.251 S 
ATOM     28  O   UNL     1       5.970  -5.620  20.107  0.00  0.00    -0.108 OA
ATOM     29  O   UNL     1       5.051  -4.628  22.249  0.00  0.00    -0.108 OA
BRANCH  27  30
ATOM     30  O   UNL     1       5.949  -6.874  22.224  0.00  0.00    -0.222 OA
ATOM     31  H   UNL     1       5.012  -7.155  22.188  0.00  0.00    +0.248 HD
ENDBRANCH  27  30
ENDBRANCH  26  27
ENDBRANCH   7  26
TORSDOF 8
ENDMDL
MODEL 5
REMARK VINA RESULT:      -6.9      2.986      8.119
REMARK  Name = 
REMARK  8 active torsions:
REMARK  status: ('A' for Active; 'I' for Inactive)
REMARK    1  A    between atoms: C_3  and  O_26
REMARK    2  A    between atoms: C_4  and  O_25
REMARK    3  A    between atoms: C_6  and  C_7
REMARK    4  A    between atoms: C_8  and  O_24
REMARK    5  A    between atoms: C_12  and  O_23
REMARK    6  A    between atoms: C_14  and  O_18
REMARK    7  A    between atoms: O_18  and  S_19
REMARK    8  A    between atoms: S_19  and  O_22
REMARK                            x       y       z     vdW  Elec       q    Type
REMARK                         _______ _______ _______ _____ _____    ______ ____
ROOT
ATOM      1  C   UNL     1       7.072  -4.371  25.819  0.00  0.00    +0.181 A 
ATOM      2  O   UNL     1       6.559  -3.189  25.273  0.00  0.00    -0.451 OA
ATOM      3  C   UNL     1       7.342  -2.459  24.404  0.00  0.00    +0.147 A 
ATOM      4  C   UNL     1       8.661  -2.795  24.124  0.00  0.00    +0.109 A 
ATOM      5  C   UNL     1       9.419  -2.019  23.241  0.00  0.00    +0.135 A 
ATOM      6  C   UNL     1       8.866  -0.897  22.634  0.00  0.00    +0.095 A 
ATOM      7  C   UNL     1       7.549  -0.539  22.919  0.00  0.00    +0.166 A 
ATOM      8  C   UNL     1       9.227  -3.989  24.744  0.00  0.00    +0.238 A 
ATOM      9  O   UNL     1      10.405  -4.284  24.543  0.00  0.00    -0.283 OA
ATOM     10  C   UNL     1       6.780  -1.333  23.790  0.00  0.00    +0.096 A 
ATOM     11  C   UNL     1       8.320  -4.826  25.563  0.00  0.00    +0.208 A 
ENDROOT
BRANCH   1  13
ATOM     12  C   UNL     1       6.088  -4.959  28.085  0.00  0.00    +0.015 A 
ATOM     13  C   UNL     1       6.105  -5.120  26.681  0.00  0.00    +0.025 A 
ATOM     14  C   UNL     1       5.195  -6.031  26.122  0.00  0.00    +0.060 A 
ATOM     15  C   UNL     1       4.387  -6.809  26.953  0.00  0.00    +0.159 A 
ATOM     16  C   UNL     1       4.464  -6.706  28.339  0.00  0.00    +0.158 A 
ATOM     17  C   UNL     1       5.302  -5.769  28.916  0.00  0.00    +0.050 A 
BRANCH  15  18
ATOM     18  O   UNL     1       3.522  -7.707  26.393  0.00  0.00    -0.503 OA
ATOM     19  H   UNL     1       4.097  -8.336  25.910  0.00  0.00    +0.292 HD
ENDBRANCH  15  18
BRANCH  16  20
ATOM     20  O   UNL     1       3.695  -7.550  29.089  0.00  0.00    -0.503 OA
ATOM     21  H   UNL     1       2.845  -7.679  28.632  0.00  0.00    +0.292 HD
ENDBRANCH  16  20
ENDBRANCH   1  13
BRANCH   5  22
ATOM     22  O   UNL     1      10.718  -2.307  22.917  0.00  0.00    -0.506 OA
ATOM     23  H   UNL     1      10.802  -2.293  21.935  0.00  0.00    +0.292 HD
ENDBRANCH   5  22
BRANCH  11  24
ATOM     24  O   UNL     1       8.832  -6.042  25.976  0.00  0.00    -0.501 OA
ATOM     25  H   UNL     1       9.474  -6.343  25.312  0.00  0.00    +0.292 HD
ENDBRANCH  11  24
BRANCH   7  26
ATOM     26  O   UNL     1       6.920   0.552  22.369  0.00  0.00    -0.325 OA
BRANCH  26  27
ATOM     27  S   UNL     1       7.489   2.064  22.594  0.00  0.00    +0.251 S 
ATOM     28  O   UNL     1       8.152   2.157  23.876  0.00  0.00    -0.108 OA
ATOM     29  O   UNL     1       6.478   3.014  22.180  0.00  0.00    -0.108 OA
BRANCH  27  30
ATOM     30  O   UNL     1       8.633   2.183  21.463  0.00  0.00    -0.222 OA
ATOM     31  H   UNL     1       8.818   1.277  21.143  0.00  0.00    +0.248 HD
ENDBRANCH  27  30
ENDBRANCH  26  27
ENDBRANCH   7  26
TORSDOF 8
ENDMDL
MODEL 6
REMARK VINA RESULT:      -6.9      2.887      4.422
REMARK  Name = 
REMARK  8 active torsions:
REMARK  status: ('A' for Active; 'I' for Inactive)
REMARK    1  A    between atoms: C_3  and  O_26
REMARK    2  A    between atoms: C_4  and  O_25
REMARK    3  A    between atoms: C_6  and  C_7
REMARK    4  A    between atoms: C_8  and  O_24
REMARK    5  A    between atoms: C_12  and  O_23
REMARK    6  A    between atoms: C_14  and  O_18
REMARK    7  A    between atoms: O_18  and  S_19
REMARK    8  A    between atoms: S_19  and  O_22
REMARK                            x       y       z     vdW  Elec       q    Type
REMARK                         _______ _______ _______ _____ _____    ______ ____
ROOT
ATOM      1  C   UNL     1       8.146  -0.604  24.536  0.00  0.00    +0.181 A 
ATOM      2  O   UNL     1       7.396  -1.365  25.441  0.00  0.00    -0.451 OA
ATOM      3  C   UNL     1       7.809  -2.644  25.742  0.00  0.00    +0.147 A 
ATOM      4  C   UNL     1       8.887  -3.252  25.108  0.00  0.00    +0.109 A 
ATOM      5  C   UNL     1       9.265  -4.557  25.441  0.00  0.00    +0.135 A 
ATOM      6  C   UNL     1       8.565  -5.268  26.410  0.00  0.00    +0.095 A 
ATOM      7  C   UNL     1       7.472  -4.678  27.042  0.00  0.00    +0.166 A 
ATOM      8  C   UNL     1       9.633  -2.490  24.111  0.00  0.00    +0.238 A 
ATOM      9  O   UNL     1      10.565  -3.019  23.507  0.00  0.00    -0.283 OA
ATOM     10  C   UNL     1       7.106  -3.357  26.722  0.00  0.00    +0.096 A 
ATOM     11  C   UNL     1       9.249  -1.074  23.910  0.00  0.00    +0.208 A 
ENDROOT
BRANCH   1  13
ATOM     12  C   UNL     1       8.236   1.884  25.034  0.00  0.00    +0.015 A 
ATOM     13  C   UNL     1       7.650   0.794  24.351  0.00  0.00    +0.025 A 
ATOM     14  C   UNL     1       6.563   1.069  23.506  0.00  0.00    +0.060 A 
ATOM     15  C   UNL     1       6.037   2.360  23.442  0.00  0.00    +0.159 A 
ATOM     16  C   UNL     1       6.568   3.396  24.206  0.00  0.00    +0.158 A 
ATOM     17  C   UNL     1       7.682   3.171  24.995  0.00  0.00    +0.050 A 
BRANCH  15  18
ATOM     18  O   UNL     1       4.964   2.606  22.632  0.00  0.00    -0.503 OA
ATOM     19  H   UNL     1       4.264   2.925  23.238  0.00  0.00    +0.292 HD
ENDBRANCH  15  18
BRANCH  16  20
ATOM     20  O   UNL     1       5.957   4.616  24.147  0.00  0.00    -0.503 OA
ATOM     21  H   UNL     1       5.015   4.500  24.364  0.00  0.00    +0.292 HD
ENDBRANCH  16  20
ENDBRANCH   1  13
BRANCH   5  22
ATOM     22  O   UNL     1      10.323  -5.201  24.860  0.00  0.00    -0.506 OA
ATOM     23  H   UNL     1      10.502  -6.025  25.370  0.00  0.00    +0.292 HD
ENDBRANCH   5  22
BRANCH  11  24
ATOM     24  O   UNL     1      10.092  -0.330  23.105  0.00  0.00    -0.501 OA
ATOM     25  H   UNL     1      10.506   0.359  23.651  0.00  0.00    +0.292 HD
ENDBRANCH  11  24
BRANCH   7  26
ATOM     26  O   UNL     1       6.721  -5.303  28.008  0.00  0.00    -0.325 OA
BRANCH  26  27
ATOM     27  S   UNL     1       5.406  -6.188  27.622  0.00  0.00    +0.251 S 
ATOM     28  O   UNL     1       5.475  -6.598  26.236  0.00  0.00    -0.108 OA
ATOM     29  O   UNL     1       4.230  -5.551  28.178  0.00  0.00    -0.108 OA
BRANCH  27  30
ATOM     30  O   UNL     1       5.598  -7.517  28.516  0.00  0.00    -0.222 OA
ATOM     31  H   UNL     1       6.536  -7.543  28.796  0.00  0.00    +0.248 HD
ENDBRANCH  27  30
ENDBRANCH  26  27
ENDBRANCH   7  26
TORSDOF 8
ENDMDL
MODEL 7
REMARK VINA RESULT:      -6.9      3.083      7.731
REMARK  Name = 
REMARK  8 active torsions:
REMARK  status: ('A' for Active; 'I' for Inactive)
REMARK    1  A    between atoms: C_3  and  O_26
REMARK    2  A    between atoms: C_4  and  O_25
REMARK    3  A    between atoms: C_6  and  C_7
REMARK    4  A    between atoms: C_8  and  O_24
REMARK    5  A    between atoms: C_12  and  O_23
REMARK    6  A    between atoms: C_14  and  O_18
REMARK    7  A    between atoms: O_18  and  S_19
REMARK    8  A    between atoms: S_19  and  O_22
REMARK                            x       y       z     vdW  Elec       q    Type
REMARK                         _______ _______ _______ _____ _____    ______ ____
ROOT
ATOM      1  C   UNL     1       6.999  -4.098  24.264  0.00  0.00    +0.181 A 
ATOM      2  O   UNL     1       6.344  -2.881  24.041  0.00  0.00    -0.451 OA
ATOM      3  C   UNL     1       7.087  -1.781  23.670  0.00  0.00    +0.147 A 
ATOM      4  C   UNL     1       8.475  -1.802  23.604  0.00  0.00    +0.109 A 
ATOM      5  C   UNL     1       9.187  -0.658  23.230  0.00  0.00    +0.135 A 
ATOM      6  C   UNL     1       8.517   0.520  22.921  0.00  0.00    +0.095 A 
ATOM      7  C   UNL     1       7.125   0.562  23.000  0.00  0.00    +0.166 A 
ATOM      8  C   UNL     1       9.171  -3.050  23.903  0.00  0.00    +0.238 A 
ATOM      9  O   UNL     1      10.401  -3.084  23.892  0.00  0.00    -0.283 OA
ATOM     10  C   UNL     1       6.409  -0.596  23.355  0.00  0.00    +0.096 A 
ATOM     11  C   UNL     1       8.339  -4.248  24.165  0.00  0.00    +0.208 A 
ENDROOT
BRANCH   1  13
ATOM     12  C   UNL     1       5.241  -5.805  23.597  0.00  0.00    +0.015 A 
ATOM     13  C   UNL     1       6.084  -5.238  24.580  0.00  0.00    +0.025 A 
ATOM     14  C   UNL     1       6.012  -5.769  25.878  0.00  0.00    +0.060 A 
ATOM     15  C   UNL     1       5.065  -6.748  26.181  0.00  0.00    +0.159 A 
ATOM     16  C   UNL     1       4.175  -7.215  25.218  0.00  0.00    +0.158 A 
ATOM     17  C   UNL     1       4.267  -6.761  23.914  0.00  0.00    +0.050 A 
BRANCH  15  18
ATOM     18  O   UNL     1       4.994  -7.238  27.455  0.00  0.00    -0.503 OA
ATOM     19  H   UNL     1       4.209  -6.801  27.845  0.00  0.00    +0.292 HD
ENDBRANCH  15  18
BRANCH  16  20
ATOM     20  O   UNL     1       3.229  -8.121  25.604  0.00  0.00    -0.503 OA
ATOM     21  H   UNL     1       3.180  -8.822  24.930  0.00  0.00    +0.292 HD
ENDBRANCH  16  20
ENDBRANCH   1  13
BRANCH   5  22
ATOM     22  O   UNL     1      10.552  -0.623  23.136  0.00  0.00    -0.506 OA
ATOM     23  H   UNL     1      10.853   0.292  23.341  0.00  0.00    +0.292 HD
ENDBRANCH   5  22
BRANCH  11  24
ATOM     24  O   UNL     1       9.021  -5.447  24.254  0.00  0.00    -0.501 OA
ATOM     25  H   UNL     1       8.508  -6.125  23.784  0.00  0.00    +0.292 HD
ENDBRANCH  11  24
BRANCH   7  26
ATOM     26  O   UNL     1       6.379   1.680  22.716  0.00  0.00    -0.325 OA
BRANCH  26  27
ATOM     27  S   UNL     1       5.807   2.643  23.902  0.00  0.00    +0.251 S 
ATOM     28  O   UNL     1       5.778   4.017  23.452  0.00  0.00    -0.108 OA
ATOM     29  O   UNL     1       6.417   2.257  25.157  0.00  0.00    -0.108 OA
BRANCH  27  30
ATOM     30  O   UNL     1       4.273   2.160  24.040  0.00  0.00    -0.222 OA
ATOM     31  H   UNL     1       4.059   2.153  24.995  0.00  0.00    +0.248 HD
ENDBRANCH  27  30
ENDBRANCH  26  27
ENDBRANCH   7  26
TORSDOF 8
ENDMDL
MODEL 8
REMARK VINA RESULT:      -6.8      2.149      4.133
REMARK  Name = 
REMARK  8 active torsions:
REMARK  status: ('A' for Active; 'I' for Inactive)
REMARK    1  A    between atoms: C_3  and  O_26
REMARK    2  A    between atoms: C_4  and  O_25
REMARK    3  A    between atoms: C_6  and  C_7
REMARK    4  A    between atoms: C_8  and  O_24
REMARK    5  A    between atoms: C_12  and  O_23
REMARK    6  A    between atoms: C_14  and  O_18
REMARK    7  A    between atoms: O_18  and  S_19
REMARK    8  A    between atoms: S_19  and  O_22
REMARK                            x       y       z     vdW  Elec       q    Type
REMARK                         _______ _______ _______ _____ _____    ______ ____
ROOT
ATOM      1  C   UNL     1       7.742  -2.437  24.014  0.00  0.00    +0.181 A 
ATOM      2  O   UNL     1       6.820  -3.247  23.341  0.00  0.00    -0.451 OA
ATOM      3  C   UNL     1       6.248  -4.307  24.011  0.00  0.00    +0.147 A 
ATOM      4  C   UNL     1       6.623  -4.669  25.299  0.00  0.00    +0.109 A 
ATOM      5  C   UNL     1       6.019  -5.758  25.936  0.00  0.00    +0.135 A 
ATOM      6  C   UNL     1       5.037  -6.498  25.287  0.00  0.00    +0.095 A 
ATOM      7  C   UNL     1       4.662  -6.157  23.989  0.00  0.00    +0.166 A 
ATOM      8  C   UNL     1       7.636  -3.871  25.984  0.00  0.00    +0.238 A 
ATOM      9  O   UNL     1       8.015  -4.196  27.108  0.00  0.00    -0.283 OA
ATOM     10  C   UNL     1       5.254  -5.048  23.357  0.00  0.00    +0.096 A 
ATOM     11  C   UNL     1       8.131  -2.660  25.290  0.00  0.00    +0.208 A 
ENDROOT
BRANCH   1  13
ATOM     12  C   UNL     1       9.551  -1.227  22.704  0.00  0.00    +0.015 A 
ATOM     13  C   UNL     1       8.233  -1.272  23.216  0.00  0.00    +0.025 A 
ATOM     14  C   UNL     1       7.406  -0.165  22.968  0.00  0.00    +0.060 A 
ATOM     15  C   UNL     1       7.921   0.963  22.328  0.00  0.00    +0.159 A 
ATOM     16  C   UNL     1       9.252   1.022  21.927  0.00  0.00    +0.158 A 
ATOM     17  C   UNL     1      10.073  -0.078  22.095  0.00  0.00    +0.050 A 
BRANCH  15  18
ATOM     18  O   UNL     1       7.106   2.041  22.115  0.00  0.00    -0.503 OA
ATOM     19  H   UNL     1       7.002   2.450  22.998  0.00  0.00    +0.292 HD
ENDBRANCH  15  18
BRANCH  16  20
ATOM     20  O   UNL     1       9.704   2.185  21.372  0.00  0.00    -0.503 OA
ATOM     21  H   UNL     1       9.349   2.253  20.468  0.00  0.00    +0.292 HD
ENDBRANCH  16  20
ENDBRANCH   1  13
BRANCH   5  22
ATOM     22  O   UNL     1       6.339  -6.153  27.207  0.00  0.00    -0.506 OA
ATOM     23  H   UNL     1       7.221  -5.777  27.435  0.00  0.00    +0.292 HD
ENDBRANCH   5  22
BRANCH  11  24
ATOM     24  O   UNL     1       8.942  -1.827  26.039  0.00  0.00    -0.501 OA
ATOM     25  H   UNL     1       8.404  -1.081  26.353  0.00  0.00    +0.292 HD
ENDBRANCH  11  24
BRANCH   7  26
ATOM     26  O   UNL     1       3.704  -6.830  23.270  0.00  0.00    -0.325 OA
BRANCH  26  27
ATOM     27  S   UNL     1       2.422  -7.523  24.004  0.00  0.00    +0.251 S 
ATOM     28  O   UNL     1       1.602  -6.508  24.628  0.00  0.00    -0.108 OA
ATOM     29  O   UNL     1       2.869  -8.699  24.721  0.00  0.00    -0.108 OA
BRANCH  27  30
ATOM     30  O   UNL     1       1.578  -8.112  22.762  0.00  0.00    -0.222 OA
ATOM     31  H   UNL     1       1.076  -7.366  22.375  0.00  0.00    +0.248 HD
ENDBRANCH  27  30
ENDBRANCH  26  27
ENDBRANCH   7  26
TORSDOF 8
ENDMDL
MODEL 9
REMARK VINA RESULT:      -6.8      3.614      8.526
REMARK  Name = 
REMARK  8 active torsions:
REMARK  status: ('A' for Active; 'I' for Inactive)
REMARK    1  A    between atoms: C_3  and  O_26
REMARK    2  A    between atoms: C_4  and  O_25
REMARK    3  A    between atoms: C_6  and  C_7
REMARK    4  A    between atoms: C_8  and  O_24
REMARK    5  A    between atoms: C_12  and  O_23
REMARK    6  A    between atoms: C_14  and  O_18
REMARK    7  A    between atoms: O_18  and  S_19
REMARK    8  A    between atoms: S_19  and  O_22
REMARK                            x       y       z     vdW  Elec       q    Type
REMARK                         _______ _______ _______ _____ _____    ______ ____
ROOT
ATOM      1  C   UNL     1       7.911  -2.091  23.981  0.00  0.00    +0.181 A 
ATOM      2  O   UNL     1       6.954  -1.080  23.836  0.00  0.00    -0.451 OA
ATOM      3  C   UNL     1       7.313   0.095  23.212  0.00  0.00    +0.147 A 
ATOM      4  C   UNL     1       8.616   0.361  22.807  0.00  0.00    +0.109 A 
ATOM      5  C   UNL     1       8.934   1.571  22.184  0.00  0.00    +0.135 A 
ATOM      6  C   UNL     1       7.952   2.531  21.964  0.00  0.00    +0.095 A 
ATOM      7  C   UNL     1       6.645   2.286  22.380  0.00  0.00    +0.166 A 
ATOM      8  C   UNL     1       9.636  -0.662  23.017  0.00  0.00    +0.238 A 
ATOM      9  O   UNL     1      10.805  -0.436  22.704  0.00  0.00    -0.283 OA
ATOM     10  C   UNL     1       6.321   1.059  22.987  0.00  0.00    +0.096 A 
ATOM     11  C   UNL     1       9.192  -1.965  23.564  0.00  0.00    +0.208 A 
ENDROOT
BRANCH   1  13
ATOM     12  C   UNL     1       6.202  -3.964  24.130  0.00  0.00    +0.015 A 
ATOM     13  C   UNL     1       7.386  -3.349  24.597  0.00  0.00    +0.025 A 
ATOM     14  C   UNL     1       8.042  -3.949  25.684  0.00  0.00    +0.060 A 
ATOM     15  C   UNL     1       7.470  -5.050  26.323  0.00  0.00    +0.159 A 
ATOM     16  C   UNL     1       6.249  -5.573  25.908  0.00  0.00    +0.158 A 
ATOM     17  C   UNL     1       5.614  -5.047  24.798  0.00  0.00    +0.050 A 
BRANCH  15  18
ATOM     18  O   UNL     1       8.111  -5.608  27.394  0.00  0.00    -0.503 OA
ATOM     19  H   UNL     1       7.942  -4.989  28.134  0.00  0.00    +0.292 HD
ENDBRANCH  15  18
BRANCH  16  20
ATOM     20  O   UNL     1       5.716  -6.606  26.625  0.00  0.00    -0.503 OA
ATOM     21  H   UNL     1       6.275  -6.758  27.408  0.00  0.00    +0.292 HD
ENDBRANCH  16  20
ENDBRANCH   1  13
BRANCH   5  22
ATOM     22  O   UNL     1      10.196   1.882  21.753  0.00  0.00    -0.506 OA
ATOM     23  H   UNL     1      10.152   2.092  20.791  0.00  0.00    +0.292 HD
ENDBRANCH   5  22
BRANCH  11  24
ATOM     24  O   UNL     1      10.140  -2.970  23.572  0.00  0.00    -0.501 OA
ATOM     25  H   UNL     1       9.859  -3.650  24.206  0.00  0.00    +0.292 HD
ENDBRANCH  11  24
BRANCH   7  26
ATOM     26  O   UNL     1       5.611   3.174  22.207  0.00  0.00    -0.325 OA
BRANCH  26  27
ATOM     27  S   UNL     1       5.592   4.616  22.971  0.00  0.00    +0.251 S 
ATOM     28  O   UNL     1       6.369   4.540  24.189  0.00  0.00    -0.108 OA
ATOM     29  O   UNL     1       4.243   5.142  22.950  0.00  0.00    -0.108 OA
BRANCH  27  30
ATOM     30  O   UNL     1       6.405   5.567  21.953  0.00  0.00    -0.222 OA
ATOM     31  H   UNL     1       7.174   5.054  21.630  0.00  0.00    +0.248 HD
ENDBRANCH  27  30
ENDBRANCH  26  27
ENDBRANCH   7  26
TORSDOF 8
ENDMDL
