MODEL 1
REMARK VINA RESULT:      -7.4      0.000      0.000
REMARK  Name = 
REMARK  11 active torsions:
REMARK  status: ('A' for Active; 'I' for Inactive)
REMARK    1  A    between atoms: C_1  and  C_2
REMARK    2  A    between atoms: C_4  and  O_37
REMARK    3  A    between atoms: C_6  and  O_36
REMARK    4  A    between atoms: C_8  and  O_35
REMARK    5  A    between atoms: C_10  and  O_13
REMARK    6  A    between atoms: O_13  and  C_14
REMARK    7  A    between atoms: C_15  and  C_27
REMARK    8  A    between atoms: C_19  and  O_26
REMARK    9  A    between atoms: C_21  and  O_25
REMARK   10  A    between atoms: C_29  and  O_34
REMARK   11  A    between atoms: C_30  and  O_33
REMARK                            x       y       z     vdW  Elec       q    Type
REMARK                         _______ _______ _______ _____ _____    ______ ____
ROOT
ATOM      1  C   UNL     1       7.646  -2.968  24.751  0.00  0.00    +0.214 A 
ATOM      2  C   UNL     1       8.879  -2.604  23.992  0.00  0.00    +0.238 A 
ATOM      3  O   UNL     1       9.887  -3.300  24.049  0.00  0.00    -0.283 OA
ATOM      4  C   UNL     1       8.846  -1.328  23.258  0.00  0.00    +0.109 A 
ATOM      5  C   UNL     1       7.787  -0.456  23.517  0.00  0.00    +0.147 A 
ATOM      6  C   UNL     1       7.748   0.804  22.907  0.00  0.00    +0.092 A 
ATOM      7  C   UNL     1       8.775   1.176  22.046  0.00  0.00    +0.124 A 
ATOM      8  C   UNL     1       9.827   0.314  21.765  0.00  0.00    +0.091 A 
ATOM      9  O   UNL     1       6.757  -0.753  24.380  0.00  0.00    -0.451 OA
ATOM     10  C   UNL     1       9.859  -0.943  22.365  0.00  0.00    +0.135 A 
ATOM     11  C   UNL     1       6.708  -2.018  24.951  0.00  0.00    +0.181 A 
ENDROOT
BRANCH  11  12
ATOM     12  C   UNL     1       5.511  -2.251  25.820  0.00  0.00    +0.025 A 
ATOM     13  C   UNL     1       5.610  -2.179  27.224  0.00  0.00    +0.015 A 
ATOM     14  C   UNL     1       4.480  -2.363  28.041  0.00  0.00    +0.050 A 
ATOM     15  C   UNL     1       3.247  -2.612  27.459  0.00  0.00    +0.158 A 
ATOM     16  C   UNL     1       3.130  -2.711  26.081  0.00  0.00    +0.159 A 
ATOM     17  C   UNL     1       4.250  -2.562  25.270  0.00  0.00    +0.060 A 
BRANCH  15  18
ATOM     18  O   UNL     1       2.141  -2.751  28.248  0.00  0.00    -0.503 OA
ATOM     19  H   UNL     1       1.391  -2.542  27.653  0.00  0.00    +0.292 HD
ENDBRANCH  15  18
BRANCH  16  20
ATOM     20  O   UNL     1       1.887  -2.942  25.557  0.00  0.00    -0.503 OA
ATOM     21  H   UNL     1       1.243  -2.426  26.077  0.00  0.00    +0.292 HD
ENDBRANCH  16  20
ENDBRANCH  11  12
BRANCH   7  22
ATOM     22  O   UNL     1       8.795   2.397  21.442  0.00  0.00    -0.507 OA
ATOM     23  H   UNL     1       8.296   3.031  21.984  0.00  0.00    +0.292 HD
ENDBRANCH   7  22
BRANCH  10  24
ATOM     24  O   UNL     1      10.886  -1.790  22.055  0.00  0.00    -0.506 OA
ATOM     25  H   UNL     1      11.056  -2.393  22.795  0.00  0.00    +0.292 HD
ENDBRANCH  10  24
BRANCH   1  26
ATOM     26  O   UNL     1       7.494  -4.220  25.305  0.00  0.00    -0.453 OA
BRANCH  26  30
ATOM     27  C   UNL     1       6.175  -5.476  20.907  0.00  0.00    +0.041 C 
ATOM     28  C   UNL     1       6.231  -5.949  22.353  0.00  0.00    +0.150 C 
ATOM     29  O   UNL     1       6.680  -4.851  23.159  0.00  0.00    -0.334 OA
ATOM     30  C   UNL     1       6.966  -5.272  24.501  0.00  0.00    +0.339 C 
ATOM     31  C   UNL     1       5.662  -5.721  25.198  0.00  0.00    +0.214 C 
ATOM     32  C   UNL     1       5.001  -6.826  24.357  0.00  0.00    +0.180 C 
ATOM     33  C   UNL     1       4.860  -6.396  22.882  0.00  0.00    +0.174 C 
BRANCH  31  34
ATOM     34  O   UNL     1       5.929  -6.156  26.548  0.00  0.00    -0.383 OA
ATOM     35  H   UNL     1       6.131  -7.105  26.525  0.00  0.00    +0.210 HD
ENDBRANCH  31  34
BRANCH  32  36
ATOM     36  O   UNL     1       3.745  -7.194  24.934  0.00  0.00    -0.386 OA
ATOM     37  H   UNL     1       3.127  -7.405  24.211  0.00  0.00    +0.210 HD
ENDBRANCH  32  36
BRANCH  33  38
ATOM     38  O   UNL     1       3.912  -5.325  22.780  0.00  0.00    -0.387 OA
ATOM     39  H   UNL     1       4.177  -4.638  23.424  0.00  0.00    +0.210 HD
ENDBRANCH  33  38
ENDBRANCH  26  30
ENDBRANCH   1  26
TORSDOF 10
ENDMDL
MODEL 2
REMARK VINA RESULT:      -7.3      2.082      7.236
REMARK  Name = 
REMARK  11 active torsions:
REMARK  status: ('A' for Active; 'I' for Inactive)
REMARK    1  A    between atoms: C_1  and  C_2
REMARK    2  A    between atoms: C_4  and  O_37
REMARK    3  A    between atoms: C_6  and  O_36
REMARK    4  A    between atoms: C_8  and  O_35
REMARK    5  A    between atoms: C_10  and  O_13
REMARK    6  A    between atoms: O_13  and  C_14
REMARK    7  A    between atoms: C_15  and  C_27
REMARK    8  A    between atoms: C_19  and  O_26
REMARK    9  A    between atoms: C_21  and  O_25
REMARK   10  A    between atoms: C_29  and  O_34
REMARK   11  A    between atoms: C_30  and  O_33
REMARK                            x       y       z     vdW  Elec       q    Type
REMARK                         _______ _______ _______ _____ _____    ______ ____
ROOT
ATOM      1  C   UNL     1       7.384  -3.409  25.638  0.00  0.00    +0.214 A 
ATOM      2  C   UNL     1       6.909  -4.613  26.382  0.00  0.00    +0.238 A 
ATOM      3  O   UNL     1       7.408  -4.934  27.456  0.00  0.00    -0.283 OA
ATOM      4  C   UNL     1       5.886  -5.437  25.715  0.00  0.00    +0.109 A 
ATOM      5  C   UNL     1       5.622  -5.179  24.369  0.00  0.00    +0.147 A 
ATOM      6  C   UNL     1       4.717  -5.982  23.664  0.00  0.00    +0.092 A 
ATOM      7  C   UNL     1       4.090  -7.038  24.319  0.00  0.00    +0.124 A 
ATOM      8  C   UNL     1       4.330  -7.297  25.662  0.00  0.00    +0.091 A 
ATOM      9  O   UNL     1       6.229  -4.170  23.659  0.00  0.00    -0.451 OA
ATOM     10  C   UNL     1       5.223  -6.490  26.364  0.00  0.00    +0.135 A 
ATOM     11  C   UNL     1       7.076  -3.297  24.329  0.00  0.00    +0.181 A 
ENDROOT
BRANCH  11  12
ATOM     12  C   UNL     1       7.629  -2.201  23.472  0.00  0.00    +0.025 A 
ATOM     13  C   UNL     1       6.910  -1.006  23.271  0.00  0.00    +0.015 A 
ATOM     14  C   UNL     1       7.442   0.039  22.494  0.00  0.00    +0.050 A 
ATOM     15  C   UNL     1       8.697  -0.102  21.923  0.00  0.00    +0.158 A 
ATOM     16  C   UNL     1       9.413  -1.278  22.088  0.00  0.00    +0.159 A 
ATOM     17  C   UNL     1       8.878  -2.327  22.828  0.00  0.00    +0.060 A 
BRANCH  15  18
ATOM     18  O   UNL     1       9.234   0.926  21.203  0.00  0.00    -0.503 OA
ATOM     19  H   UNL     1       8.509   1.581  21.136  0.00  0.00    +0.292 HD
ENDBRANCH  15  18
BRANCH  16  20
ATOM     20  O   UNL     1      10.655  -1.360  21.517  0.00  0.00    -0.503 OA
ATOM     21  H   UNL     1      11.307  -1.052  22.174  0.00  0.00    +0.292 HD
ENDBRANCH  16  20
ENDBRANCH  11  12
BRANCH   7  22
ATOM     22  O   UNL     1       3.217  -7.862  23.674  0.00  0.00    -0.507 OA
ATOM     23  H   UNL     1       2.352  -7.822  24.117  0.00  0.00    +0.292 HD
ENDBRANCH   7  22
BRANCH  10  24
ATOM     24  O   UNL     1       5.426  -6.741  27.691  0.00  0.00    -0.506 OA
ATOM     25  H   UNL     1       4.588  -6.675  28.176  0.00  0.00    +0.292 HD
ENDBRANCH  10  24
BRANCH   1  26
ATOM     26  O   UNL     1       8.184  -2.467  26.245  0.00  0.00    -0.453 OA
BRANCH  26  30
ATOM     27  C   UNL     1       4.056  -0.689  27.813  0.00  0.00    +0.041 C 
ATOM     28  C   UNL     1       5.552  -0.420  27.721  0.00  0.00    +0.150 C 
ATOM     29  O   UNL     1       6.139  -1.456  26.921  0.00  0.00    -0.334 OA
ATOM     30  C   UNL     1       7.572  -1.398  26.963  0.00  0.00    +0.339 C 
ATOM     31  C   UNL     1       8.063  -0.099  26.285  0.00  0.00    +0.214 C 
ATOM     32  C   UNL     1       7.400   1.105  26.975  0.00  0.00    +0.180 C 
ATOM     33  C   UNL     1       5.870   0.929  27.056  0.00  0.00    +0.174 C 
BRANCH  31  34
ATOM     34  O   UNL     1       9.503  -0.018  26.323  0.00  0.00    -0.383 OA
ATOM     35  H   UNL     1       9.749   0.897  26.534  0.00  0.00    +0.210 HD
ENDBRANCH  31  34
BRANCH  32  36
ATOM     36  O   UNL     1       7.768   2.315  26.305  0.00  0.00    -0.386 OA
ATOM     37  H   UNL     1       8.705   2.499  26.502  0.00  0.00    +0.210 HD
ENDBRANCH  32  36
BRANCH  33  38
ATOM     38  O   UNL     1       5.307   0.981  25.739  0.00  0.00    -0.387 OA
ATOM     39  H   UNL     1       5.065   1.912  25.561  0.00  0.00    +0.210 HD
ENDBRANCH  33  38
ENDBRANCH  26  30
ENDBRANCH   1  26
TORSDOF 10
ENDMDL
MODEL 3
REMARK VINA RESULT:      -6.9      2.562      7.235
REMARK  Name = 
REMARK  11 active torsions:
REMARK  status: ('A' for Active; 'I' for Inactive)
REMARK    1  A    between atoms: C_1  and  C_2
REMARK    2  A    between atoms: C_4  and  O_37
REMARK    3  A    between atoms: C_6  and  O_36
REMARK    4  A    between atoms: C_8  and  O_35
REMARK    5  A    between atoms: C_10  and  O_13
REMARK    6  A    between atoms: O_13  and  C_14
REMARK    7  A    between atoms: C_15  and  C_27
REMARK    8  A    between atoms: C_19  and  O_26
REMARK    9  A    between atoms: C_21  and  O_25
REMARK   10  A    between atoms: C_29  and  O_34
REMARK   11  A    between atoms: C_30  and  O_33
REMARK                            x       y       z     vdW  Elec       q    Type
REMARK                         _______ _______ _______ _____ _____    ______ ____
ROOT
ATOM      1  C   UNL     1       7.665  -1.941  25.134  0.00  0.00    +0.214 A 
ATOM      2  C   UNL     1       7.066  -3.276  25.431  0.00  0.00    +0.238 A 
ATOM      3  O   UNL     1       6.997  -3.699  26.580  0.00  0.00    -0.283 OA
ATOM      4  C   UNL     1       6.656  -4.086  24.271  0.00  0.00    +0.109 A 
ATOM      5  C   UNL     1       7.073  -3.665  23.007  0.00  0.00    +0.147 A 
ATOM      6  C   UNL     1       6.780  -4.439  21.877  0.00  0.00    +0.092 A 
ATOM      7  C   UNL     1       6.075  -5.629  22.030  0.00  0.00    +0.124 A 
ATOM      8  C   UNL     1       5.640  -6.052  23.279  0.00  0.00    +0.091 A 
ATOM      9  O   UNL     1       7.796  -2.515  22.792  0.00  0.00    -0.451 OA
ATOM     10  C   UNL     1       5.923  -5.275  24.400  0.00  0.00    +0.135 A 
ATOM     11  C   UNL     1       8.047  -1.673  23.868  0.00  0.00    +0.181 A 
ENDROOT
BRANCH  11  12
ATOM     12  C   UNL     1       8.786  -0.422  23.507  0.00  0.00    +0.025 A 
ATOM     13  C   UNL     1      10.091  -0.188  23.983  0.00  0.00    +0.015 A 
ATOM     14  C   UNL     1      10.800   0.970  23.617  0.00  0.00    +0.050 A 
ATOM     15  C   UNL     1      10.212   1.895  22.769  0.00  0.00    +0.158 A 
ATOM     16  C   UNL     1       8.919   1.697  22.306  0.00  0.00    +0.159 A 
ATOM     17  C   UNL     1       8.201   0.570  22.691  0.00  0.00    +0.060 A 
BRANCH  15  18
ATOM     18  O   UNL     1      10.912   3.000  22.379  0.00  0.00    -0.503 OA
ATOM     19  H   UNL     1      11.828   2.825  22.678  0.00  0.00    +0.292 HD
ENDBRANCH  15  18
BRANCH  16  20
ATOM     20  O   UNL     1       8.391   2.633  21.458  0.00  0.00    -0.503 OA
ATOM     21  H   UNL     1       7.419   2.602  21.547  0.00  0.00    +0.292 HD
ENDBRANCH  16  20
ENDBRANCH  11  12
BRANCH   7  22
ATOM     22  O   UNL     1       5.781  -6.428  20.967  0.00  0.00    -0.507 OA
ATOM     23  H   UNL     1       5.040  -7.012  21.200  0.00  0.00    +0.292 HD
ENDBRANCH   7  22
BRANCH  10  24
ATOM     24  O   UNL     1       5.463  -5.692  25.617  0.00  0.00    -0.506 OA
ATOM     25  H   UNL     1       4.513  -5.886  25.568  0.00  0.00    +0.292 HD
ENDBRANCH  10  24
BRANCH   1  26
ATOM     26  O   UNL     1       7.898  -1.026  26.137  0.00  0.00    -0.453 OA
BRANCH  26  30
ATOM     27  C   UNL     1       7.866   3.710  25.656  0.00  0.00    +0.041 C 
ATOM     28  C   UNL     1       7.012   2.511  26.042  0.00  0.00    +0.150 C 
ATOM     29  O   UNL     1       7.858   1.352  26.058  0.00  0.00    -0.334 OA
ATOM     30  C   UNL     1       7.092   0.148  26.202  0.00  0.00    +0.339 C 
ATOM     31  C   UNL     1       6.417   0.119  27.592  0.00  0.00    +0.214 C 
ATOM     32  C   UNL     1       5.566   1.389  27.760  0.00  0.00    +0.180 C 
ATOM     33  C   UNL     1       6.384   2.657  27.437  0.00  0.00    +0.174 C 
BRANCH  31  34
ATOM     34  O   UNL     1       5.634  -1.081  27.754  0.00  0.00    -0.383 OA
ATOM     35  H   UNL     1       5.986  -1.756  27.153  0.00  0.00    +0.210 HD
ENDBRANCH  31  34
BRANCH  32  36
ATOM     36  O   UNL     1       5.005   1.430  29.076  0.00  0.00    -0.386 OA
ATOM     37  H   UNL     1       5.709   1.683  29.700  0.00  0.00    +0.210 HD
ENDBRANCH  32  36
BRANCH  33  38
ATOM     38  O   UNL     1       7.404   2.838  28.428  0.00  0.00    -0.387 OA
ATOM     39  H   UNL     1       7.831   1.970  28.571  0.00  0.00    +0.210 HD
ENDBRANCH  33  38
ENDBRANCH  26  30
ENDBRANCH   1  26
TORSDOF 10
ENDMDL
MODEL 4
REMARK VINA RESULT:      -6.7      2.252      6.659
REMARK  Name = 
REMARK  11 active torsions:
REMARK  status: ('A' for Active; 'I' for Inactive)
REMARK    1  A    between atoms: C_1  and  C_2
REMARK    2  A    between atoms: C_4  and  O_37
REMARK    3  A    between atoms: C_6  and  O_36
REMARK    4  A    between atoms: C_8  and  O_35
REMARK    5  A    between atoms: C_10  and  O_13
REMARK    6  A    between atoms: O_13  and  C_14
REMARK    7  A    between atoms: C_15  and  C_27
REMARK    8  A    between atoms: C_19  and  O_26
REMARK    9  A    between atoms: C_21  and  O_25
REMARK   10  A    between atoms: C_29  and  O_34
REMARK   11  A    between atoms: C_30  and  O_33
REMARK                            x       y       z     vdW  Elec       q    Type
REMARK                         _______ _______ _______ _____ _____    ______ ____
ROOT
ATOM      1  C   UNL     1       5.738  -2.250  24.012  0.00  0.00    +0.214 A 
ATOM      2  C   UNL     1       5.241  -3.448  23.273  0.00  0.00    +0.238 A 
ATOM      3  O   UNL     1       5.130  -3.439  22.052  0.00  0.00    -0.283 OA
ATOM      4  C   UNL     1       4.807  -4.592  24.093  0.00  0.00    +0.109 A 
ATOM      5  C   UNL     1       4.662  -4.389  25.466  0.00  0.00    +0.147 A 
ATOM      6  C   UNL     1       4.177  -5.419  26.282  0.00  0.00    +0.092 A 
ATOM      7  C   UNL     1       3.838  -6.640  25.708  0.00  0.00    +0.124 A 
ATOM      8  C   UNL     1       3.993  -6.863  24.346  0.00  0.00    +0.091 A 
ATOM      9  O   UNL     1       4.951  -3.197  26.089  0.00  0.00    -0.451 OA
ATOM     10  C   UNL     1       4.485  -5.840  23.538  0.00  0.00    +0.135 A 
ATOM     11  C   UNL     1       5.508  -2.169  25.340  0.00  0.00    +0.181 A 
ENDROOT
BRANCH  11  12
ATOM     12  C   UNL     1       5.841  -0.944  26.133  0.00  0.00    +0.025 A 
ATOM     13  C   UNL     1       4.984   0.175  26.132  0.00  0.00    +0.015 A 
ATOM     14  C   UNL     1       5.278   1.314  26.903  0.00  0.00    +0.050 A 
ATOM     15  C   UNL     1       6.422   1.336  27.685  0.00  0.00    +0.158 A 
ATOM     16  C   UNL     1       7.292   0.256  27.684  0.00  0.00    +0.159 A 
ATOM     17  C   UNL     1       7.024  -0.859  26.898  0.00  0.00    +0.060 A 
BRANCH  15  18
ATOM     18  O   UNL     1       6.689   2.423  28.466  0.00  0.00    -0.503 OA
ATOM     19  H   UNL     1       7.610   2.666  28.239  0.00  0.00    +0.292 HD
ENDBRANCH  15  18
BRANCH  16  20
ATOM     20  O   UNL     1       8.399   0.323  28.486  0.00  0.00    -0.503 OA
ATOM     21  H   UNL     1       8.433  -0.495  29.017  0.00  0.00    +0.292 HD
ENDBRANCH  16  20
ENDBRANCH  11  12
BRANCH   7  22
ATOM     22  O   UNL     1       3.344  -7.668  26.452  0.00  0.00    -0.507 OA
ATOM     23  H   UNL     1       2.992  -8.353  25.859  0.00  0.00    +0.292 HD
ENDBRANCH   7  22
BRANCH  10  24
ATOM     24  O   UNL     1       4.658  -6.086  22.205  0.00  0.00    -0.506 OA
ATOM     25  H   UNL     1       4.546  -5.266  21.697  0.00  0.00    +0.292 HD
ENDBRANCH  10  24
BRANCH   1  26
ATOM     26  O   UNL     1       6.350  -1.208  23.350  0.00  0.00    -0.453 OA
BRANCH  26  30
ATOM     27  C   UNL     1       9.409   2.258  24.488  0.00  0.00    +0.041 C 
ATOM     28  C   UNL     1       9.302   0.776  24.155  0.00  0.00    +0.150 C 
ATOM     29  O   UNL     1       7.946   0.506  23.771  0.00  0.00    -0.334 OA
ATOM     30  C   UNL     1       7.710  -0.904  23.649  0.00  0.00    +0.339 C 
ATOM     31  C   UNL     1       8.536  -1.473  22.473  0.00  0.00    +0.214 C 
ATOM     32  C   UNL     1      10.021  -1.136  22.697  0.00  0.00    +0.180 C 
ATOM     33  C   UNL     1      10.214   0.366  22.988  0.00  0.00    +0.174 C 
BRANCH  31  34
ATOM     34  O   UNL     1       8.319  -2.893  22.337  0.00  0.00    -0.383 OA
ATOM     35  H   UNL     1       9.184  -3.332  22.335  0.00  0.00    +0.210 HD
ENDBRANCH  31  34
BRANCH  32  36
ATOM     36  O   UNL     1      10.794  -1.572  21.575  0.00  0.00    -0.386 OA
ATOM     37  H   UNL     1      10.390  -1.208  20.766  0.00  0.00    +0.210 HD
ENDBRANCH  32  36
BRANCH  33  38
ATOM     38  O   UNL     1       9.900   1.130  21.816  0.00  0.00    -0.387 OA
ATOM     39  H   UNL     1      10.747   1.376  21.392  0.00  0.00    +0.210 HD
ENDBRANCH  33  38
ENDBRANCH  26  30
ENDBRANCH   1  26
TORSDOF 10
ENDMDL
MODEL 5
REMARK VINA RESULT:      -6.7      2.022      4.979
REMARK  Name = 
REMARK  11 active torsions:
REMARK  status: ('A' for Active; 'I' for Inactive)
REMARK    1  A    between atoms: C_1  and  C_2
REMARK    2  A    between atoms: C_4  and  O_37
REMARK    3  A    between atoms: C_6  and  O_36
REMARK    4  A    between atoms: C_8  and  O_35
REMARK    5  A    between atoms: C_10  and  O_13
REMARK    6  A    between atoms: O_13  and  C_14
REMARK    7  A    between atoms: C_15  and  C_27
REMARK    8  A    between atoms: C_19  and  O_26
REMARK    9  A    between atoms: C_21  and  O_25
REMARK   10  A    between atoms: C_29  and  O_34
REMARK   11  A    between atoms: C_30  and  O_33
REMARK                            x       y       z     vdW  Elec       q    Type
REMARK                         _______ _______ _______ _____ _____    ______ ____
ROOT
ATOM      1  C   UNL     1       6.304  -0.816  24.182  0.00  0.00    +0.214 A 
ATOM      2  C   UNL     1       6.359   0.660  24.396  0.00  0.00    +0.238 A 
ATOM      3  O   UNL     1       5.380   1.280  24.796  0.00  0.00    -0.283 OA
ATOM      4  C   UNL     1       7.612   1.333  24.013  0.00  0.00    +0.109 A 
ATOM      5  C   UNL     1       8.540   0.603  23.269  0.00  0.00    +0.147 A 
ATOM      6  C   UNL     1       9.712   1.216  22.810  0.00  0.00    +0.092 A 
ATOM      7  C   UNL     1       9.938   2.558  23.101  0.00  0.00    +0.124 A 
ATOM      8  C   UNL     1       9.032   3.293  23.855  0.00  0.00    +0.091 A 
ATOM      9  O   UNL     1       8.363  -0.717  22.924  0.00  0.00    -0.451 OA
ATOM     10  C   UNL     1       7.872   2.678  24.319  0.00  0.00    +0.135 A 
ATOM     11  C   UNL     1       7.255  -1.394  23.418  0.00  0.00    +0.181 A 
ENDROOT
BRANCH  11  12
ATOM     12  C   UNL     1       7.198  -2.839  23.032  0.00  0.00    +0.025 A 
ATOM     13  C   UNL     1       7.844  -3.822  23.807  0.00  0.00    +0.015 A 
ATOM     14  C   UNL     1       7.763  -5.184  23.466  0.00  0.00    +0.050 A 
ATOM     15  C   UNL     1       7.030  -5.570  22.355  0.00  0.00    +0.158 A 
ATOM     16  C   UNL     1       6.404  -4.618  21.563  0.00  0.00    +0.159 A 
ATOM     17  C   UNL     1       6.509  -3.267  21.877  0.00  0.00    +0.060 A 
BRANCH  15  18
ATOM     18  O   UNL     1       6.915  -6.894  22.044  0.00  0.00    -0.503 OA
ATOM     19  H   UNL     1       5.968  -7.096  22.186  0.00  0.00    +0.292 HD
ENDBRANCH  15  18
BRANCH  16  20
ATOM     20  O   UNL     1       5.680  -5.054  20.487  0.00  0.00    -0.503 OA
ATOM     21  H   UNL     1       4.772  -5.238  20.793  0.00  0.00    +0.292 HD
ENDBRANCH  16  20
ENDBRANCH  11  12
BRANCH   7  22
ATOM     22  O   UNL     1      11.052   3.208  22.663  0.00  0.00    -0.507 OA
ATOM     23  H   UNL     1      11.511   2.652  22.010  0.00  0.00    +0.292 HD
ENDBRANCH   7  22
BRANCH  10  24
ATOM     24  O   UNL     1       7.005   3.408  25.082  0.00  0.00    -0.506 OA
ATOM     25  H   UNL     1       6.113   3.374  24.701  0.00  0.00    +0.292 HD
ENDBRANCH  10  24
BRANCH   1  26
ATOM     26  O   UNL     1       5.266  -1.570  24.684  0.00  0.00    -0.453 OA
BRANCH  26  30
ATOM     27  C   UNL     1       6.275  -5.253  27.528  0.00  0.00    +0.041 C 
ATOM     28  C   UNL     1       5.751  -3.823  27.511  0.00  0.00    +0.150 C 
ATOM     29  O   UNL     1       5.611  -3.420  26.141  0.00  0.00    -0.334 OA
ATOM     30  C   UNL     1       5.328  -2.018  26.037  0.00  0.00    +0.339 C 
ATOM     31  C   UNL     1       3.939  -1.717  26.643  0.00  0.00    +0.214 C 
ATOM     32  C   UNL     1       3.909  -2.222  28.096  0.00  0.00    +0.180 C 
ATOM     33  C   UNL     1       4.378  -3.689  28.186  0.00  0.00    +0.174 C 
BRANCH  31  34
ATOM     34  O   UNL     1       3.638  -0.308  26.556  0.00  0.00    -0.383 OA
ATOM     35  H   UNL     1       4.347   0.181  27.001  0.00  0.00    +0.210 HD
ENDBRANCH  31  34
BRANCH  32  36
ATOM     36  O   UNL     1       2.603  -2.038  28.650  0.00  0.00    -0.386 OA
ATOM     37  H   UNL     1       2.303  -2.891  29.013  0.00  0.00    +0.210 HD
ENDBRANCH  32  36
BRANCH  33  38
ATOM     38  O   UNL     1       3.420  -4.542  27.545  0.00  0.00    -0.387 OA
ATOM     39  H   UNL     1       2.613  -4.011  27.390  0.00  0.00    +0.210 HD
ENDBRANCH  33  38
ENDBRANCH  26  30
ENDBRANCH   1  26
TORSDOF 10
ENDMDL
MODEL 6
REMARK VINA RESULT:      -6.6      2.018      4.102
REMARK  Name = 
REMARK  11 active torsions:
REMARK  status: ('A' for Active; 'I' for Inactive)
REMARK    1  A    between atoms: C_1  and  C_2
REMARK    2  A    between atoms: C_4  and  O_37
REMARK    3  A    between atoms: C_6  and  O_36
REMARK    4  A    between atoms: C_8  and  O_35
REMARK    5  A    between atoms: C_10  and  O_13
REMARK    6  A    between atoms: O_13  and  C_14
REMARK    7  A    between atoms: C_15  and  C_27
REMARK    8  A    between atoms: C_19  and  O_26
REMARK    9  A    between atoms: C_21  and  O_25
REMARK   10  A    between atoms: C_29  and  O_34
REMARK   11  A    between atoms: C_30  and  O_33
REMARK                            x       y       z     vdW  Elec       q    Type
REMARK                         _______ _______ _______ _____ _____    ______ ____
ROOT
ATOM      1  C   UNL     1       7.767  -2.635  25.184  0.00  0.00    +0.214 A 
ATOM      2  C   UNL     1       8.606  -1.444  25.510  0.00  0.00    +0.238 A 
ATOM      3  O   UNL     1       9.021  -1.253  26.648  0.00  0.00    -0.283 OA
ATOM      4  C   UNL     1       8.823  -0.476  24.422  0.00  0.00    +0.109 A 
ATOM      5  C   UNL     1       8.047  -0.610  23.269  0.00  0.00    +0.147 A 
ATOM      6  C   UNL     1       8.156   0.329  22.236  0.00  0.00    +0.092 A 
ATOM      7  C   UNL     1       9.039   1.395  22.374  0.00  0.00    +0.124 A 
ATOM      8  C   UNL     1       9.830   1.532  23.507  0.00  0.00    +0.091 A 
ATOM      9  O   UNL     1       7.136  -1.623  23.084  0.00  0.00    -0.451 OA
ATOM     10  C   UNL     1       9.728   0.591  24.529  0.00  0.00    +0.135 A 
ATOM     11  C   UNL     1       7.045  -2.623  24.044  0.00  0.00    +0.181 A 
ENDROOT
BRANCH  11  12
ATOM     12  C   UNL     1       6.067  -3.707  23.708  0.00  0.00    +0.025 A 
ATOM     13  C   UNL     1       4.706  -3.586  24.052  0.00  0.00    +0.015 A 
ATOM     14  C   UNL     1       3.780  -4.588  23.707  0.00  0.00    +0.050 A 
ATOM     15  C   UNL     1       4.208  -5.707  23.011  0.00  0.00    +0.158 A 
ATOM     16  C   UNL     1       5.547  -5.858  22.683  0.00  0.00    +0.159 A 
ATOM     17  C   UNL     1       6.473  -4.887  23.050  0.00  0.00    +0.060 A 
BRANCH  15  18
ATOM     18  O   UNL     1       3.305  -6.661  22.640  0.00  0.00    -0.503 OA
ATOM     19  H   UNL     1       3.755  -7.156  21.925  0.00  0.00    +0.292 HD
ENDBRANCH  15  18
BRANCH  16  20
ATOM     20  O   UNL     1       5.914  -6.974  21.981  0.00  0.00    -0.503 OA
ATOM     21  H   UNL     1       6.748  -7.307  22.365  0.00  0.00    +0.292 HD
ENDBRANCH  16  20
ENDBRANCH  11  12
BRANCH   7  22
ATOM     22  O   UNL     1       9.169   2.347  21.407  0.00  0.00    -0.507 OA
ATOM     23  H   UNL     1       9.885   2.957  21.653  0.00  0.00    +0.292 HD
ENDBRANCH   7  22
BRANCH  10  24
ATOM     24  O   UNL     1      10.534   0.726  25.625  0.00  0.00    -0.506 OA
ATOM     25  H   UNL     1      11.219   0.038  25.623  0.00  0.00    +0.292 HD
ENDBRANCH  10  24
BRANCH   1  26
ATOM     26  O   UNL     1       7.664  -3.695  26.058  0.00  0.00    -0.453 OA
BRANCH  26  30
ATOM     27  C   UNL     1       4.191  -2.377  29.036  0.00  0.00    +0.041 C 
ATOM     28  C   UNL     1       4.642  -3.480  28.089  0.00  0.00    +0.150 C 
ATOM     29  O   UNL     1       5.968  -3.164  27.641  0.00  0.00    -0.334 OA
ATOM     30  C   UNL     1       6.383  -4.037  26.581  0.00  0.00    +0.339 C 
ATOM     31  C   UNL     1       6.519  -5.481  27.116  0.00  0.00    +0.214 C 
ATOM     32  C   UNL     1       5.182  -5.907  27.748  0.00  0.00    +0.180 C 
ATOM     33  C   UNL     1       4.687  -4.858  28.766  0.00  0.00    +0.174 C 
BRANCH  31  34
ATOM     34  O   UNL     1       6.928  -6.378  26.063  0.00  0.00    -0.383 OA
ATOM     35  H   UNL     1       6.189  -6.977  25.872  0.00  0.00    +0.210 HD
ENDBRANCH  31  34
BRANCH  32  36
ATOM     36  O   UNL     1       5.311  -7.206  28.332  0.00  0.00    -0.386 OA
ATOM     37  H   UNL     1       5.566  -7.832  27.630  0.00  0.00    +0.210 HD
ENDBRANCH  32  36
BRANCH  33  38
ATOM     38  O   UNL     1       5.567  -4.831  29.897  0.00  0.00    -0.387 OA
ATOM     39  H   UNL     1       5.010  -4.758  30.699  0.00  0.00    +0.210 HD
ENDBRANCH  33  38
ENDBRANCH  26  30
ENDBRANCH   1  26
TORSDOF 10
ENDMDL
MODEL 7
REMARK VINA RESULT:      -6.6      3.017      7.575
REMARK  Name = 
REMARK  11 active torsions:
REMARK  status: ('A' for Active; 'I' for Inactive)
REMARK    1  A    between atoms: C_1  and  C_2
REMARK    2  A    between atoms: C_4  and  O_37
REMARK    3  A    between atoms: C_6  and  O_36
REMARK    4  A    between atoms: C_8  and  O_35
REMARK    5  A    between atoms: C_10  and  O_13
REMARK    6  A    between atoms: O_13  and  C_14
REMARK    7  A    between atoms: C_15  and  C_27
REMARK    8  A    between atoms: C_19  and  O_26
REMARK    9  A    between atoms: C_21  and  O_25
REMARK   10  A    between atoms: C_29  and  O_34
REMARK   11  A    between atoms: C_30  and  O_33
REMARK                            x       y       z     vdW  Elec       q    Type
REMARK                         _______ _______ _______ _____ _____    ______ ____
ROOT
ATOM      1  C   UNL     1       6.155  -0.919  24.664  0.00  0.00    +0.214 A 
ATOM      2  C   UNL     1       5.146  -2.011  24.799  0.00  0.00    +0.238 A 
ATOM      3  O   UNL     1       4.303  -1.990  25.690  0.00  0.00    -0.283 OA
ATOM      4  C   UNL     1       5.281  -3.148  23.873  0.00  0.00    +0.109 A 
ATOM      5  C   UNL     1       6.455  -3.238  23.122  0.00  0.00    +0.147 A 
ATOM      6  C   UNL     1       6.670  -4.340  22.285  0.00  0.00    +0.092 A 
ATOM      7  C   UNL     1       5.706  -5.340  22.214  0.00  0.00    +0.124 A 
ATOM      8  C   UNL     1       4.527  -5.257  22.941  0.00  0.00    +0.091 A 
ATOM      9  O   UNL     1       7.457  -2.298  23.170  0.00  0.00    -0.451 OA
ATOM     10  C   UNL     1       4.309  -4.155  23.766  0.00  0.00    +0.135 A 
ATOM     11  C   UNL     1       7.261  -1.149  23.925  0.00  0.00    +0.181 A 
ENDROOT
BRANCH  11  12
ATOM     12  C   UNL     1       8.389  -0.168  23.852  0.00  0.00    +0.025 A 
ATOM     13  C   UNL     1       9.291  -0.021  24.925  0.00  0.00    +0.015 A 
ATOM     14  C   UNL     1      10.372   0.876  24.845  0.00  0.00    +0.050 A 
ATOM     15  C   UNL     1      10.561   1.621  23.692  0.00  0.00    +0.158 A 
ATOM     16  C   UNL     1       9.672   1.511  22.633  0.00  0.00    +0.159 A 
ATOM     17  C   UNL     1       8.583   0.650  22.719  0.00  0.00    +0.060 A 
BRANCH  15  18
ATOM     18  O   UNL     1      11.632   2.462  23.596  0.00  0.00    -0.503 OA
ATOM     19  H   UNL     1      12.322   2.042  24.150  0.00  0.00    +0.292 HD
ENDBRANCH  15  18
BRANCH  16  20
ATOM     20  O   UNL     1       9.913   2.258  21.512  0.00  0.00    -0.503 OA
ATOM     21  H   UNL     1      10.317   1.672  20.844  0.00  0.00    +0.292 HD
ENDBRANCH  16  20
ENDBRANCH  11  12
BRANCH   7  22
ATOM     22  O   UNL     1       5.875  -6.442  21.430  0.00  0.00    -0.507 OA
ATOM     23  H   UNL     1       6.586  -6.993  21.800  0.00  0.00    +0.292 HD
ENDBRANCH   7  22
BRANCH  10  24
ATOM     24  O   UNL     1       3.131  -4.075  24.453  0.00  0.00    -0.506 OA
ATOM     25  H   UNL     1       2.537  -3.437  24.025  0.00  0.00    +0.292 HD
ENDBRANCH  10  24
BRANCH   1  26
ATOM     26  O   UNL     1       6.008   0.274  25.338  0.00  0.00    -0.453 OA
BRANCH  26  30
ATOM     27  C   UNL     1       6.242   4.325  22.849  0.00  0.00    +0.041 C 
ATOM     28  C   UNL     1       5.286   3.371  23.553  0.00  0.00    +0.150 C 
ATOM     29  O   UNL     1       6.072   2.377  24.227  0.00  0.00    -0.334 OA
ATOM     30  C   UNL     1       5.248   1.319  24.736  0.00  0.00    +0.339 C 
ATOM     31  C   UNL     1       4.324   1.863  25.849  0.00  0.00    +0.214 C 
ATOM     32  C   UNL     1       3.503   3.036  25.287  0.00  0.00    +0.180 C 
ATOM     33  C   UNL     1       4.414   4.077  24.603  0.00  0.00    +0.174 C 
BRANCH  31  34
ATOM     34  O   UNL     1       3.480   0.814  26.369  0.00  0.00    -0.383 OA
ATOM     35  H   UNL     1       3.275   0.203  25.644  0.00  0.00    +0.210 HD
ENDBRANCH  31  34
BRANCH  32  36
ATOM     36  O   UNL     1       2.707   3.616  26.325  0.00  0.00    -0.386 OA
ATOM     37  H   UNL     1       2.009   2.980  26.565  0.00  0.00    +0.210 HD
ENDBRANCH  32  36
BRANCH  33  38
ATOM     38  O   UNL     1       5.236   4.720  25.585  0.00  0.00    -0.387 OA
ATOM     39  H   UNL     1       4.909   4.444  26.466  0.00  0.00    +0.210 HD
ENDBRANCH  33  38
ENDBRANCH  26  30
ENDBRANCH   1  26
TORSDOF 10
ENDMDL
MODEL 8
REMARK VINA RESULT:      -6.5      1.419      1.700
REMARK  Name = 
REMARK  11 active torsions:
REMARK  status: ('A' for Active; 'I' for Inactive)
REMARK    1  A    between atoms: C_1  and  C_2
REMARK    2  A    between atoms: C_4  and  O_37
REMARK    3  A    between atoms: C_6  and  O_36
REMARK    4  A    between atoms: C_8  and  O_35
REMARK    5  A    between atoms: C_10  and  O_13
REMARK    6  A    between atoms: O_13  and  C_14
REMARK    7  A    between atoms: C_15  and  C_27
REMARK    8  A    between atoms: C_19  and  O_26
REMARK    9  A    between atoms: C_21  and  O_25
REMARK   10  A    between atoms: C_29  and  O_34
REMARK   11  A    between atoms: C_30  and  O_33
REMARK                            x       y       z     vdW  Elec       q    Type
REMARK                         _______ _______ _______ _____ _____    ______ ____
ROOT
ATOM      1  C   UNL     1       7.452  -2.283  25.672  0.00  0.00    +0.214 A 
ATOM      2  C   UNL     1       8.657  -2.297  24.792  0.00  0.00    +0.238 A 
ATOM      3  O   UNL     1       9.555  -3.116  24.958  0.00  0.00    -0.283 OA
ATOM      4  C   UNL     1       8.750  -1.224  23.787  0.00  0.00    +0.109 A 
ATOM      5  C   UNL     1       7.854  -0.159  23.891  0.00  0.00    +0.147 A 
ATOM      6  C   UNL     1       7.948   0.927  23.011  0.00  0.00    +0.092 A 
ATOM      7  C   UNL     1       8.943   0.932  22.039  0.00  0.00    +0.124 A 
ATOM      8  C   UNL     1       9.831  -0.129  21.913  0.00  0.00    +0.091 A 
ATOM      9  O   UNL     1       6.867  -0.090  24.847  0.00  0.00    -0.451 OA
ATOM     10  C   UNL     1       9.729  -1.212  22.783  0.00  0.00    +0.135 A 
ATOM     11  C   UNL     1       6.682  -1.175  25.694  0.00  0.00    +0.181 A 
ENDROOT
BRANCH  11  12
ATOM     12  C   UNL     1       5.540  -1.017  26.650  0.00  0.00    +0.025 A 
ATOM     13  C   UNL     1       5.684  -0.265  27.833  0.00  0.00    +0.015 A 
ATOM     14  C   UNL     1       4.603  -0.086  28.715  0.00  0.00    +0.050 A 
ATOM     15  C   UNL     1       3.374  -0.650  28.416  0.00  0.00    +0.158 A 
ATOM     16  C   UNL     1       3.214  -1.414  27.269  0.00  0.00    +0.159 A 
ATOM     17  C   UNL     1       4.288  -1.621  26.410  0.00  0.00    +0.060 A 
BRANCH  15  18
ATOM     18  O   UNL     1       2.312  -0.445  29.249  0.00  0.00    -0.503 OA
ATOM     19  H   UNL     1       1.929   0.405  28.950  0.00  0.00    +0.292 HD
ENDBRANCH  15  18
BRANCH  16  20
ATOM     20  O   UNL     1       1.975  -1.935  27.012  0.00  0.00    -0.503 OA
ATOM     21  H   UNL     1       1.464  -1.915  27.843  0.00  0.00    +0.292 HD
ENDBRANCH  16  20
ENDBRANCH  11  12
BRANCH   7  22
ATOM     22  O   UNL     1       9.091   1.972  21.171  0.00  0.00    -0.507 OA
ATOM     23  H   UNL     1       8.830   2.797  21.613  0.00  0.00    +0.292 HD
ENDBRANCH   7  22
BRANCH  10  24
ATOM     24  O   UNL     1      10.593  -2.259  22.626  0.00  0.00    -0.506 OA
ATOM     25  H   UNL     1      11.415  -1.956  22.210  0.00  0.00    +0.292 HD
ENDBRANCH  10  24
BRANCH   1  26
ATOM     26  O   UNL     1       7.165  -3.342  26.505  0.00  0.00    -0.453 OA
BRANCH  26  30
ATOM     27  C   UNL     1       4.626  -5.235  22.951  0.00  0.00    +0.041 C 
ATOM     28  C   UNL     1       5.374  -5.565  24.235  0.00  0.00    +0.150 C 
ATOM     29  O   UNL     1       5.782  -4.329  24.838  0.00  0.00    -0.334 OA
ATOM     30  C   UNL     1       6.676  -4.555  25.938  0.00  0.00    +0.339 C 
ATOM     31  C   UNL     1       5.929  -5.282  27.079  0.00  0.00    +0.214 C 
ATOM     32  C   UNL     1       5.323  -6.585  26.528  0.00  0.00    +0.180 C 
ATOM     33  C   UNL     1       4.501  -6.321  25.249  0.00  0.00    +0.174 C 
BRANCH  31  34
ATOM     34  O   UNL     1       6.813  -5.527  28.192  0.00  0.00    -0.383 OA
ATOM     35  H   UNL     1       6.561  -6.371  28.599  0.00  0.00    +0.210 HD
ENDBRANCH  31  34
BRANCH  32  36
ATOM     36  O   UNL     1       4.549  -7.230  27.543  0.00  0.00    -0.386 OA
ATOM     37  H   UNL     1       5.142  -7.806  28.059  0.00  0.00    +0.210 HD
ENDBRANCH  32  36
BRANCH  33  38
ATOM     38  O   UNL     1       3.335  -5.553  25.575  0.00  0.00    -0.387 OA
ATOM     39  H   UNL     1       3.623  -4.630  25.719  0.00  0.00    +0.210 HD
ENDBRANCH  33  38
ENDBRANCH  26  30
ENDBRANCH   1  26
TORSDOF 10
ENDMDL
MODEL 9
REMARK VINA RESULT:      -6.5      2.009      4.358
REMARK  Name = 
REMARK  11 active torsions:
REMARK  status: ('A' for Active; 'I' for Inactive)
REMARK    1  A    between atoms: C_1  and  C_2
REMARK    2  A    between atoms: C_4  and  O_37
REMARK    3  A    between atoms: C_6  and  O_36
REMARK    4  A    between atoms: C_8  and  O_35
REMARK    5  A    between atoms: C_10  and  O_13
REMARK    6  A    between atoms: O_13  and  C_14
REMARK    7  A    between atoms: C_15  and  C_27
REMARK    8  A    between atoms: C_19  and  O_26
REMARK    9  A    between atoms: C_21  and  O_25
REMARK   10  A    between atoms: C_29  and  O_34
REMARK   11  A    between atoms: C_30  and  O_33
REMARK                            x       y       z     vdW  Elec       q    Type
REMARK                         _______ _______ _______ _____ _____    ______ ____
ROOT
ATOM      1  C   UNL     1       6.559  -1.046  24.858  0.00  0.00    +0.214 A 
ATOM      2  C   UNL     1       7.019   0.336  25.186  0.00  0.00    +0.238 A 
ATOM      3  O   UNL     1       6.512   0.972  26.104  0.00  0.00    -0.283 OA
ATOM      4  C   UNL     1       8.037   0.919  24.295  0.00  0.00    +0.109 A 
ATOM      5  C   UNL     1       8.309   0.254  23.098  0.00  0.00    +0.147 A 
ATOM      6  C   UNL     1       9.209   0.805  22.178  0.00  0.00    +0.092 A 
ATOM      7  C   UNL     1       9.822   2.020  22.468  0.00  0.00    +0.124 A 
ATOM      8  C   UNL     1       9.574   2.684  23.661  0.00  0.00    +0.091 A 
ATOM      9  O   UNL     1       7.715  -0.933  22.740  0.00  0.00    -0.451 OA
ATOM     10  C   UNL     1       8.687   2.130  24.581  0.00  0.00    +0.135 A 
ATOM     11  C   UNL     1       6.874  -1.560  23.650  0.00  0.00    +0.181 A 
ENDROOT
BRANCH  11  12
ATOM     12  C   UNL     1       6.335  -2.876  23.181  0.00  0.00    +0.025 A 
ATOM     13  C   UNL     1       4.992  -3.234  23.414  0.00  0.00    +0.015 A 
ATOM     14  C   UNL     1       4.475  -4.454  22.943  0.00  0.00    +0.050 A 
ATOM     15  C   UNL     1       5.293  -5.317  22.232  0.00  0.00    +0.158 A 
ATOM     16  C   UNL     1       6.624  -4.997  22.010  0.00  0.00    +0.159 A 
ATOM     17  C   UNL     1       7.150  -3.806  22.502  0.00  0.00    +0.060 A 
BRANCH  15  18
ATOM     18  O   UNL     1       4.784  -6.484  21.738  0.00  0.00    -0.503 OA
ATOM     19  H   UNL     1       5.483  -7.147  21.911  0.00  0.00    +0.292 HD
ENDBRANCH  15  18
BRANCH  16  20
ATOM     20  O   UNL     1       7.385  -5.876  21.288  0.00  0.00    -0.503 OA
ATOM     21  H   UNL     1       7.271  -5.663  20.343  0.00  0.00    +0.292 HD
ENDBRANCH  16  20
ENDBRANCH  11  12
BRANCH   7  22
ATOM     22  O   UNL     1      10.691   2.608  21.598  0.00  0.00    -0.507 OA
ATOM     23  H   UNL     1      10.192   2.983  20.852  0.00  0.00    +0.292 HD
ENDBRANCH   7  22
BRANCH  10  24
ATOM     24  O   UNL     1       8.476   2.783  25.762  0.00  0.00    -0.506 OA
ATOM     25  H   UNL     1       9.321   2.946  26.209  0.00  0.00    +0.292 HD
ENDBRANCH  10  24
BRANCH   1  26
ATOM     26  O   UNL     1       5.766  -1.758  25.730  0.00  0.00    -0.453 OA
BRANCH  26  30
ATOM     27  C   UNL     1       9.163  -5.060  26.196  0.00  0.00    +0.041 C 
ATOM     28  C   UNL     1       8.006  -4.381  26.915  0.00  0.00    +0.150 C 
ATOM     29  O   UNL     1       7.346  -3.521  25.975  0.00  0.00    -0.334 OA
ATOM     30  C   UNL     1       6.379  -2.683  26.625  0.00  0.00    +0.339 C 
ATOM     31  C   UNL     1       5.230  -3.549  27.188  0.00  0.00    +0.214 C 
ATOM     32  C   UNL     1       5.821  -4.613  28.129  0.00  0.00    +0.180 C 
ATOM     33  C   UNL     1       6.970  -5.384  27.447  0.00  0.00    +0.174 C 
BRANCH  31  34
ATOM     34  O   UNL     1       4.249  -2.725  27.853  0.00  0.00    -0.383 OA
ATOM     35  H   UNL     1       3.596  -2.441  27.195  0.00  0.00    +0.210 HD
ENDBRANCH  31  34
BRANCH  32  36
ATOM     36  O   UNL     1       4.786  -5.485  28.591  0.00  0.00    -0.386 OA
ATOM     37  H   UNL     1       3.952  -4.982  28.616  0.00  0.00    +0.210 HD
ENDBRANCH  32  36
BRANCH  33  38
ATOM     38  O   UNL     1       6.448  -6.179  26.375  0.00  0.00    -0.387 OA
ATOM     39  H   UNL     1       6.955  -5.953  25.569  0.00  0.00    +0.210 HD
ENDBRANCH  33  38
ENDBRANCH  26  30
ENDBRANCH   1  26
TORSDOF 10
ENDMDL
