MODEL 1
REMARK VINA RESULT:      -7.8      0.000      0.000
REMARK  Name = 
REMARK  23 active torsions:
REMARK  status: ('A' for Active; 'I' for Inactive)
REMARK    1  A    between atoms: C_3  and  O_62
REMARK    2  A    between atoms: C_4  and  O_61
REMARK    3  A    between atoms: C_6  and  C_7
REMARK    4  A    between atoms: C_8  and  C_9
REMARK    5  A    between atoms: C_9  and  O_11
REMARK    6  A    between atoms: O_11  and  C_12
REMARK    7  A    between atoms: C_12  and  C_13
REMARK    8  A    between atoms: C_14  and  O_60
REMARK    9  A    between atoms: C_16  and  O_59
REMARK   10  A    between atoms: C_18  and  O_58
REMARK   11  A    between atoms: C_19  and  O_22
REMARK   12  A    between atoms: O_22  and  C_23
REMARK   13  A    between atoms: C_23  and  C_24
REMARK   14  A    between atoms: C_25  and  O_57
REMARK   15  A    between atoms: C_27  and  O_56
REMARK   16  A    between atoms: C_29  and  O_55
REMARK   17  A    between atoms: C_30  and  O_33
REMARK   18  A    between atoms: O_33  and  C_34
REMARK   19  A    between atoms: C_35  and  C_47
REMARK   20  A    between atoms: C_39  and  O_46
REMARK   21  A    between atoms: C_41  and  O_45
REMARK   22  A    between atoms: C_49  and  O_54
REMARK   23  A    between atoms: C_50  and  O_53
REMARK                            x       y       z     vdW  Elec       q    Type
REMARK                         _______ _______ _______ _____ _____    ______ ____
ROOT
ATOM      1  C   UNL     1       8.732  -1.517  25.297  0.00  0.00    +0.179 C 
ATOM      2  O   UNL     1       8.874  -0.104  25.534  0.00  0.00    -0.331 OA
ATOM      3  C   UNL     1       8.726   0.735  24.358  0.00  0.00    +0.340 C 
ATOM      4  C   UNL     1       9.779   0.314  23.303  0.00  0.00    +0.214 C 
ATOM      5  C   UNL     1       9.637  -1.174  22.964  0.00  0.00    +0.180 C 
ATOM      6  C   UNL     1       9.738  -2.005  24.246  0.00  0.00    +0.177 C 
ENDROOT
BRANCH   6   7
ATOM      7  O   UNL     1       9.582  -3.394  23.943  0.00  0.00    -0.386 OA
ATOM      8  H   UNL     1       8.634  -3.554  23.792  0.00  0.00    +0.210 HD
ENDBRANCH   6   7
BRANCH   5   9
ATOM      9  O   UNL     1      10.659  -1.600  22.047  0.00  0.00    -0.386 OA
ATOM     10  H   UNL     1      11.338  -2.021  22.608  0.00  0.00    +0.210 HD
ENDBRANCH   5   9
BRANCH   4  11
ATOM     11  O   UNL     1      11.104   0.569  23.832  0.00  0.00    -0.383 OA
ATOM     12  H   UNL     1      11.034   1.359  24.403  0.00  0.00    +0.210 HD
ENDBRANCH   4  11
BRANCH   3  13
ATOM     13  O   UNL     1       8.972   2.088  24.795  0.00  0.00    -0.453 OA
BRANCH  13  14
ATOM     14  C   UNL     1       8.091   3.100  24.438  0.00  0.00    +0.214 A 
ATOM     15  C   UNL     1       6.605   2.891  24.444  0.00  0.00    +0.238 A 
ATOM     16  O   UNL     1       6.097   1.918  24.991  0.00  0.00    -0.283 OA
ATOM     17  C   UNL     1       5.779   3.908  23.761  0.00  0.00    +0.109 A 
ATOM     18  C   UNL     1       6.374   5.138  23.499  0.00  0.00    +0.147 A 
ATOM     19  C   UNL     1       5.630   6.190  22.957  0.00  0.00    +0.092 A 
ATOM     20  C   UNL     1       4.291   5.983  22.641  0.00  0.00    +0.124 A 
ATOM     21  C   UNL     1       3.698   4.742  22.835  0.00  0.00    +0.091 A 
ATOM     22  O   UNL     1       7.699   5.384  23.735  0.00  0.00    -0.451 OA
ATOM     23  C   UNL     1       4.444   3.701  23.393  0.00  0.00    +0.135 A 
ATOM     24  C   UNL     1       8.537   4.317  24.049  0.00  0.00    +0.181 A 
BRANCH  24  25
ATOM     25  C   UNL     1       9.974   4.644  23.808  0.00  0.00    +0.025 A 
ATOM     26  C   UNL     1      10.714   3.800  22.950  0.00  0.00    +0.015 A 
ATOM     27  C   UNL     1      12.094   3.949  22.786  0.00  0.00    +0.050 A 
ATOM     28  C   UNL     1      12.745   4.957  23.471  0.00  0.00    +0.158 A 
ATOM     29  C   UNL     1      12.026   5.858  24.250  0.00  0.00    +0.159 A 
ATOM     30  C   UNL     1      10.648   5.714  24.423  0.00  0.00    +0.060 A 
BRANCH  29  31
ATOM     31  O   UNL     1      12.726   6.876  24.838  0.00  0.00    -0.503 OA
ATOM     32  H   UNL     1      12.767   7.611  24.202  0.00  0.00    +0.292 HD
ENDBRANCH  29  31
BRANCH  28  33
ATOM     33  O   UNL     1      14.103   5.051  23.387  0.00  0.00    -0.503 OA
ATOM     34  H   UNL     1      14.271   5.991  23.179  0.00  0.00    +0.292 HD
ENDBRANCH  28  33
ENDBRANCH  24  25
BRANCH  23  35
ATOM     35  O   UNL     1       3.855   2.477  23.541  0.00  0.00    -0.506 OA
ATOM     36  H   UNL     1       3.851   2.221  24.477  0.00  0.00    +0.292 HD
ENDBRANCH  23  35
BRANCH  20  37
ATOM     37  O   UNL     1       3.519   6.978  22.121  0.00  0.00    -0.507 OA
ATOM     38  H   UNL     1       3.499   6.895  21.153  0.00  0.00    +0.292 HD
ENDBRANCH  20  37
ENDBRANCH  13  14
ENDBRANCH   3  13
BRANCH   1  39
ATOM     39  C   UNL     1       7.274  -1.954  25.044  0.00  0.00    +0.197 C 
BRANCH  39  40
ATOM     40  O   UNL     1       7.097  -2.426  23.714  0.00  0.00    -0.346 OA
BRANCH  40  43
ATOM     41  C   UNL     1       4.992  -5.129  24.883  0.00  0.00    +0.190 C 
ATOM     42  O   UNL     1       5.943  -4.056  24.825  0.00  0.00    -0.339 OA
ATOM     43  C   UNL     1       6.060  -3.395  23.556  0.00  0.00    +0.282 C 
ATOM     44  C   UNL     1       6.437  -4.421  22.466  0.00  0.00    +0.201 C 
ATOM     45  C   UNL     1       5.385  -5.527  22.427  0.00  0.00    +0.179 C 
ATOM     46  C   UNL     1       5.281  -6.190  23.803  0.00  0.00    +0.178 C 
BRANCH  46  47
ATOM     47  O   UNL     1       4.275  -7.206  23.754  0.00  0.00    -0.386 OA
ATOM     48  H   UNL     1       3.431  -6.783  24.000  0.00  0.00    +0.210 HD
ENDBRANCH  46  47
BRANCH  45  49
ATOM     49  O   UNL     1       5.704  -6.493  21.424  0.00  0.00    -0.386 OA
ATOM     50  H   UNL     1       6.356  -6.078  20.836  0.00  0.00    +0.210 HD
ENDBRANCH  45  49
BRANCH  44  51
ATOM     51  O   UNL     1       7.740  -4.976  22.749  0.00  0.00    -0.384 OA
ATOM     52  H   UNL     1       7.633  -5.947  22.833  0.00  0.00    +0.210 HD
ENDBRANCH  44  51
BRANCH  41  53
ATOM     53  C   UNL     1       3.540  -4.610  24.873  0.00  0.00    +0.266 C 
BRANCH  53  54
ATOM     54  O   UNL     1       3.253  -3.953  26.126  0.00  0.00    -0.459 OA
BRANCH  54  55
ATOM     55  C   UNL     1       2.412  -2.889  26.076  0.00  0.00    +0.332 C 
ATOM     56  O   UNL     1       1.386  -2.804  25.423  0.00  0.00    -0.246 OA
BRANCH  55  58
ATOM     57  C   UNL     1       4.260  -1.714  27.177  0.00  0.00    +0.015 C 
ATOM     58  C   UNL     1       2.936  -1.847  26.987  0.00  0.00    +0.092 C 
BRANCH  57  60
ATOM     59  C   UNL     1       4.439  -0.366  29.312  0.00  0.00    +0.012 A 
ATOM     60  C   UNL     1       4.884  -0.673  28.011  0.00  0.00    -0.021 A 
ATOM     61  C   UNL     1       5.988   0.024  27.499  0.00  0.00    +0.057 A 
ATOM     62  C   UNL     1       6.591   1.021  28.255  0.00  0.00    +0.159 A 
ATOM     63  C   UNL     1       6.127   1.334  29.529  0.00  0.00    +0.158 A 
ATOM     64  C   UNL     1       5.057   0.637  30.068  0.00  0.00    +0.050 A 
BRANCH  63  65
ATOM     65  O   UNL     1       6.760   2.336  30.210  0.00  0.00    -0.503 OA
ATOM     66  H   UNL     1       7.387   2.767  29.602  0.00  0.00    +0.292 HD
ENDBRANCH  63  65
BRANCH  62  67
ATOM     67  O   UNL     1       7.653   1.705  27.733  0.00  0.00    -0.503 OA
ATOM     68  H   UNL     1       7.757   2.483  28.319  0.00  0.00    +0.292 HD
ENDBRANCH  62  67
ENDBRANCH  57  60
ENDBRANCH  55  58
ENDBRANCH  54  55
ENDBRANCH  53  54
ENDBRANCH  41  53
ENDBRANCH  40  43
ENDBRANCH  39  40
ENDBRANCH   1  39
TORSDOF 23
ENDMDL
MODEL 2
REMARK VINA RESULT:      -7.7      2.894      7.253
REMARK  Name = 
REMARK  23 active torsions:
REMARK  status: ('A' for Active; 'I' for Inactive)
REMARK    1  A    between atoms: C_3  and  O_62
REMARK    2  A    between atoms: C_4  and  O_61
REMARK    3  A    between atoms: C_6  and  C_7
REMARK    4  A    between atoms: C_8  and  C_9
REMARK    5  A    between atoms: C_9  and  O_11
REMARK    6  A    between atoms: O_11  and  C_12
REMARK    7  A    between atoms: C_12  and  C_13
REMARK    8  A    between atoms: C_14  and  O_60
REMARK    9  A    between atoms: C_16  and  O_59
REMARK   10  A    between atoms: C_18  and  O_58
REMARK   11  A    between atoms: C_19  and  O_22
REMARK   12  A    between atoms: O_22  and  C_23
REMARK   13  A    between atoms: C_23  and  C_24
REMARK   14  A    between atoms: C_25  and  O_57
REMARK   15  A    between atoms: C_27  and  O_56
REMARK   16  A    between atoms: C_29  and  O_55
REMARK   17  A    between atoms: C_30  and  O_33
REMARK   18  A    between atoms: O_33  and  C_34
REMARK   19  A    between atoms: C_35  and  C_47
REMARK   20  A    between atoms: C_39  and  O_46
REMARK   21  A    between atoms: C_41  and  O_45
REMARK   22  A    between atoms: C_49  and  O_54
REMARK   23  A    between atoms: C_50  and  O_53
REMARK                            x       y       z     vdW  Elec       q    Type
REMARK                         _______ _______ _______ _____ _____    ______ ____
ROOT
ATOM      1  C   UNL     1       2.679  -1.419  28.702  0.00  0.00    +0.179 C 
ATOM      2  O   UNL     1       3.204  -1.537  27.366  0.00  0.00    -0.331 OA
ATOM      3  C   UNL     1       4.352  -0.697  27.079  0.00  0.00    +0.340 C 
ATOM      4  C   UNL     1       3.965   0.784  27.316  0.00  0.00    +0.214 C 
ATOM      5  C   UNL     1       3.454   0.984  28.747  0.00  0.00    +0.180 C 
ATOM      6  C   UNL     1       2.287   0.031  29.014  0.00  0.00    +0.177 C 
ENDROOT
BRANCH   6   7
ATOM      7  O   UNL     1       1.819   0.194  30.357  0.00  0.00    -0.386 OA
ATOM      8  H   UNL     1       1.854  -0.679  30.784  0.00  0.00    +0.210 HD
ENDBRANCH   6   7
BRANCH   5   9
ATOM      9  O   UNL     1       3.014   2.336  28.959  0.00  0.00    -0.386 OA
ATOM     10  H   UNL     1       3.539   2.871  28.333  0.00  0.00    +0.210 HD
ENDBRANCH   5   9
BRANCH   4  11
ATOM     11  O   UNL     1       2.930   1.156  26.372  0.00  0.00    -0.383 OA
ATOM     12  H   UNL     1       2.544   0.326  26.033  0.00  0.00    +0.210 HD
ENDBRANCH   4  11
BRANCH   3  13
ATOM     13  O   UNL     1       4.671  -0.912  25.688  0.00  0.00    -0.453 OA
BRANCH  13  14
ATOM     14  C   UNL     1       5.814  -0.342  25.145  0.00  0.00    +0.214 A 
ATOM     15  C   UNL     1       5.772   0.971  24.418  0.00  0.00    +0.238 A 
ATOM     16  O   UNL     1       4.794   1.708  24.483  0.00  0.00    -0.283 OA
ATOM     17  C   UNL     1       6.960   1.336  23.619  0.00  0.00    +0.109 A 
ATOM     18  C   UNL     1       8.141   0.652  23.887  0.00  0.00    +0.147 A 
ATOM     19  C   UNL     1       9.334   1.012  23.255  0.00  0.00    +0.092 A 
ATOM     20  C   UNL     1       9.323   2.041  22.318  0.00  0.00    +0.124 A 
ATOM     21  C   UNL     1       8.140   2.692  21.990  0.00  0.00    +0.091 A 
ATOM     22  O   UNL     1       8.204  -0.403  24.755  0.00  0.00    -0.451 OA
ATOM     23  C   UNL     1       6.955   2.336  22.638  0.00  0.00    +0.135 A 
ATOM     24  C   UNL     1       7.017  -0.956  25.231  0.00  0.00    +0.181 A 
BRANCH  24  25
ATOM     25  C   UNL     1       7.213  -2.341  25.752  0.00  0.00    +0.025 A 
ATOM     26  C   UNL     1       6.067  -3.094  26.090  0.00  0.00    +0.015 A 
ATOM     27  C   UNL     1       6.166  -4.339  26.719  0.00  0.00    +0.050 A 
ATOM     28  C   UNL     1       7.419  -4.848  27.002  0.00  0.00    +0.158 A 
ATOM     29  C   UNL     1       8.564  -4.169  26.597  0.00  0.00    +0.159 A 
ATOM     30  C   UNL     1       8.474  -2.924  25.973  0.00  0.00    +0.060 A 
BRANCH  29  31
ATOM     31  O   UNL     1       9.769  -4.770  26.844  0.00  0.00    -0.503 OA
ATOM     32  H   UNL     1       9.618  -5.731  26.875  0.00  0.00    +0.292 HD
ENDBRANCH  29  31
BRANCH  28  33
ATOM     33  O   UNL     1       7.522  -6.018  27.696  0.00  0.00    -0.503 OA
ATOM     34  H   UNL     1       7.898  -5.759  28.561  0.00  0.00    +0.292 HD
ENDBRANCH  28  33
ENDBRANCH  24  25
BRANCH  23  35
ATOM     35  O   UNL     1       5.795   2.960  22.276  0.00  0.00    -0.506 OA
ATOM     36  H   UNL     1       5.560   3.634  22.934  0.00  0.00    +0.292 HD
ENDBRANCH  23  35
BRANCH  20  37
ATOM     37  O   UNL     1      10.461   2.438  21.681  0.00  0.00    -0.507 OA
ATOM     38  H   UNL     1      11.172   2.545  22.333  0.00  0.00    +0.292 HD
ENDBRANCH  20  37
ENDBRANCH  13  14
ENDBRANCH   3  13
BRANCH   1  39
ATOM     39  C   UNL     1       3.566  -2.090  29.772  0.00  0.00    +0.197 C 
BRANCH  39  40
ATOM     40  O   UNL     1       3.131  -3.416  30.049  0.00  0.00    -0.346 OA
BRANCH  40  43
ATOM     41  C   UNL     1       1.675  -5.768  27.715  0.00  0.00    +0.190 C 
ATOM     42  O   UNL     1       1.848  -4.793  28.752  0.00  0.00    -0.339 OA
ATOM     43  C   UNL     1       3.187  -4.309  28.936  0.00  0.00    +0.282 C 
ATOM     44  C   UNL     1       4.132  -5.492  29.236  0.00  0.00    +0.201 C 
ATOM     45  C   UNL     1       4.054  -6.504  28.096  0.00  0.00    +0.179 C 
ATOM     46  C   UNL     1       2.608  -6.978  27.924  0.00  0.00    +0.178 C 
BRANCH  46  47
ATOM     47  O   UNL     1       2.549  -7.906  26.836  0.00  0.00    -0.386 OA
ATOM     48  H   UNL     1       3.256  -8.562  26.985  0.00  0.00    +0.210 HD
ENDBRANCH  46  47
BRANCH  45  49
ATOM     49  O   UNL     1       4.921  -7.611  28.342  0.00  0.00    -0.386 OA
ATOM     50  H   UNL     1       5.645  -7.279  28.899  0.00  0.00    +0.210 HD
ENDBRANCH  45  49
BRANCH  44  51
ATOM     51  O   UNL     1       3.758  -6.112  30.485  0.00  0.00    -0.384 OA
ATOM     52  H   UNL     1       4.048  -5.515  31.206  0.00  0.00    +0.210 HD
ENDBRANCH  44  51
BRANCH  41  53
ATOM     53  C   UNL     1       1.778  -5.138  26.311  0.00  0.00    +0.266 C 
BRANCH  53  54
ATOM     54  O   UNL     1       0.919  -5.851  25.397  0.00  0.00    -0.459 OA
BRANCH  54  55
ATOM     55  C   UNL     1       1.437  -6.139  24.176  0.00  0.00    +0.332 C 
ATOM     56  O   UNL     1       0.965  -6.899  23.347  0.00  0.00    -0.246 OA
BRANCH  55  58
ATOM     57  C   UNL     1       3.739  -5.865  23.381  0.00  0.00    +0.015 C 
ATOM     58  C   UNL     1       2.669  -5.339  24.001  0.00  0.00    +0.092 C 
BRANCH  57  60
ATOM     59  C   UNL     1       6.260  -5.729  23.198  0.00  0.00    +0.012 A 
ATOM     60  C   UNL     1       4.987  -5.134  23.102  0.00  0.00    -0.021 A 
ATOM     61  C   UNL     1       4.902  -3.795  22.695  0.00  0.00    +0.057 A 
ATOM     62  C   UNL     1       6.060  -3.072  22.436  0.00  0.00    +0.159 A 
ATOM     63  C   UNL     1       7.314  -3.663  22.559  0.00  0.00    +0.158 A 
ATOM     64  C   UNL     1       7.421  -4.994  22.931  0.00  0.00    +0.050 A 
BRANCH  63  65
ATOM     65  O   UNL     1       8.411  -2.889  22.303  0.00  0.00    -0.503 OA
ATOM     66  H   UNL     1       8.399  -2.133  22.918  0.00  0.00    +0.292 HD
ENDBRANCH  63  65
BRANCH  62  67
ATOM     67  O   UNL     1       5.961  -1.763  22.061  0.00  0.00    -0.503 OA
ATOM     68  H   UNL     1       6.086  -1.258  22.890  0.00  0.00    +0.292 HD
ENDBRANCH  62  67
ENDBRANCH  57  60
ENDBRANCH  55  58
ENDBRANCH  54  55
ENDBRANCH  53  54
ENDBRANCH  41  53
ENDBRANCH  40  43
ENDBRANCH  39  40
ENDBRANCH   1  39
TORSDOF 23
ENDMDL
MODEL 3
REMARK VINA RESULT:      -7.7      1.602      1.987
REMARK  Name = 
REMARK  23 active torsions:
REMARK  status: ('A' for Active; 'I' for Inactive)
REMARK    1  A    between atoms: C_3  and  O_62
REMARK    2  A    between atoms: C_4  and  O_61
REMARK    3  A    between atoms: C_6  and  C_7
REMARK    4  A    between atoms: C_8  and  C_9
REMARK    5  A    between atoms: C_9  and  O_11
REMARK    6  A    between atoms: O_11  and  C_12
REMARK    7  A    between atoms: C_12  and  C_13
REMARK    8  A    between atoms: C_14  and  O_60
REMARK    9  A    between atoms: C_16  and  O_59
REMARK   10  A    between atoms: C_18  and  O_58
REMARK   11  A    between atoms: C_19  and  O_22
REMARK   12  A    between atoms: O_22  and  C_23
REMARK   13  A    between atoms: C_23  and  C_24
REMARK   14  A    between atoms: C_25  and  O_57
REMARK   15  A    between atoms: C_27  and  O_56
REMARK   16  A    between atoms: C_29  and  O_55
REMARK   17  A    between atoms: C_30  and  O_33
REMARK   18  A    between atoms: O_33  and  C_34
REMARK   19  A    between atoms: C_35  and  C_47
REMARK   20  A    between atoms: C_39  and  O_46
REMARK   21  A    between atoms: C_41  and  O_45
REMARK   22  A    between atoms: C_49  and  O_54
REMARK   23  A    between atoms: C_50  and  O_53
REMARK                            x       y       z     vdW  Elec       q    Type
REMARK                         _______ _______ _______ _____ _____    ______ ____
ROOT
ATOM      1  C   UNL     1       9.358  -1.276  25.401  0.00  0.00    +0.179 C 
ATOM      2  O   UNL     1       9.399   0.145  25.633  0.00  0.00    -0.331 OA
ATOM      3  C   UNL     1       8.795   0.956  24.593  0.00  0.00    +0.340 C 
ATOM      4  C   UNL     1       9.510   0.666  23.248  0.00  0.00    +0.214 C 
ATOM      5  C   UNL     1       9.444  -0.828  22.917  0.00  0.00    +0.180 C 
ATOM      6  C   UNL     1      10.037  -1.638  24.073  0.00  0.00    +0.177 C 
ENDROOT
BRANCH   6   7
ATOM      7  O   UNL     1       9.959  -3.037  23.782  0.00  0.00    -0.386 OA
ATOM      8  H   UNL     1       9.033  -3.235  23.558  0.00  0.00    +0.210 HD
ENDBRANCH   6   7
BRANCH   5   9
ATOM      9  O   UNL     1      10.173  -1.127  21.714  0.00  0.00    -0.386 OA
ATOM     10  H   UNL     1      11.093  -1.268  22.007  0.00  0.00    +0.210 HD
ENDBRANCH   5   9
BRANCH   4  11
ATOM     11  O   UNL     1      10.893   1.084  23.351  0.00  0.00    -0.383 OA
ATOM     12  H   UNL     1      11.312   0.515  24.026  0.00  0.00    +0.210 HD
ENDBRANCH   4  11
BRANCH   3  13
ATOM     13  O   UNL     1       9.004   2.330  24.981  0.00  0.00    -0.453 OA
BRANCH  13  14
ATOM     14  C   UNL     1       8.108   3.308  24.570  0.00  0.00    +0.214 A 
ATOM     15  C   UNL     1       6.625   3.078  24.591  0.00  0.00    +0.238 A 
ATOM     16  O   UNL     1       6.132   2.129  25.191  0.00  0.00    -0.283 OA
ATOM     17  C   UNL     1       5.783   4.044  23.854  0.00  0.00    +0.109 A 
ATOM     18  C   UNL     1       6.360   5.266  23.523  0.00  0.00    +0.147 A 
ATOM     19  C   UNL     1       5.600   6.275  22.926  0.00  0.00    +0.092 A 
ATOM     20  C   UNL     1       4.264   6.032  22.624  0.00  0.00    +0.124 A 
ATOM     21  C   UNL     1       3.689   4.794  22.887  0.00  0.00    +0.091 A 
ATOM     22  O   UNL     1       7.681   5.544  23.744  0.00  0.00    -0.451 OA
ATOM     23  C   UNL     1       4.452   3.796  23.500  0.00  0.00    +0.135 A 
ATOM     24  C   UNL     1       8.535   4.508  24.114  0.00  0.00    +0.181 A 
BRANCH  24  25
ATOM     25  C   UNL     1       9.967   4.842  23.853  0.00  0.00    +0.025 A 
ATOM     26  C   UNL     1      10.658   4.093  22.875  0.00  0.00    +0.015 A 
ATOM     27  C   UNL     1      12.033   4.243  22.673  0.00  0.00    +0.050 A 
ATOM     28  C   UNL     1      12.727   5.157  23.441  0.00  0.00    +0.158 A 
ATOM     29  C   UNL     1      12.055   5.973  24.345  0.00  0.00    +0.159 A 
ATOM     30  C   UNL     1      10.683   5.827  24.557  0.00  0.00    +0.060 A 
BRANCH  29  31
ATOM     31  O   UNL     1      12.795   6.908  25.016  0.00  0.00    -0.503 OA
ATOM     32  H   UNL     1      13.100   7.564  24.365  0.00  0.00    +0.292 HD
ENDBRANCH  29  31
BRANCH  28  33
ATOM     33  O   UNL     1      14.083   5.243  23.312  0.00  0.00    -0.503 OA
ATOM     34  H   UNL     1      14.432   4.604  23.963  0.00  0.00    +0.292 HD
ENDBRANCH  28  33
ENDBRANCH  24  25
BRANCH  23  35
ATOM     35  O   UNL     1       3.881   2.574  23.716  0.00  0.00    -0.506 OA
ATOM     36  H   UNL     1       4.290   1.908  23.141  0.00  0.00    +0.292 HD
ENDBRANCH  23  35
BRANCH  20  37
ATOM     37  O   UNL     1       3.476   6.985  22.050  0.00  0.00    -0.507 OA
ATOM     38  H   UNL     1       2.739   7.193  22.648  0.00  0.00    +0.292 HD
ENDBRANCH  20  37
ENDBRANCH  13  14
ENDBRANCH   3  13
BRANCH   1  39
ATOM     39  C   UNL     1       7.955  -1.890  25.595  0.00  0.00    +0.197 C 
BRANCH  39  40
ATOM     40  O   UNL     1       7.188  -1.819  24.400  0.00  0.00    -0.346 OA
BRANCH  40  43
ATOM     41  C   UNL     1       7.056  -5.424  24.103  0.00  0.00    +0.190 C 
ATOM     42  O   UNL     1       7.453  -4.089  24.446  0.00  0.00    -0.339 OA
ATOM     43  C   UNL     1       6.565  -3.046  24.015  0.00  0.00    +0.282 C 
ATOM     44  C   UNL     1       6.390  -3.109  22.483  0.00  0.00    +0.201 C 
ATOM     45  C   UNL     1       5.866  -4.488  22.090  0.00  0.00    +0.179 C 
ATOM     46  C   UNL     1       6.833  -5.568  22.585  0.00  0.00    +0.178 C 
BRANCH  46  47
ATOM     47  O   UNL     1       6.313  -6.854  22.230  0.00  0.00    -0.386 OA
ATOM     48  H   UNL     1       6.897  -7.214  21.537  0.00  0.00    +0.210 HD
ENDBRANCH  46  47
BRANCH  45  49
ATOM     49  O   UNL     1       5.690  -4.578  20.676  0.00  0.00    -0.386 OA
ATOM     50  H   UNL     1       4.747  -4.423  20.503  0.00  0.00    +0.210 HD
ENDBRANCH  45  49
BRANCH  44  51
ATOM     51  O   UNL     1       7.655  -2.849  21.836  0.00  0.00    -0.384 OA
ATOM     52  H   UNL     1       7.602  -3.217  20.930  0.00  0.00    +0.210 HD
ENDBRANCH  44  51
BRANCH  41  53
ATOM     53  C   UNL     1       5.866  -5.907  24.957  0.00  0.00    +0.266 C 
BRANCH  53  54
ATOM     54  O   UNL     1       6.301  -6.113  26.318  0.00  0.00    -0.459 OA
BRANCH  54  55
ATOM     55  C   UNL     1       5.326  -6.275  27.248  0.00  0.00    +0.332 C 
ATOM     56  O   UNL     1       5.118  -7.273  27.918  0.00  0.00    -0.246 OA
BRANCH  55  58
ATOM     57  C   UNL     1       5.126  -3.922  27.905  0.00  0.00    +0.015 C 
ATOM     58  C   UNL     1       4.568  -5.008  27.344  0.00  0.00    +0.092 C 
BRANCH  57  60
ATOM     59  C   UNL     1       3.750  -2.179  29.119  0.00  0.00    +0.012 A 
ATOM     60  C   UNL     1       4.481  -2.601  27.992  0.00  0.00    -0.021 A 
ATOM     61  C   UNL     1       4.625  -1.712  26.916  0.00  0.00    +0.057 A 
ATOM     62  C   UNL     1       4.019  -0.464  26.960  0.00  0.00    +0.159 A 
ATOM     63  C   UNL     1       3.277  -0.067  28.069  0.00  0.00    +0.158 A 
ATOM     64  C   UNL     1       3.146  -0.916  29.156  0.00  0.00    +0.050 A 
BRANCH  63  65
ATOM     65  O   UNL     1       2.697   1.170  28.038  0.00  0.00    -0.503 OA
ATOM     66  H   UNL     1       2.766   1.515  27.129  0.00  0.00    +0.292 HD
ENDBRANCH  63  65
BRANCH  62  67
ATOM     67  O   UNL     1       4.152   0.382  25.895  0.00  0.00    -0.503 OA
ATOM     68  H   UNL     1       3.267   0.786  25.789  0.00  0.00    +0.292 HD
ENDBRANCH  62  67
ENDBRANCH  57  60
ENDBRANCH  55  58
ENDBRANCH  54  55
ENDBRANCH  53  54
ENDBRANCH  41  53
ENDBRANCH  40  43
ENDBRANCH  39  40
ENDBRANCH   1  39
TORSDOF 23
ENDMDL
MODEL 4
REMARK VINA RESULT:      -7.7      2.204      4.657
REMARK  Name = 
REMARK  23 active torsions:
REMARK  status: ('A' for Active; 'I' for Inactive)
REMARK    1  A    between atoms: C_3  and  O_62
REMARK    2  A    between atoms: C_4  and  O_61
REMARK    3  A    between atoms: C_6  and  C_7
REMARK    4  A    between atoms: C_8  and  C_9
REMARK    5  A    between atoms: C_9  and  O_11
REMARK    6  A    between atoms: O_11  and  C_12
REMARK    7  A    between atoms: C_12  and  C_13
REMARK    8  A    between atoms: C_14  and  O_60
REMARK    9  A    between atoms: C_16  and  O_59
REMARK   10  A    between atoms: C_18  and  O_58
REMARK   11  A    between atoms: C_19  and  O_22
REMARK   12  A    between atoms: O_22  and  C_23
REMARK   13  A    between atoms: C_23  and  C_24
REMARK   14  A    between atoms: C_25  and  O_57
REMARK   15  A    between atoms: C_27  and  O_56
REMARK   16  A    between atoms: C_29  and  O_55
REMARK   17  A    between atoms: C_30  and  O_33
REMARK   18  A    between atoms: O_33  and  C_34
REMARK   19  A    between atoms: C_35  and  C_47
REMARK   20  A    between atoms: C_39  and  O_46
REMARK   21  A    between atoms: C_41  and  O_45
REMARK   22  A    between atoms: C_49  and  O_54
REMARK   23  A    between atoms: C_50  and  O_53
REMARK                            x       y       z     vdW  Elec       q    Type
REMARK                         _______ _______ _______ _____ _____    ______ ____
ROOT
ATOM      1  C   UNL     1       5.409  -0.698  26.710  0.00  0.00    +0.179 C 
ATOM      2  O   UNL     1       5.072   0.701  26.781  0.00  0.00    -0.331 OA
ATOM      3  C   UNL     1       5.855   1.567  25.920  0.00  0.00    +0.340 C 
ATOM      4  C   UNL     1       7.355   1.413  26.277  0.00  0.00    +0.214 C 
ATOM      5  C   UNL     1       7.788  -0.052  26.159  0.00  0.00    +0.180 C 
ATOM      6  C   UNL     1       6.891  -0.926  27.039  0.00  0.00    +0.177 C 
ENDROOT
BRANCH   6   7
ATOM      7  O   UNL     1       7.273  -2.299  26.916  0.00  0.00    -0.386 OA
ATOM      8  H   UNL     1       6.488  -2.794  26.622  0.00  0.00    +0.210 HD
ENDBRANCH   6   7
BRANCH   5   9
ATOM      9  O   UNL     1       9.156  -0.225  26.566  0.00  0.00    -0.386 OA
ATOM     10  H   UNL     1       9.607  -0.583  25.778  0.00  0.00    +0.210 HD
ENDBRANCH   5   9
BRANCH   4  11
ATOM     11  O   UNL     1       7.564   1.877  27.634  0.00  0.00    -0.383 OA
ATOM     12  H   UNL     1       8.134   1.217  28.074  0.00  0.00    +0.210 HD
ENDBRANCH   4  11
BRANCH   3  13
ATOM     13  O   UNL     1       5.413   2.914  26.193  0.00  0.00    -0.453 OA
BRANCH  13  14
ATOM     14  C   UNL     1       4.768   3.644  25.205  0.00  0.00    +0.214 A 
ATOM     15  C   UNL     1       3.371   3.316  24.767  0.00  0.00    +0.238 A 
ATOM     16  O   UNL     1       2.655   2.564  25.418  0.00  0.00    -0.283 OA
ATOM     17  C   UNL     1       2.894   3.939  23.514  0.00  0.00    +0.109 A 
ATOM     18  C   UNL     1       3.601   5.040  23.043  0.00  0.00    +0.147 A 
ATOM     19  C   UNL     1       3.152   5.754  21.928  0.00  0.00    +0.092 A 
ATOM     20  C   UNL     1       2.008   5.326  21.263  0.00  0.00    +0.124 A 
ATOM     21  C   UNL     1       1.326   4.188  21.680  0.00  0.00    +0.091 A 
ATOM     22  O   UNL     1       4.763   5.476  23.620  0.00  0.00    -0.451 OA
ATOM     23  C   UNL     1       1.773   3.491  22.805  0.00  0.00    +0.135 A 
ATOM     24  C   UNL     1       5.381   4.674  24.577  0.00  0.00    +0.181 A 
BRANCH  24  25
ATOM     25  C   UNL     1       6.823   5.022  24.752  0.00  0.00    +0.025 A 
ATOM     26  C   UNL     1       7.163   5.971  25.741  0.00  0.00    +0.015 A 
ATOM     27  C   UNL     1       8.467   6.459  25.871  0.00  0.00    +0.050 A 
ATOM     28  C   UNL     1       9.446   5.989  25.018  0.00  0.00    +0.158 A 
ATOM     29  C   UNL     1       9.157   4.987  24.097  0.00  0.00    +0.159 A 
ATOM     30  C   UNL     1       7.858   4.497  23.957  0.00  0.00    +0.060 A 
BRANCH  29  31
ATOM     31  O   UNL     1      10.193   4.516  23.337  0.00  0.00    -0.503 OA
ATOM     32  H   UNL     1      10.044   3.565  23.192  0.00  0.00    +0.292 HD
ENDBRANCH  29  31
BRANCH  28  33
ATOM     33  O   UNL     1      10.699   6.527  25.079  0.00  0.00    -0.503 OA
ATOM     34  H   UNL     1      10.558   7.488  24.971  0.00  0.00    +0.292 HD
ENDBRANCH  28  33
ENDBRANCH  24  25
BRANCH  23  35
ATOM     35  O   UNL     1       1.112   2.355  23.178  0.00  0.00    -0.506 OA
ATOM     36  H   UNL     1       0.263   2.582  23.589  0.00  0.00    +0.292 HD
ENDBRANCH  23  35
BRANCH  20  37
ATOM     37  O   UNL     1       1.521   5.991  20.177  0.00  0.00    -0.507 OA
ATOM     38  H   UNL     1       0.855   6.634  20.468  0.00  0.00    +0.292 HD
ENDBRANCH  20  37
ENDBRANCH  13  14
ENDBRANCH   3  13
BRANCH   1  39
ATOM     39  C   UNL     1       4.925  -1.380  25.413  0.00  0.00    +0.197 C 
BRANCH  39  40
ATOM     40  O   UNL     1       3.846  -2.271  25.668  0.00  0.00    -0.346 OA
BRANCH  40  43
ATOM     41  C   UNL     1       5.352  -5.190  24.146  0.00  0.00    +0.190 C 
ATOM     42  O   UNL     1       4.948  -3.842  24.426  0.00  0.00    -0.339 OA
ATOM     43  C   UNL     1       4.193  -3.657  25.633  0.00  0.00    +0.282 C 
ATOM     44  C   UNL     1       2.923  -4.533  25.594  0.00  0.00    +0.201 C 
ATOM     45  C   UNL     1       3.322  -5.994  25.403  0.00  0.00    +0.179 C 
ATOM     46  C   UNL     1       4.141  -6.142  24.116  0.00  0.00    +0.178 C 
BRANCH  46  47
ATOM     47  O   UNL     1       4.527  -7.512  23.966  0.00  0.00    -0.386 OA
ATOM     48  H   UNL     1       5.285  -7.528  23.352  0.00  0.00    +0.210 HD
ENDBRANCH  46  47
BRANCH  45  49
ATOM     49  O   UNL     1       2.168  -6.834  25.365  0.00  0.00    -0.386 OA
ATOM     50  H   UNL     1       2.249  -7.382  24.567  0.00  0.00    +0.210 HD
ENDBRANCH  45  49
BRANCH  44  51
ATOM     51  O   UNL     1       2.065  -4.102  24.516  0.00  0.00    -0.384 OA
ATOM     52  H   UNL     1       1.192  -3.885  24.905  0.00  0.00    +0.210 HD
ENDBRANCH  44  51
BRANCH  41  53
ATOM     53  C   UNL     1       6.487  -5.655  25.082  0.00  0.00    +0.266 C 
BRANCH  53  54
ATOM     54  O   UNL     1       7.431  -4.579  25.267  0.00  0.00    -0.459 OA
BRANCH  54  55
ATOM     55  C   UNL     1       8.602  -4.674  24.586  0.00  0.00    +0.332 C 
ATOM     56  O   UNL     1       9.252  -5.688  24.396  0.00  0.00    -0.246 OA
BRANCH  55  58
ATOM     57  C   UNL     1       8.089  -2.664  23.281  0.00  0.00    +0.015 C 
ATOM     58  C   UNL     1       8.945  -3.328  24.075  0.00  0.00    +0.092 C 
BRANCH  57  60
ATOM     59  C   UNL     1       9.539  -0.870  22.240  0.00  0.00    +0.012 A 
ATOM     60  C   UNL     1       8.308  -1.299  22.772  0.00  0.00    -0.021 A 
ATOM     61  C   UNL     1       7.235  -0.396  22.792  0.00  0.00    +0.057 A 
ATOM     62  C   UNL     1       7.411   0.902  22.332  0.00  0.00    +0.159 A 
ATOM     63  C   UNL     1       8.639   1.324  21.831  0.00  0.00    +0.158 A 
ATOM     64  C   UNL     1       9.706   0.440  21.774  0.00  0.00    +0.050 A 
BRANCH  63  65
ATOM     65  O   UNL     1       8.745   2.619  21.409  0.00  0.00    -0.503 OA
ATOM     66  H   UNL     1       8.074   3.147  21.878  0.00  0.00    +0.292 HD
ENDBRANCH  63  65
BRANCH  62  67
ATOM     67  O   UNL     1       6.361   1.776  22.377  0.00  0.00    -0.503 OA
ATOM     68  H   UNL     1       6.478   2.342  21.587  0.00  0.00    +0.292 HD
ENDBRANCH  62  67
ENDBRANCH  57  60
ENDBRANCH  55  58
ENDBRANCH  54  55
ENDBRANCH  53  54
ENDBRANCH  41  53
ENDBRANCH  40  43
ENDBRANCH  39  40
ENDBRANCH   1  39
TORSDOF 23
ENDMDL
MODEL 5
REMARK VINA RESULT:      -7.5      2.308      8.514
REMARK  Name = 
REMARK  23 active torsions:
REMARK  status: ('A' for Active; 'I' for Inactive)
REMARK    1  A    between atoms: C_3  and  O_62
REMARK    2  A    between atoms: C_4  and  O_61
REMARK    3  A    between atoms: C_6  and  C_7
REMARK    4  A    between atoms: C_8  and  C_9
REMARK    5  A    between atoms: C_9  and  O_11
REMARK    6  A    between atoms: O_11  and  C_12
REMARK    7  A    between atoms: C_12  and  C_13
REMARK    8  A    between atoms: C_14  and  O_60
REMARK    9  A    between atoms: C_16  and  O_59
REMARK   10  A    between atoms: C_18  and  O_58
REMARK   11  A    between atoms: C_19  and  O_22
REMARK   12  A    between atoms: O_22  and  C_23
REMARK   13  A    between atoms: C_23  and  C_24
REMARK   14  A    between atoms: C_25  and  O_57
REMARK   15  A    between atoms: C_27  and  O_56
REMARK   16  A    between atoms: C_29  and  O_55
REMARK   17  A    between atoms: C_30  and  O_33
REMARK   18  A    between atoms: O_33  and  C_34
REMARK   19  A    between atoms: C_35  and  C_47
REMARK   20  A    between atoms: C_39  and  O_46
REMARK   21  A    between atoms: C_41  and  O_45
REMARK   22  A    between atoms: C_49  and  O_54
REMARK   23  A    between atoms: C_50  and  O_53
REMARK                            x       y       z     vdW  Elec       q    Type
REMARK                         _______ _______ _______ _____ _____    ______ ____
ROOT
ATOM      1  C   UNL     1       4.802  -4.325  23.795  0.00  0.00    +0.179 C 
ATOM      2  O   UNL     1       3.923  -3.728  24.768  0.00  0.00    -0.331 OA
ATOM      3  C   UNL     1       3.247  -4.666  25.644  0.00  0.00    +0.340 C 
ATOM      4  C   UNL     1       2.416  -5.652  24.783  0.00  0.00    +0.214 C 
ATOM      5  C   UNL     1       3.313  -6.365  23.766  0.00  0.00    +0.180 C 
ATOM      6  C   UNL     1       4.047  -5.328  22.912  0.00  0.00    +0.177 C 
ENDROOT
BRANCH   6   7
ATOM      7  O   UNL     1       4.906  -5.985  21.975  0.00  0.00    -0.386 OA
ATOM      8  H   UNL     1       4.632  -6.918  21.934  0.00  0.00    +0.210 HD
ENDBRANCH   6   7
BRANCH   5   9
ATOM      9  O   UNL     1       2.545  -7.222  22.905  0.00  0.00    -0.386 OA
ATOM     10  H   UNL     1       1.694  -6.759  22.786  0.00  0.00    +0.210 HD
ENDBRANCH   5   9
BRANCH   4  11
ATOM     11  O   UNL     1       1.382  -4.912  24.088  0.00  0.00    -0.383 OA
ATOM     12  H   UNL     1       1.817  -4.147  23.664  0.00  0.00    +0.210 HD
ENDBRANCH   4  11
BRANCH   3  13
ATOM     13  O   UNL     1       2.374  -3.879  26.481  0.00  0.00    -0.453 OA
BRANCH  13  14
ATOM     14  C   UNL     1       2.881  -2.792  27.179  0.00  0.00    +0.214 A 
ATOM     15  C   UNL     1       2.369  -1.400  26.951  0.00  0.00    +0.238 A 
ATOM     16  O   UNL     1       1.330  -1.192  26.334  0.00  0.00    -0.283 OA
ATOM     17  C   UNL     1       3.172  -0.288  27.502  0.00  0.00    +0.109 A 
ATOM     18  C   UNL     1       4.107  -0.604  28.481  0.00  0.00    +0.147 A 
ATOM     19  C   UNL     1       4.828   0.401  29.132  0.00  0.00    +0.092 A 
ATOM     20  C   UNL     1       4.632   1.727  28.759  0.00  0.00    +0.124 A 
ATOM     21  C   UNL     1       3.750   2.056  27.737  0.00  0.00    +0.091 A 
ATOM     22  O   UNL     1       4.385  -1.892  28.851  0.00  0.00    -0.451 OA
ATOM     23  C   UNL     1       3.022   1.046  27.104  0.00  0.00    +0.135 A 
ATOM     24  C   UNL     1       3.877  -2.938  28.083  0.00  0.00    +0.181 A 
BRANCH  24  25
ATOM     25  C   UNL     1       4.628  -4.209  28.303  0.00  0.00    +0.025 A 
ATOM     26  C   UNL     1       4.064  -5.176  29.164  0.00  0.00    +0.015 A 
ATOM     27  C   UNL     1       4.766  -6.325  29.537  0.00  0.00    +0.050 A 
ATOM     28  C   UNL     1       6.039  -6.524  29.037  0.00  0.00    +0.158 A 
ATOM     29  C   UNL     1       6.581  -5.634  28.115  0.00  0.00    +0.159 A 
ATOM     30  C   UNL     1       5.889  -4.482  27.741  0.00  0.00    +0.060 A 
BRANCH  29  31
ATOM     31  O   UNL     1       7.815  -5.935  27.606  0.00  0.00    -0.503 OA
ATOM     32  H   UNL     1       8.340  -6.334  28.322  0.00  0.00    +0.292 HD
ENDBRANCH  29  31
BRANCH  28  33
ATOM     33  O   UNL     1       6.764  -7.597  29.468  0.00  0.00    -0.503 OA
ATOM     34  H   UNL     1       7.565  -7.592  28.908  0.00  0.00    +0.292 HD
ENDBRANCH  28  33
ENDBRANCH  24  25
BRANCH  23  35
ATOM     35  O   UNL     1       2.188   1.384  26.076  0.00  0.00    -0.506 OA
ATOM     36  H   UNL     1       1.369   1.771  26.424  0.00  0.00    +0.292 HD
ENDBRANCH  23  35
BRANCH  20  37
ATOM     37  O   UNL     1       5.302   2.746  29.368  0.00  0.00    -0.507 OA
ATOM     38  H   UNL     1       4.710   3.511  29.454  0.00  0.00    +0.292 HD
ENDBRANCH  20  37
ENDBRANCH  13  14
ENDBRANCH   3  13
BRANCH   1  39
ATOM     39  C   UNL     1       6.115  -4.862  24.402  0.00  0.00    +0.197 C 
BRANCH  39  40
ATOM     40  O   UNL     1       7.239  -4.498  23.610  0.00  0.00    -0.346 OA
BRANCH  40  43
ATOM     41  C   UNL     1       9.436  -1.701  22.934  0.00  0.00    +0.190 C 
ATOM     42  O   UNL     1       8.808  -2.991  22.909  0.00  0.00    -0.339 OA
ATOM     43  C   UNL     1       7.646  -3.134  23.740  0.00  0.00    +0.282 C 
ATOM     44  C   UNL     1       8.010  -2.814  25.205  0.00  0.00    +0.201 C 
ATOM     45  C   UNL     1       8.585  -1.402  25.286  0.00  0.00    +0.179 C 
ATOM     46  C   UNL     1       9.809  -1.289  24.371  0.00  0.00    +0.178 C 
BRANCH  46  47
ATOM     47  O   UNL     1      10.319   0.046  24.441  0.00  0.00    -0.386 OA
ATOM     48  H   UNL     1       9.781   0.522  25.102  0.00  0.00    +0.210 HD
ENDBRANCH  46  47
BRANCH  45  49
ATOM     49  O   UNL     1       8.930  -1.072  26.632  0.00  0.00    -0.386 OA
ATOM     50  H   UNL     1       9.161  -0.129  26.636  0.00  0.00    +0.210 HD
ENDBRANCH  45  49
BRANCH  44  51
ATOM     51  O   UNL     1       8.970  -3.776  25.691  0.00  0.00    -0.384 OA
ATOM     52  H   UNL     1       9.864  -3.409  25.525  0.00  0.00    +0.210 HD
ENDBRANCH  44  51
BRANCH  41  53
ATOM     53  C   UNL     1       8.605  -0.644  22.179  0.00  0.00    +0.266 C 
BRANCH  53  54
ATOM     54  O   UNL     1       9.486   0.215  21.424  0.00  0.00    -0.459 OA
BRANCH  54  55
ATOM     55  C   UNL     1       9.549   1.514  21.813  0.00  0.00    +0.332 C 
ATOM     56  O   UNL     1      10.560   2.162  22.021  0.00  0.00    -0.246 OA
BRANCH  55  58
ATOM     57  C   UNL     1       7.891   3.101  22.673  0.00  0.00    +0.015 C 
ATOM     58  C   UNL     1       8.165   2.031  21.908  0.00  0.00    +0.092 C 
BRANCH  57  60
ATOM     59  C   UNL     1       6.359   5.115  22.645  0.00  0.00    +0.012 A 
ATOM     60  C   UNL     1       6.563   3.729  22.786  0.00  0.00    -0.021 A 
ATOM     61  C   UNL     1       5.450   2.907  23.015  0.00  0.00    +0.057 A 
ATOM     62  C   UNL     1       4.186   3.468  23.140  0.00  0.00    +0.159 A 
ATOM     63  C   UNL     1       3.999   4.843  23.024  0.00  0.00    +0.158 A 
ATOM     64  C   UNL     1       5.079   5.671  22.768  0.00  0.00    +0.050 A 
BRANCH  63  65
ATOM     65  O   UNL     1       2.729   5.327  23.173  0.00  0.00    -0.503 OA
ATOM     66  H   UNL     1       2.727   5.948  23.923  0.00  0.00    +0.292 HD
ENDBRANCH  63  65
BRANCH  62  67
ATOM     67  O   UNL     1       3.115   2.656  23.384  0.00  0.00    -0.503 OA
ATOM     68  H   UNL     1       2.659   2.583  22.521  0.00  0.00    +0.292 HD
ENDBRANCH  62  67
ENDBRANCH  57  60
ENDBRANCH  55  58
ENDBRANCH  54  55
ENDBRANCH  53  54
ENDBRANCH  41  53
ENDBRANCH  40  43
ENDBRANCH  39  40
ENDBRANCH   1  39
TORSDOF 23
ENDMDL
MODEL 6
REMARK VINA RESULT:      -7.4      2.661      5.294
REMARK  Name = 
REMARK  23 active torsions:
REMARK  status: ('A' for Active; 'I' for Inactive)
REMARK    1  A    between atoms: C_3  and  O_62
REMARK    2  A    between atoms: C_4  and  O_61
REMARK    3  A    between atoms: C_6  and  C_7
REMARK    4  A    between atoms: C_8  and  C_9
REMARK    5  A    between atoms: C_9  and  O_11
REMARK    6  A    between atoms: O_11  and  C_12
REMARK    7  A    between atoms: C_12  and  C_13
REMARK    8  A    between atoms: C_14  and  O_60
REMARK    9  A    between atoms: C_16  and  O_59
REMARK   10  A    between atoms: C_18  and  O_58
REMARK   11  A    between atoms: C_19  and  O_22
REMARK   12  A    between atoms: O_22  and  C_23
REMARK   13  A    between atoms: C_23  and  C_24
REMARK   14  A    between atoms: C_25  and  O_57
REMARK   15  A    between atoms: C_27  and  O_56
REMARK   16  A    between atoms: C_29  and  O_55
REMARK   17  A    between atoms: C_30  and  O_33
REMARK   18  A    between atoms: O_33  and  C_34
REMARK   19  A    between atoms: C_35  and  C_47
REMARK   20  A    between atoms: C_39  and  O_46
REMARK   21  A    between atoms: C_41  and  O_45
REMARK   22  A    between atoms: C_49  and  O_54
REMARK   23  A    between atoms: C_50  and  O_53
REMARK                            x       y       z     vdW  Elec       q    Type
REMARK                         _______ _______ _______ _____ _____    ______ ____
ROOT
ATOM      1  C   UNL     1       8.672  -4.051  26.311  0.00  0.00    +0.179 C 
ATOM      2  O   UNL     1       8.603  -2.676  26.734  0.00  0.00    -0.331 OA
ATOM      3  C   UNL     1       7.865  -1.796  25.848  0.00  0.00    +0.340 C 
ATOM      4  C   UNL     1       8.515  -1.836  24.442  0.00  0.00    +0.214 C 
ATOM      5  C   UNL     1       8.561  -3.272  23.911  0.00  0.00    +0.180 C 
ATOM      6  C   UNL     1       9.295  -4.167  24.913  0.00  0.00    +0.177 C 
ENDROOT
BRANCH   6   7
ATOM      7  O   UNL     1       9.322  -5.516  24.437  0.00  0.00    -0.386 OA
ATOM      8  H   UNL     1       8.609  -5.999  24.892  0.00  0.00    +0.210 HD
ENDBRANCH   6   7
BRANCH   5   9
ATOM      9  O   UNL     1       9.235  -3.338  22.643  0.00  0.00    -0.386 OA
ATOM     10  H   UNL     1      10.125  -3.681  22.850  0.00  0.00    +0.210 HD
ENDBRANCH   5   9
BRANCH   4  11
ATOM     11  O   UNL     1       9.860  -1.304  24.531  0.00  0.00    -0.383 OA
ATOM     12  H   UNL     1       9.781  -0.385  24.849  0.00  0.00    +0.210 HD
ENDBRANCH   4  11
BRANCH   3  13
ATOM     13  O   UNL     1       7.976  -0.472  26.410  0.00  0.00    -0.453 OA
BRANCH  13  14
ATOM     14  C   UNL     1       6.917   0.419  26.295  0.00  0.00    +0.214 A 
ATOM     15  C   UNL     1       5.690   0.302  27.151  0.00  0.00    +0.238 A 
ATOM     16  O   UNL     1       5.668  -0.418  28.143  0.00  0.00    -0.283 OA
ATOM     17  C   UNL     1       4.508   1.091  26.746  0.00  0.00    +0.109 A 
ATOM     18  C   UNL     1       4.719   2.139  25.857  0.00  0.00    +0.147 A 
ATOM     19  C   UNL     1       3.676   3.002  25.510  0.00  0.00    +0.092 A 
ATOM     20  C   UNL     1       2.406   2.777  26.031  0.00  0.00    +0.124 A 
ATOM     21  C   UNL     1       2.162   1.694  26.869  0.00  0.00    +0.091 A 
ATOM     22  O   UNL     1       5.931   2.378  25.268  0.00  0.00    -0.451 OA
ATOM     23  C   UNL     1       3.215   0.847  27.223  0.00  0.00    +0.135 A 
ATOM     24  C   UNL     1       6.938   1.423  25.388  0.00  0.00    +0.181 A 
BRANCH  24  25
ATOM     25  C   UNL     1       7.986   1.580  24.337  0.00  0.00    +0.025 A 
ATOM     26  C   UNL     1       9.207   2.190  24.700  0.00  0.00    +0.015 A 
ATOM     27  C   UNL     1      10.181   2.505  23.748  0.00  0.00    +0.050 A 
ATOM     28  C   UNL     1       9.945   2.199  22.421  0.00  0.00    +0.158 A 
ATOM     29  C   UNL     1       8.791   1.515  22.050  0.00  0.00    +0.159 A 
ATOM     30  C   UNL     1       7.812   1.200  22.994  0.00  0.00    +0.060 A 
BRANCH  29  31
ATOM     31  O   UNL     1       8.660   1.178  20.731  0.00  0.00    -0.503 OA
ATOM     32  H   UNL     1       7.723   1.287  20.491  0.00  0.00    +0.292 HD
ENDBRANCH  29  31
BRANCH  28  33
ATOM     33  O   UNL     1      10.850   2.585  21.477  0.00  0.00    -0.503 OA
ATOM     34  H   UNL     1      11.624   2.007  21.627  0.00  0.00    +0.292 HD
ENDBRANCH  28  33
ENDBRANCH  24  25
BRANCH  23  35
ATOM     35  O   UNL     1       2.949  -0.232  28.017  0.00  0.00    -0.506 OA
ATOM     36  H   UNL     1       3.659  -0.889  27.936  0.00  0.00    +0.292 HD
ENDBRANCH  23  35
BRANCH  20  37
ATOM     37  O   UNL     1       1.356   3.593  25.733  0.00  0.00    -0.507 OA
ATOM     38  H   UNL     1       1.388   4.378  26.305  0.00  0.00    +0.292 HD
ENDBRANCH  20  37
ENDBRANCH  13  14
ENDBRANCH   3  13
BRANCH   1  39
ATOM     39  C   UNL     1       7.344  -4.817  26.490  0.00  0.00    +0.197 C 
BRANCH  39  40
ATOM     40  O   UNL     1       7.047  -5.024  27.865  0.00  0.00    -0.346 OA
BRANCH  40  43
ATOM     41  C   UNL     1       4.222  -4.477  30.062  0.00  0.00    +0.190 C 
ATOM     42  O   UNL     1       5.544  -4.498  29.505  0.00  0.00    -0.339 OA
ATOM     43  C   UNL     1       5.653  -5.039  28.180  0.00  0.00    +0.282 C 
ATOM     44  C   UNL     1       5.107  -6.483  28.160  0.00  0.00    +0.201 C 
ATOM     45  C   UNL     1       3.661  -6.484  28.648  0.00  0.00    +0.179 C 
ATOM     46  C   UNL     1       3.590  -5.882  30.054  0.00  0.00    +0.178 C 
BRANCH  46  47
ATOM     47  O   UNL     1       2.225  -5.868  30.485  0.00  0.00    -0.386 OA
ATOM     48  H   UNL     1       2.039  -4.969  30.813  0.00  0.00    +0.210 HD
ENDBRANCH  46  47
BRANCH  45  49
ATOM     49  O   UNL     1       3.125  -7.807  28.638  0.00  0.00    -0.386 OA
ATOM     50  H   UNL     1       3.692  -8.333  28.050  0.00  0.00    +0.210 HD
ENDBRANCH  45  49
BRANCH  44  51
ATOM     51  O   UNL     1       5.923  -7.325  29.003  0.00  0.00    -0.384 OA
ATOM     52  H   UNL     1       6.105  -6.826  29.827  0.00  0.00    +0.210 HD
ENDBRANCH  44  51
BRANCH  41  53
ATOM     53  C   UNL     1       3.341  -3.393  29.407  0.00  0.00    +0.266 C 
BRANCH  53  54
ATOM     54  O   UNL     1       2.337  -4.021  28.581  0.00  0.00    -0.459 OA
BRANCH  54  55
ATOM     55  C   UNL     1       2.014  -3.383  27.428  0.00  0.00    +0.332 C 
ATOM     56  O   UNL     1       1.405  -2.332  27.324  0.00  0.00    -0.246 OA
BRANCH  55  58
ATOM     57  C   UNL     1       3.586  -3.689  25.572  0.00  0.00    +0.015 C 
ATOM     58  C   UNL     1       2.564  -4.169  26.300  0.00  0.00    +0.092 C 
BRANCH  57  60
ATOM     59  C   UNL     1       4.421  -5.814  24.480  0.00  0.00    +0.012 A 
ATOM     60  C   UNL     1       4.244  -4.417  24.474  0.00  0.00    -0.021 A 
ATOM     61  C   UNL     1       4.687  -3.690  23.359  0.00  0.00    +0.057 A 
ATOM     62  C   UNL     1       5.324  -4.344  22.312  0.00  0.00    +0.159 A 
ATOM     63  C   UNL     1       5.516  -5.722  22.340  0.00  0.00    +0.158 A 
ATOM     64  C   UNL     1       5.060  -6.465  23.417  0.00  0.00    +0.050 A 
BRANCH  63  65
ATOM     65  O   UNL     1       6.163  -6.297  21.281  0.00  0.00    -0.503 OA
ATOM     66  H   UNL     1       5.717  -6.013  20.463  0.00  0.00    +0.292 HD
ENDBRANCH  63  65
BRANCH  62  67
ATOM     67  O   UNL     1       5.768  -3.619  21.242  0.00  0.00    -0.503 OA
ATOM     68  H   UNL     1       6.516  -3.095  21.595  0.00  0.00    +0.292 HD
ENDBRANCH  62  67
ENDBRANCH  57  60
ENDBRANCH  55  58
ENDBRANCH  54  55
ENDBRANCH  53  54
ENDBRANCH  41  53
ENDBRANCH  40  43
ENDBRANCH  39  40
ENDBRANCH   1  39
TORSDOF 23
ENDMDL
MODEL 7
REMARK VINA RESULT:      -7.2      1.864      8.343
REMARK  Name = 
REMARK  23 active torsions:
REMARK  status: ('A' for Active; 'I' for Inactive)
REMARK    1  A    between atoms: C_3  and  O_62
REMARK    2  A    between atoms: C_4  and  O_61
REMARK    3  A    between atoms: C_6  and  C_7
REMARK    4  A    between atoms: C_8  and  C_9
REMARK    5  A    between atoms: C_9  and  O_11
REMARK    6  A    between atoms: O_11  and  C_12
REMARK    7  A    between atoms: C_12  and  C_13
REMARK    8  A    between atoms: C_14  and  O_60
REMARK    9  A    between atoms: C_16  and  O_59
REMARK   10  A    between atoms: C_18  and  O_58
REMARK   11  A    between atoms: C_19  and  O_22
REMARK   12  A    between atoms: O_22  and  C_23
REMARK   13  A    between atoms: C_23  and  C_24
REMARK   14  A    between atoms: C_25  and  O_57
REMARK   15  A    between atoms: C_27  and  O_56
REMARK   16  A    between atoms: C_29  and  O_55
REMARK   17  A    between atoms: C_30  and  O_33
REMARK   18  A    between atoms: O_33  and  C_34
REMARK   19  A    between atoms: C_35  and  C_47
REMARK   20  A    between atoms: C_39  and  O_46
REMARK   21  A    between atoms: C_41  and  O_45
REMARK   22  A    between atoms: C_49  and  O_54
REMARK   23  A    between atoms: C_50  and  O_53
REMARK                            x       y       z     vdW  Elec       q    Type
REMARK                         _______ _______ _______ _____ _____    ______ ____
ROOT
ATOM      1  C   UNL     1       5.212   2.252  26.602  0.00  0.00    +0.179 C 
ATOM      2  O   UNL     1       6.091   1.233  26.087  0.00  0.00    -0.331 OA
ATOM      3  C   UNL     1       6.132   0.007  26.862  0.00  0.00    +0.340 C 
ATOM      4  C   UNL     1       6.574   0.339  28.309  0.00  0.00    +0.214 C 
ATOM      5  C   UNL     1       5.635   1.377  28.933  0.00  0.00    +0.180 C 
ATOM      6  C   UNL     1       5.582   2.622  28.045  0.00  0.00    +0.177 C 
ENDROOT
BRANCH   6   7
ATOM      7  O   UNL     1       4.689   3.588  28.608  0.00  0.00    -0.386 OA
ATOM      8  H   UNL     1       3.862   3.125  28.828  0.00  0.00    +0.210 HD
ENDBRANCH   6   7
BRANCH   5   9
ATOM      9  O   UNL     1       6.078   1.757  30.247  0.00  0.00    -0.386 OA
ATOM     10  H   UNL     1       5.381   2.351  30.584  0.00  0.00    +0.210 HD
ENDBRANCH   5   9
BRANCH   4  11
ATOM     11  O   UNL     1       7.926   0.858  28.281  0.00  0.00    -0.383 OA
ATOM     12  H   UNL     1       7.990   1.521  28.995  0.00  0.00    +0.210 HD
ENDBRANCH   4  11
BRANCH   3  13
ATOM     13  O   UNL     1       7.111  -0.840  26.224  0.00  0.00    -0.453 OA
BRANCH  13  14
ATOM     14  C   UNL     1       6.726  -1.686  25.193  0.00  0.00    +0.214 A 
ATOM     15  C   UNL     1       5.981  -2.961  25.455  0.00  0.00    +0.238 A 
ATOM     16  O   UNL     1       5.467  -3.191  26.544  0.00  0.00    -0.283 OA
ATOM     17  C   UNL     1       5.893  -3.931  24.343  0.00  0.00    +0.109 A 
ATOM     18  C   UNL     1       6.164  -3.456  23.064  0.00  0.00    +0.147 A 
ATOM     19  C   UNL     1       5.996  -4.279  21.946  0.00  0.00    +0.092 A 
ATOM     20  C   UNL     1       5.593  -5.598  22.128  0.00  0.00    +0.124 A 
ATOM     21  C   UNL     1       5.381  -6.108  23.404  0.00  0.00    +0.091 A 
ATOM     22  O   UNL     1       6.617  -2.187  22.826  0.00  0.00    -0.451 OA
ATOM     23  C   UNL     1       5.535  -5.274  24.513  0.00  0.00    +0.135 A 
ATOM     24  C   UNL     1       7.026  -1.405  23.903  0.00  0.00    +0.181 A 
BRANCH  24  25
ATOM     25  C   UNL     1       7.914  -0.284  23.476  0.00  0.00    +0.025 A 
ATOM     26  C   UNL     1       7.499   0.518  22.390  0.00  0.00    +0.015 A 
ATOM     27  C   UNL     1       8.334   1.492  21.836  0.00  0.00    +0.050 A 
ATOM     28  C   UNL     1       9.592   1.681  22.374  0.00  0.00    +0.158 A 
ATOM     29  C   UNL     1       9.991   0.969  23.501  0.00  0.00    +0.159 A 
ATOM     30  C   UNL     1       9.165  -0.009  24.059  0.00  0.00    +0.060 A 
BRANCH  29  31
ATOM     31  O   UNL     1      11.220   1.262  24.025  0.00  0.00    -0.503 OA
ATOM     32  H   UNL     1      11.878   1.145  23.317  0.00  0.00    +0.292 HD
ENDBRANCH  29  31
BRANCH  28  33
ATOM     33  O   UNL     1      10.446   2.565  21.782  0.00  0.00    -0.503 OA
ATOM     34  H   UNL     1      11.006   2.014  21.201  0.00  0.00    +0.292 HD
ENDBRANCH  28  33
ENDBRANCH  24  25
BRANCH  23  35
ATOM     35  O   UNL     1       5.359  -5.802  25.761  0.00  0.00    -0.506 OA
ATOM     36  H   UNL     1       5.188  -5.094  26.402  0.00  0.00    +0.292 HD
ENDBRANCH  23  35
BRANCH  20  37
ATOM     37  O   UNL     1       5.404  -6.439  21.072  0.00  0.00    -0.507 OA
ATOM     38  H   UNL     1       6.208  -6.454  20.528  0.00  0.00    +0.292 HD
ENDBRANCH  20  37
ENDBRANCH  13  14
ENDBRANCH   3  13
BRANCH   1  39
ATOM     39  C   UNL     1       3.716   1.942  26.380  0.00  0.00    +0.197 C 
BRANCH  39  40
ATOM     40  O   UNL     1       3.293   2.333  25.080  0.00  0.00    -0.346 OA
BRANCH  40  43
ATOM     41  C   UNL     1       3.004   5.617  23.586  0.00  0.00    +0.190 C 
ATOM     42  O   UNL     1       2.698   4.336  24.155  0.00  0.00    -0.339 OA
ATOM     43  C   UNL     1       3.823   3.580  24.628  0.00  0.00    +0.282 C 
ATOM     44  C   UNL     1       4.825   3.359  23.475  0.00  0.00    +0.201 C 
ATOM     45  C   UNL     1       5.256   4.711  22.913  0.00  0.00    +0.179 C 
ATOM     46  C   UNL     1       4.025   5.489  22.438  0.00  0.00    +0.178 C 
BRANCH  46  47
ATOM     47  O   UNL     1       4.445   6.762  21.938  0.00  0.00    -0.386 OA
ATOM     48  H   UNL     1       3.694   7.133  21.437  0.00  0.00    +0.210 HD
ENDBRANCH  46  47
BRANCH  45  49
ATOM     49  O   UNL     1       6.187   4.541  21.844  0.00  0.00    -0.386 OA
ATOM     50  H   UNL     1       5.728   4.807  21.030  0.00  0.00    +0.210 HD
ENDBRANCH  45  49
BRANCH  44  51
ATOM     51  O   UNL     1       4.211   2.557  22.443  0.00  0.00    -0.384 OA
ATOM     52  H   UNL     1       3.677   3.159  21.883  0.00  0.00    +0.210 HD
ENDBRANCH  44  51
BRANCH  41  53
ATOM     53  C   UNL     1       3.405   6.644  24.665  0.00  0.00    +0.266 C 
BRANCH  53  54
ATOM     54  O   UNL     1       4.840   6.644  24.822  0.00  0.00    -0.459 OA
BRANCH  54  55
ATOM     55  C   UNL     1       5.313   6.458  26.080  0.00  0.00    +0.332 C 
ATOM     56  O   UNL     1       4.659   6.175  27.069  0.00  0.00    -0.246 OA
BRANCH  55  58
ATOM     57  C   UNL     1       7.520   5.961  25.135  0.00  0.00    +0.015 C 
ATOM     58  C   UNL     1       6.784   6.622  26.045  0.00  0.00    +0.092 C 
BRANCH  57  60
ATOM     59  C   UNL     1       9.764   6.909  25.822  0.00  0.00    +0.012 A 
ATOM     60  C   UNL     1       8.977   6.103  24.977  0.00  0.00    -0.021 A 
ATOM     61  C   UNL     1       9.614   5.380  23.957  0.00  0.00    +0.057 A 
ATOM     62  C   UNL     1      10.985   5.501  23.772  0.00  0.00    +0.159 A 
ATOM     63  C   UNL     1      11.749   6.321  24.597  0.00  0.00    +0.158 A 
ATOM     64  C   UNL     1      11.146   7.021  25.630  0.00  0.00    +0.050 A 
BRANCH  63  65
ATOM     65  O   UNL     1      13.091   6.403  24.348  0.00  0.00    -0.503 OA
ATOM     66  H   UNL     1      13.552   6.497  25.200  0.00  0.00    +0.292 HD
ENDBRANCH  63  65
BRANCH  62  67
ATOM     67  O   UNL     1      11.587   4.807  22.760  0.00  0.00    -0.503 OA
ATOM     68  H   UNL     1      12.510   4.683  23.062  0.00  0.00    +0.292 HD
ENDBRANCH  62  67
ENDBRANCH  57  60
ENDBRANCH  55  58
ENDBRANCH  54  55
ENDBRANCH  53  54
ENDBRANCH  41  53
ENDBRANCH  40  43
ENDBRANCH  39  40
ENDBRANCH   1  39
TORSDOF 23
ENDMDL
MODEL 8
REMARK VINA RESULT:      -7.2      2.383      9.523
REMARK  Name = 
REMARK  23 active torsions:
REMARK  status: ('A' for Active; 'I' for Inactive)
REMARK    1  A    between atoms: C_3  and  O_62
REMARK    2  A    between atoms: C_4  and  O_61
REMARK    3  A    between atoms: C_6  and  C_7
REMARK    4  A    between atoms: C_8  and  C_9
REMARK    5  A    between atoms: C_9  and  O_11
REMARK    6  A    between atoms: O_11  and  C_12
REMARK    7  A    between atoms: C_12  and  C_13
REMARK    8  A    between atoms: C_14  and  O_60
REMARK    9  A    between atoms: C_16  and  O_59
REMARK   10  A    between atoms: C_18  and  O_58
REMARK   11  A    between atoms: C_19  and  O_22
REMARK   12  A    between atoms: O_22  and  C_23
REMARK   13  A    between atoms: C_23  and  C_24
REMARK   14  A    between atoms: C_25  and  O_57
REMARK   15  A    between atoms: C_27  and  O_56
REMARK   16  A    between atoms: C_29  and  O_55
REMARK   17  A    between atoms: C_30  and  O_33
REMARK   18  A    between atoms: O_33  and  C_34
REMARK   19  A    between atoms: C_35  and  C_47
REMARK   20  A    between atoms: C_39  and  O_46
REMARK   21  A    between atoms: C_41  and  O_45
REMARK   22  A    between atoms: C_49  and  O_54
REMARK   23  A    between atoms: C_50  and  O_53
REMARK                            x       y       z     vdW  Elec       q    Type
REMARK                         _______ _______ _______ _____ _____    ______ ____
ROOT
ATOM      1  C   UNL     1       6.409   0.883  27.491  0.00  0.00    +0.179 C 
ATOM      2  O   UNL     1       6.169  -0.392  28.116  0.00  0.00    -0.331 OA
ATOM      3  C   UNL     1       5.270  -1.272  27.393  0.00  0.00    +0.340 C 
ATOM      4  C   UNL     1       3.906  -0.560  27.209  0.00  0.00    +0.214 C 
ATOM      5  C   UNL     1       4.092   0.781  26.492  0.00  0.00    +0.180 C 
ATOM      6  C   UNL     1       5.095   1.642  27.263  0.00  0.00    +0.177 C 
ENDROOT
BRANCH   6   7
ATOM      7  O   UNL     1       5.294   2.888  26.587  0.00  0.00    -0.386 OA
ATOM      8  H   UNL     1       4.614   3.504  26.910  0.00  0.00    +0.210 HD
ENDBRANCH   6   7
BRANCH   5   9
ATOM      9  O   UNL     1       2.847   1.493  26.386  0.00  0.00    -0.386 OA
ATOM     10  H   UNL     1       2.319   1.186  27.148  0.00  0.00    +0.210 HD
ENDBRANCH   5   9
BRANCH   4  11
ATOM     11  O   UNL     1       3.312  -0.338  28.513  0.00  0.00    -0.383 OA
ATOM     12  H   UNL     1       3.059   0.604  28.552  0.00  0.00    +0.210 HD
ENDBRANCH   4  11
BRANCH   3  13
ATOM     13  O   UNL     1       5.110  -2.449  28.213  0.00  0.00    -0.453 OA
BRANCH  13  14
ATOM     14  C   UNL     1       4.423  -3.549  27.718  0.00  0.00    +0.214 A 
ATOM     15  C   UNL     1       3.036  -3.886  28.180  0.00  0.00    +0.238 A 
ATOM     16  O   UNL     1       2.360  -3.085  28.817  0.00  0.00    -0.283 OA
ATOM     17  C   UNL     1       2.518  -5.227  27.836  0.00  0.00    +0.109 A 
ATOM     18  C   UNL     1       3.173  -5.919  26.823  0.00  0.00    +0.147 A 
ATOM     19  C   UNL     1       2.681  -7.143  26.362  0.00  0.00    +0.092 A 
ATOM     20  C   UNL     1       1.548  -7.688  26.957  0.00  0.00    +0.124 A 
ATOM     21  C   UNL     1       0.919  -7.042  28.015  0.00  0.00    +0.091 A 
ATOM     22  O   UNL     1       4.322  -5.463  26.237  0.00  0.00    -0.451 OA
ATOM     23  C   UNL     1       1.408  -5.811  28.459  0.00  0.00    +0.135 A 
ATOM     24  C   UNL     1       4.984  -4.379  26.809  0.00  0.00    +0.181 A 
BRANCH  24  25
ATOM     25  C   UNL     1       6.412  -4.305  26.377  0.00  0.00    +0.025 A 
ATOM     26  C   UNL     1       6.922  -3.050  25.976  0.00  0.00    +0.015 A 
ATOM     27  C   UNL     1       8.199  -2.920  25.422  0.00  0.00    +0.050 A 
ATOM     28  C   UNL     1       8.984  -4.048  25.277  0.00  0.00    +0.158 A 
ATOM     29  C   UNL     1       8.541  -5.280  25.750  0.00  0.00    +0.159 A 
ATOM     30  C   UNL     1       7.266  -5.419  26.300  0.00  0.00    +0.060 A 
BRANCH  29  31
ATOM     31  O   UNL     1       9.403  -6.338  25.642  0.00  0.00    -0.503 OA
ATOM     32  H   UNL     1      10.168  -6.154  26.215  0.00  0.00    +0.292 HD
ENDBRANCH  29  31
BRANCH  28  33
ATOM     33  O   UNL     1      10.193  -3.943  24.655  0.00  0.00    -0.503 OA
ATOM     34  H   UNL     1       9.987  -4.028  23.703  0.00  0.00    +0.292 HD
ENDBRANCH  28  33
ENDBRANCH  24  25
BRANCH  23  35
ATOM     35  O   UNL     1       0.801  -5.208  29.524  0.00  0.00    -0.506 OA
ATOM     36  H   UNL     1       0.692  -4.260  29.353  0.00  0.00    +0.292 HD
ENDBRANCH  23  35
BRANCH  20  37
ATOM     37  O   UNL     1       1.021  -8.874  26.539  0.00  0.00    -0.507 OA
ATOM     38  H   UNL     1       0.052  -8.824  26.575  0.00  0.00    +0.292 HD
ENDBRANCH  20  37
ENDBRANCH  13  14
ENDBRANCH   3  13
BRANCH   1  39
ATOM     39  C   UNL     1       7.326   0.796  26.252  0.00  0.00    +0.197 C 
BRANCH  39  40
ATOM     40  O   UNL     1       6.780   1.513  25.152  0.00  0.00    -0.346 OA
BRANCH  40  43
ATOM     41  C   UNL     1      10.154   1.924  23.906  0.00  0.00    +0.190 C 
ATOM     42  O   UNL     1       9.015   1.509  24.673  0.00  0.00    -0.339 OA
ATOM     43  C   UNL     1       7.744   1.988  24.210  0.00  0.00    +0.282 C 
ATOM     44  C   UNL     1       7.751   3.530  24.170  0.00  0.00    +0.201 C 
ATOM     45  C   UNL     1       8.890   4.009  23.274  0.00  0.00    +0.179 C 
ATOM     46  C   UNL     1      10.222   3.460  23.793  0.00  0.00    +0.178 C 
BRANCH  46  47
ATOM     47  O   UNL     1      11.274   3.897  22.928  0.00  0.00    -0.386 OA
ATOM     48  H   UNL     1      12.108   3.804  23.425  0.00  0.00    +0.210 HD
ENDBRANCH  46  47
BRANCH  45  49
ATOM     49  O   UNL     1       8.922   5.435  23.213  0.00  0.00    -0.386 OA
ATOM     50  H   UNL     1       8.701   5.679  22.299  0.00  0.00    +0.210 HD
ENDBRANCH  45  49
BRANCH  44  51
ATOM     51  O   UNL     1       7.910   4.052  25.507  0.00  0.00    -0.384 OA
ATOM     52  H   UNL     1       8.221   3.316  26.074  0.00  0.00    +0.210 HD
ENDBRANCH  44  51
BRANCH  41  53
ATOM     53  C   UNL     1      10.229   1.196  22.549  0.00  0.00    +0.266 C 
BRANCH  53  54
ATOM     54  O   UNL     1       9.852  -0.187  22.722  0.00  0.00    -0.459 OA
BRANCH  54  55
ATOM     55  C   UNL     1       9.139  -0.753  21.715  0.00  0.00    +0.332 C 
ATOM     56  O   UNL     1       9.021  -0.326  20.579  0.00  0.00    -0.246 OA
BRANCH  55  58
ATOM     57  C   UNL     1       7.307  -2.374  21.863  0.00  0.00    +0.015 C 
ATOM     58  C   UNL     1       8.550  -2.012  22.223  0.00  0.00    +0.092 C 
BRANCH  57  60
ATOM     59  C   UNL     1       7.313  -4.878  22.234  0.00  0.00    +0.012 A 
ATOM     60  C   UNL     1       6.655  -3.633  22.262  0.00  0.00    -0.021 A 
ATOM     61  C   UNL     1       5.329  -3.587  22.717  0.00  0.00    +0.057 A 
ATOM     62  C   UNL     1       4.680  -4.757  23.088  0.00  0.00    +0.159 A 
ATOM     63  C   UNL     1       5.332  -5.985  23.032  0.00  0.00    +0.158 A 
ATOM     64  C   UNL     1       6.652  -6.052  22.615  0.00  0.00    +0.050 A 
BRANCH  63  65
ATOM     65  O   UNL     1       4.628  -7.098  23.399  0.00  0.00    -0.503 OA
ATOM     66  H   UNL     1       3.695  -6.959  23.157  0.00  0.00    +0.292 HD
ENDBRANCH  63  65
BRANCH  62  67
ATOM     67  O   UNL     1       3.381  -4.697  23.509  0.00  0.00    -0.503 OA
ATOM     68  H   UNL     1       3.377  -4.000  24.196  0.00  0.00    +0.292 HD
ENDBRANCH  62  67
ENDBRANCH  57  60
ENDBRANCH  55  58
ENDBRANCH  54  55
ENDBRANCH  53  54
ENDBRANCH  41  53
ENDBRANCH  40  43
ENDBRANCH  39  40
ENDBRANCH   1  39
TORSDOF 23
ENDMDL
MODEL 9
REMARK VINA RESULT:      -7.0      2.141      6.368
REMARK  Name = 
REMARK  23 active torsions:
REMARK  status: ('A' for Active; 'I' for Inactive)
REMARK    1  A    between atoms: C_3  and  O_62
REMARK    2  A    between atoms: C_4  and  O_61
REMARK    3  A    between atoms: C_6  and  C_7
REMARK    4  A    between atoms: C_8  and  C_9
REMARK    5  A    between atoms: C_9  and  O_11
REMARK    6  A    between atoms: O_11  and  C_12
REMARK    7  A    between atoms: C_12  and  C_13
REMARK    8  A    between atoms: C_14  and  O_60
REMARK    9  A    between atoms: C_16  and  O_59
REMARK   10  A    between atoms: C_18  and  O_58
REMARK   11  A    between atoms: C_19  and  O_22
REMARK   12  A    between atoms: O_22  and  C_23
REMARK   13  A    between atoms: C_23  and  C_24
REMARK   14  A    between atoms: C_25  and  O_57
REMARK   15  A    between atoms: C_27  and  O_56
REMARK   16  A    between atoms: C_29  and  O_55
REMARK   17  A    between atoms: C_30  and  O_33
REMARK   18  A    between atoms: O_33  and  C_34
REMARK   19  A    between atoms: C_35  and  C_47
REMARK   20  A    between atoms: C_39  and  O_46
REMARK   21  A    between atoms: C_41  and  O_45
REMARK   22  A    between atoms: C_49  and  O_54
REMARK   23  A    between atoms: C_50  and  O_53
REMARK                            x       y       z     vdW  Elec       q    Type
REMARK                         _______ _______ _______ _____ _____    ______ ____
ROOT
ATOM      1  C   UNL     1       4.883  -0.802  26.959  0.00  0.00    +0.179 C 
ATOM      2  O   UNL     1       5.305  -0.003  25.838  0.00  0.00    -0.331 OA
ATOM      3  C   UNL     1       6.571   0.684  26.013  0.00  0.00    +0.340 C 
ATOM      4  C   UNL     1       6.477   1.607  27.254  0.00  0.00    +0.214 C 
ATOM      5  C   UNL     1       6.089   0.798  28.497  0.00  0.00    +0.180 C 
ATOM      6  C   UNL     1       4.781   0.047  28.234  0.00  0.00    +0.177 C 
ENDROOT
BRANCH   6   7
ATOM      7  O   UNL     1       4.423  -0.730  29.381  0.00  0.00    -0.386 OA
ATOM      8  H   UNL     1       3.737  -0.236  29.863  0.00  0.00    +0.210 HD
ENDBRANCH   6   7
BRANCH   5   9
ATOM      9  O   UNL     1       5.917   1.652  29.641  0.00  0.00    -0.386 OA
ATOM     10  H   UNL     1       5.979   1.054  30.410  0.00  0.00    +0.210 HD
ENDBRANCH   5   9
BRANCH   4  11
ATOM     11  O   UNL     1       5.480   2.628  27.006  0.00  0.00    -0.383 OA
ATOM     12  H   UNL     1       4.708   2.413  27.563  0.00  0.00    +0.210 HD
ENDBRANCH   4  11
BRANCH   3  13
ATOM     13  O   UNL     1       6.771   1.472  24.821  0.00  0.00    -0.453 OA
BRANCH  13  14
ATOM     14  C   UNL     1       7.993   2.093  24.600  0.00  0.00    +0.214 A 
ATOM     15  C   UNL     1       8.160   3.578  24.742  0.00  0.00    +0.238 A 
ATOM     16  O   UNL     1       7.309   4.269  25.290  0.00  0.00    -0.283 OA
ATOM     17  C   UNL     1       9.396   4.172  24.192  0.00  0.00    +0.109 A 
ATOM     18  C   UNL     1      10.454   3.308  23.929  0.00  0.00    +0.147 A 
ATOM     19  C   UNL     1      11.694   3.802  23.513  0.00  0.00    +0.092 A 
ATOM     20  C   UNL     1      11.849   5.171  23.320  0.00  0.00    +0.124 A 
ATOM     21  C   UNL     1      10.784   6.042  23.514  0.00  0.00    +0.091 A 
ATOM     22  O   UNL     1      10.347   1.949  24.046  0.00  0.00    -0.451 OA
ATOM     23  C   UNL     1       9.554   5.541  23.946  0.00  0.00    +0.135 A 
ATOM     24  C   UNL     1       9.085   1.387  24.226  0.00  0.00    +0.181 A 
BRANCH  24  25
ATOM     25  C   UNL     1       9.060  -0.061  23.861  0.00  0.00    +0.025 A 
ATOM     26  C   UNL     1       8.662  -0.410  22.551  0.00  0.00    +0.015 A 
ATOM     27  C   UNL     1       8.472  -1.743  22.173  0.00  0.00    +0.050 A 
ATOM     28  C   UNL     1       8.692  -2.740  23.103  0.00  0.00    +0.158 A 
ATOM     29  C   UNL     1       9.173  -2.429  24.371  0.00  0.00    +0.159 A 
ATOM     30  C   UNL     1       9.362  -1.101  24.758  0.00  0.00    +0.060 A 
BRANCH  29  31
ATOM     31  O   UNL     1       9.440  -3.473  25.213  0.00  0.00    -0.503 OA
ATOM     32  H   UNL     1      10.225  -3.236  25.737  0.00  0.00    +0.292 HD
ENDBRANCH  29  31
BRANCH  28  33
ATOM     33  O   UNL     1       8.421  -4.035  22.768  0.00  0.00    -0.503 OA
ATOM     34  H   UNL     1       7.447  -4.072  22.701  0.00  0.00    +0.292 HD
ENDBRANCH  28  33
ENDBRANCH  24  25
BRANCH  23  35
ATOM     35  O   UNL     1       8.508   6.408  24.095  0.00  0.00    -0.506 OA
ATOM     36  H   UNL     1       8.317   6.542  25.037  0.00  0.00    +0.292 HD
ENDBRANCH  23  35
BRANCH  20  37
ATOM     37  O   UNL     1      13.039   5.706  22.925  0.00  0.00    -0.507 OA
ATOM     38  H   UNL     1      13.750   5.066  23.094  0.00  0.00    +0.292 HD
ENDBRANCH  20  37
ENDBRANCH  13  14
ENDBRANCH   3  13
BRANCH   1  39
ATOM     39  C   UNL     1       5.686  -2.110  27.119  0.00  0.00    +0.197 C 
BRANCH  39  40
ATOM     40  O   UNL     1       5.306  -2.811  28.297  0.00  0.00    -0.346 OA
BRANCH  40  43
ATOM     41  C   UNL     1       2.624  -5.117  29.066  0.00  0.00    +0.190 C 
ATOM     42  O   UNL     1       3.497  -3.979  29.063  0.00  0.00    -0.339 OA
ATOM     43  C   UNL     1       4.531  -3.989  28.067  0.00  0.00    +0.282 C 
ATOM     44  C   UNL     1       5.401  -5.253  28.231  0.00  0.00    +0.201 C 
ATOM     45  C   UNL     1       4.517  -6.493  28.133  0.00  0.00    +0.179 C 
ATOM     46  C   UNL     1       3.419  -6.431  29.199  0.00  0.00    +0.178 C 
BRANCH  46  47
ATOM     47  O   UNL     1       2.586  -7.588  29.076  0.00  0.00    -0.386 OA
ATOM     48  H   UNL     1       2.852  -8.207  29.781  0.00  0.00    +0.210 HD
ENDBRANCH  46  47
BRANCH  45  49
ATOM     49  O   UNL     1       5.294  -7.682  28.278  0.00  0.00    -0.386 OA
ATOM     50  H   UNL     1       5.958  -7.498  28.963  0.00  0.00    +0.210 HD
ENDBRANCH  45  49
BRANCH  44  51
ATOM     51  O   UNL     1       6.077  -5.218  29.507  0.00  0.00    -0.384 OA
ATOM     52  H   UNL     1       5.987  -6.106  29.911  0.00  0.00    +0.210 HD
ENDBRANCH  44  51
BRANCH  41  53
ATOM     53  C   UNL     1       1.651  -5.097  27.870  0.00  0.00    +0.266 C 
BRANCH  53  54
ATOM     54  O   UNL     1       1.069  -3.782  27.743  0.00  0.00    -0.459 OA
BRANCH  54  55
ATOM     55  C   UNL     1       1.193  -3.177  26.534  0.00  0.00    +0.332 C 
ATOM     56  O   UNL     1       0.781  -2.070  26.229  0.00  0.00    -0.246 OA
BRANCH  55  58
ATOM     57  C   UNL     1       3.079  -3.660  25.045  0.00  0.00    +0.015 C 
ATOM     58  C   UNL     1       1.953  -4.083  25.644  0.00  0.00    +0.092 C 
BRANCH  57  60
ATOM     59  C   UNL     1       4.175  -5.863  24.454  0.00  0.00    +0.012 A 
ATOM     60  C   UNL     1       3.939  -4.499  24.194  0.00  0.00    -0.021 A 
ATOM     61  C   UNL     1       4.526  -3.923  23.058  0.00  0.00    +0.057 A 
ATOM     62  C   UNL     1       5.353  -4.683  22.241  0.00  0.00    +0.159 A 
ATOM     63  C   UNL     1       5.600  -6.023  22.522  0.00  0.00    +0.158 A 
ATOM     64  C   UNL     1       5.007  -6.622  23.623  0.00  0.00    +0.050 A 
BRANCH  63  65
ATOM     65  O   UNL     1       6.436  -6.706  21.684  0.00  0.00    -0.503 OA
ATOM     66  H   UNL     1       5.972  -6.842  20.838  0.00  0.00    +0.292 HD
ENDBRANCH  63  65
BRANCH  62  67
ATOM     67  O   UNL     1       5.933  -4.100  21.150  0.00  0.00    -0.503 OA
ATOM     68  H   UNL     1       5.666  -4.666  20.398  0.00  0.00    +0.292 HD
ENDBRANCH  62  67
ENDBRANCH  57  60
ENDBRANCH  55  58
ENDBRANCH  54  55
ENDBRANCH  53  54
ENDBRANCH  41  53
ENDBRANCH  40  43
ENDBRANCH  39  40
ENDBRANCH   1  39
TORSDOF 23
ENDMDL
