MODEL 1
REMARK VINA RESULT:      -7.1      0.000      0.000
REMARK  Name = 
REMARK  6 active torsions:
REMARK  status: ('A' for Active; 'I' for Inactive)
REMARK    1  A    between atoms: C_3  and  O_22
REMARK    2  A    between atoms: C_4  and  O_21
REMARK    3  A    between atoms: C_6  and  C_7
REMARK    4  A    between atoms: C_8  and  O_20
REMARK    5  A    between atoms: C_12  and  O_19
REMARK    6  A    between atoms: C_14  and  O_18
REMARK                            x       y       z     vdW  Elec       q    Type
REMARK                         _______ _______ _______ _____ _____    ______ ____
ROOT
ATOM      1  C   UNL     1       6.828  -2.599  23.222  0.00  0.00    +0.181 A 
ATOM      2  O   UNL     1       7.202  -2.945  24.522  0.00  0.00    -0.451 OA
ATOM      3  C   UNL     1       6.652  -4.066  25.099  0.00  0.00    +0.147 A 
ATOM      4  C   UNL     1       5.643  -4.806  24.495  0.00  0.00    +0.109 A 
ATOM      5  C   UNL     1       5.103  -5.931  25.136  0.00  0.00    +0.135 A 
ATOM      6  C   UNL     1       5.580  -6.323  26.382  0.00  0.00    +0.091 A 
ATOM      7  C   UNL     1       6.597  -5.583  26.977  0.00  0.00    +0.124 A 
ATOM      8  C   UNL     1       5.182  -4.402  23.168  0.00  0.00    +0.238 A 
ATOM      9  O   UNL     1       4.264  -5.011  22.629  0.00  0.00    -0.283 OA
ATOM     10  C   UNL     1       7.136  -4.458  26.349  0.00  0.00    +0.092 A 
ATOM     11  C   UNL     1       5.903  -3.280  22.509  0.00  0.00    +0.208 A 
ENDROOT
BRANCH   1  13
ATOM     12  C   UNL     1       8.784  -1.589  21.953  0.00  0.00    +0.015 A 
ATOM     13  C   UNL     1       7.582  -1.431  22.677  0.00  0.00    +0.025 A 
ATOM     14  C   UNL     1       7.112  -0.124  22.881  0.00  0.00    +0.060 A 
ATOM     15  C   UNL     1       7.868   0.965  22.457  0.00  0.00    +0.159 A 
ATOM     16  C   UNL     1       9.097   0.788  21.830  0.00  0.00    +0.158 A 
ATOM     17  C   UNL     1       9.557  -0.489  21.557  0.00  0.00    +0.050 A 
BRANCH  15  18
ATOM     18  O   UNL     1       7.402   2.231  22.679  0.00  0.00    -0.503 OA
ATOM     19  H   UNL     1       6.445   2.182  22.481  0.00  0.00    +0.292 HD
ENDBRANCH  15  18
BRANCH  16  20
ATOM     20  O   UNL     1       9.816   1.902  21.501  0.00  0.00    -0.503 OA
ATOM     21  H   UNL     1      10.104   1.821  20.575  0.00  0.00    +0.292 HD
ENDBRANCH  16  20
ENDBRANCH   1  13
BRANCH   5  22
ATOM     22  O   UNL     1       4.112  -6.700  24.589  0.00  0.00    -0.506 OA
ATOM     23  H   UNL     1       3.258  -6.437  25.002  0.00  0.00    +0.292 HD
ENDBRANCH   5  22
BRANCH   7  24
ATOM     24  O   UNL     1       7.097  -5.936  28.196  0.00  0.00    -0.507 OA
ATOM     25  H   UNL     1       8.060  -6.059  28.118  0.00  0.00    +0.292 HD
ENDBRANCH   7  24
BRANCH  11  26
ATOM     26  O   UNL     1       5.581  -3.050  21.184  0.00  0.00    -0.501 OA
ATOM     27  H   UNL     1       4.868  -3.661  20.934  0.00  0.00    +0.292 HD
ENDBRANCH  11  26
TORSDOF 6
ENDMDL
MODEL 2
REMARK VINA RESULT:      -7.0      1.197      2.874
REMARK  Name = 
REMARK  6 active torsions:
REMARK  status: ('A' for Active; 'I' for Inactive)
REMARK    1  A    between atoms: C_3  and  O_22
REMARK    2  A    between atoms: C_4  and  O_21
REMARK    3  A    between atoms: C_6  and  C_7
REMARK    4  A    between atoms: C_8  and  O_20
REMARK    5  A    between atoms: C_12  and  O_19
REMARK    6  A    between atoms: C_14  and  O_18
REMARK                            x       y       z     vdW  Elec       q    Type
REMARK                         _______ _______ _______ _____ _____    ______ ____
ROOT
ATOM      1  C   UNL     1       7.540  -2.588  23.764  0.00  0.00    +0.181 A 
ATOM      2  O   UNL     1       6.596  -3.313  23.034  0.00  0.00    -0.451 OA
ATOM      3  C   UNL     1       5.966  -4.380  23.630  0.00  0.00    +0.147 A 
ATOM      4  C   UNL     1       6.314  -4.852  24.890  0.00  0.00    +0.109 A 
ATOM      5  C   UNL     1       5.651  -5.957  25.445  0.00  0.00    +0.135 A 
ATOM      6  C   UNL     1       4.631  -6.587  24.742  0.00  0.00    +0.091 A 
ATOM      7  C   UNL     1       4.281  -6.103  23.485  0.00  0.00    +0.124 A 
ATOM      8  C   UNL     1       7.363  -4.152  25.630  0.00  0.00    +0.238 A 
ATOM      9  O   UNL     1       7.720  -4.572  26.725  0.00  0.00    -0.283 OA
ATOM     10  C   UNL     1       4.939  -5.008  22.922  0.00  0.00    +0.092 A 
ATOM     11  C   UNL     1       7.915  -2.913  25.021  0.00  0.00    +0.208 A 
ENDROOT
BRANCH   1  13
ATOM     12  C   UNL     1       9.189  -1.464  22.192  0.00  0.00    +0.015 A 
ATOM     13  C   UNL     1       8.062  -1.391  23.038  0.00  0.00    +0.025 A 
ATOM     14  C   UNL     1       7.438  -0.142  23.187  0.00  0.00    +0.060 A 
ATOM     15  C   UNL     1       7.986   0.989  22.587  0.00  0.00    +0.159 A 
ATOM     16  C   UNL     1       9.154   0.910  21.835  0.00  0.00    +0.158 A 
ATOM     17  C   UNL     1       9.755  -0.318  21.617  0.00  0.00    +0.050 A 
BRANCH  15  18
ATOM     18  O   UNL     1       7.375   2.199  22.758  0.00  0.00    -0.503 OA
ATOM     19  H   UNL     1       7.981   2.845  22.341  0.00  0.00    +0.292 HD
ENDBRANCH  15  18
BRANCH  16  20
ATOM     20  O   UNL     1       9.672   2.069  21.332  0.00  0.00    -0.503 OA
ATOM     21  H   UNL     1       8.990   2.502  20.790  0.00  0.00    +0.292 HD
ENDBRANCH  16  20
ENDBRANCH   1  13
BRANCH   5  22
ATOM     22  O   UNL     1       5.948  -6.462  26.682  0.00  0.00    -0.506 OA
ATOM     23  H   UNL     1       5.156  -6.348  27.257  0.00  0.00    +0.292 HD
ENDBRANCH   5  22
BRANCH   7  24
ATOM     24  O   UNL     1       3.282  -6.688  22.765  0.00  0.00    -0.507 OA
ATOM     25  H   UNL     1       3.676  -7.297  22.115  0.00  0.00    +0.292 HD
ENDBRANCH   7  24
BRANCH  11  26
ATOM     26  O   UNL     1       8.756  -2.167  25.827  0.00  0.00    -0.501 OA
ATOM     27  H   UNL     1       8.401  -2.179  26.731  0.00  0.00    +0.292 HD
ENDBRANCH  11  26
TORSDOF 6
ENDMDL
MODEL 3
REMARK VINA RESULT:      -6.9      1.952      3.462
REMARK  Name = 
REMARK  6 active torsions:
REMARK  status: ('A' for Active; 'I' for Inactive)
REMARK    1  A    between atoms: C_3  and  O_22
REMARK    2  A    between atoms: C_4  and  O_21
REMARK    3  A    between atoms: C_6  and  C_7
REMARK    4  A    between atoms: C_8  and  O_20
REMARK    5  A    between atoms: C_12  and  O_19
REMARK    6  A    between atoms: C_14  and  O_18
REMARK                            x       y       z     vdW  Elec       q    Type
REMARK                         _______ _______ _______ _____ _____    ______ ____
ROOT
ATOM      1  C   UNL     1       8.432  -1.772  24.142  0.00  0.00    +0.181 A 
ATOM      2  O   UNL     1       8.040  -2.522  23.032  0.00  0.00    -0.451 OA
ATOM      3  C   UNL     1       7.282  -3.654  23.225  0.00  0.00    +0.147 A 
ATOM      4  C   UNL     1       6.991  -4.160  24.486  0.00  0.00    +0.109 A 
ATOM      5  C   UNL     1       6.229  -5.329  24.625  0.00  0.00    +0.135 A 
ATOM      6  C   UNL     1       5.749  -5.991  23.501  0.00  0.00    +0.091 A 
ATOM      7  C   UNL     1       6.036  -5.474  22.241  0.00  0.00    +0.124 A 
ATOM      8  C   UNL     1       7.471  -3.429  25.656  0.00  0.00    +0.238 A 
ATOM      9  O   UNL     1       7.266  -3.874  26.780  0.00  0.00    -0.283 OA
ATOM     10  C   UNL     1       6.799  -4.314  22.092  0.00  0.00    +0.092 A 
ATOM     11  C   UNL     1       8.154  -2.130  25.416  0.00  0.00    +0.208 A 
ENDROOT
BRANCH   1  13
ATOM     12  C   UNL     1      10.266  -0.055  24.518  0.00  0.00    +0.015 A 
ATOM     13  C   UNL     1       9.151  -0.513  23.784  0.00  0.00    +0.025 A 
ATOM     14  C   UNL     1       8.723   0.265  22.696  0.00  0.00    +0.060 A 
ATOM     15  C   UNL     1       9.334   1.487  22.427  0.00  0.00    +0.159 A 
ATOM     16  C   UNL     1      10.371   1.964  23.223  0.00  0.00    +0.158 A 
ATOM     17  C   UNL     1      10.857   1.190  24.263  0.00  0.00    +0.050 A 
BRANCH  15  18
ATOM     18  O   UNL     1       8.893   2.238  21.374  0.00  0.00    -0.503 OA
ATOM     19  H   UNL     1       8.433   2.997  21.784  0.00  0.00    +0.292 HD
ENDBRANCH  15  18
BRANCH  16  20
ATOM     20  O   UNL     1      10.878   3.201  22.943  0.00  0.00    -0.503 OA
ATOM     21  H   UNL     1      11.845   3.166  23.038  0.00  0.00    +0.292 HD
ENDBRANCH  16  20
ENDBRANCH   1  13
BRANCH   5  22
ATOM     22  O   UNL     1       5.908  -5.871  25.840  0.00  0.00    -0.506 OA
ATOM     23  H   UNL     1       5.307  -6.637  25.684  0.00  0.00    +0.292 HD
ENDBRANCH   5  22
BRANCH   7  24
ATOM     24  O   UNL     1       5.579  -6.088  21.113  0.00  0.00    -0.507 OA
ATOM     25  H   UNL     1       5.786  -5.529  20.343  0.00  0.00    +0.292 HD
ENDBRANCH   7  24
BRANCH  11  26
ATOM     26  O   UNL     1       8.419  -1.369  26.539  0.00  0.00    -0.501 OA
ATOM     27  H   UNL     1       9.074  -1.842  27.080  0.00  0.00    +0.292 HD
ENDBRANCH  11  26
TORSDOF 6
ENDMDL
MODEL 4
REMARK VINA RESULT:      -6.8      2.310      3.147
REMARK  Name = 
REMARK  6 active torsions:
REMARK  status: ('A' for Active; 'I' for Inactive)
REMARK    1  A    between atoms: C_3  and  O_22
REMARK    2  A    between atoms: C_4  and  O_21
REMARK    3  A    between atoms: C_6  and  C_7
REMARK    4  A    between atoms: C_8  and  O_20
REMARK    5  A    between atoms: C_12  and  O_19
REMARK    6  A    between atoms: C_14  and  O_18
REMARK                            x       y       z     vdW  Elec       q    Type
REMARK                         _______ _______ _______ _____ _____    ______ ____
ROOT
ATOM      1  C   UNL     1       7.772  -0.402  24.542  0.00  0.00    +0.181 A 
ATOM      2  O   UNL     1       8.676  -1.434  24.799  0.00  0.00    -0.451 OA
ATOM      3  C   UNL     1       8.196  -2.708  24.996  0.00  0.00    +0.147 A 
ATOM      4  C   UNL     1       6.839  -2.998  25.076  0.00  0.00    +0.109 A 
ATOM      5  C   UNL     1       6.403  -4.313  25.297  0.00  0.00    +0.135 A 
ATOM      6  C   UNL     1       7.327  -5.344  25.430  0.00  0.00    +0.091 A 
ATOM      7  C   UNL     1       8.683  -5.049  25.339  0.00  0.00    +0.124 A 
ATOM      8  C   UNL     1       5.883  -1.907  24.895  0.00  0.00    +0.238 A 
ATOM      9  O   UNL     1       4.681  -2.125  25.003  0.00  0.00    -0.283 OA
ATOM     10  C   UNL     1       9.126  -3.742  25.125  0.00  0.00    +0.092 A 
ATOM     11  C   UNL     1       6.431  -0.573  24.532  0.00  0.00    +0.208 A 
ENDROOT
BRANCH   1  13
ATOM     12  C   UNL     1       8.314   2.019  25.093  0.00  0.00    +0.015 A 
ATOM     13  C   UNL     1       8.432   0.903  24.236  0.00  0.00    +0.025 A 
ATOM     14  C   UNL     1       9.192   1.057  23.066  0.00  0.00    +0.060 A 
ATOM     15  C   UNL     1       9.723   2.302  22.736  0.00  0.00    +0.159 A 
ATOM     16  C   UNL     1       9.513   3.412  23.548  0.00  0.00    +0.158 A 
ATOM     17  C   UNL     1       8.822   3.276  24.740  0.00  0.00    +0.050 A 
BRANCH  15  18
ATOM     18  O   UNL     1      10.446   2.436  21.584  0.00  0.00    -0.503 OA
ATOM     19  H   UNL     1       9.799   2.292  20.865  0.00  0.00    +0.292 HD
ENDBRANCH  15  18
BRANCH  16  20
ATOM     20  O   UNL     1      10.005   4.615  23.129  0.00  0.00    -0.503 OA
ATOM     21  H   UNL     1       9.599   5.318  23.665  0.00  0.00    +0.292 HD
ENDBRANCH  16  20
ENDBRANCH   1  13
BRANCH   5  22
ATOM     22  O   UNL     1       5.082  -4.658  25.382  0.00  0.00    -0.506 OA
ATOM     23  H   UNL     1       4.949  -5.155  26.222  0.00  0.00    +0.292 HD
ENDBRANCH   5  22
BRANCH   7  24
ATOM     24  O   UNL     1       9.622  -6.030  25.457  0.00  0.00    -0.507 OA
ATOM     25  H   UNL     1      10.508  -5.628  25.415  0.00  0.00    +0.292 HD
ENDBRANCH   7  24
BRANCH  11  26
ATOM     26  O   UNL     1       5.502   0.385  24.174  0.00  0.00    -0.501 OA
ATOM     27  H   UNL     1       4.745   0.316  24.779  0.00  0.00    +0.292 HD
ENDBRANCH  11  26
TORSDOF 6
ENDMDL
MODEL 5
REMARK VINA RESULT:      -6.8      2.194      7.316
REMARK  Name = 
REMARK  6 active torsions:
REMARK  status: ('A' for Active; 'I' for Inactive)
REMARK    1  A    between atoms: C_3  and  O_22
REMARK    2  A    between atoms: C_4  and  O_21
REMARK    3  A    between atoms: C_6  and  C_7
REMARK    4  A    between atoms: C_8  and  O_20
REMARK    5  A    between atoms: C_12  and  O_19
REMARK    6  A    between atoms: C_14  and  O_18
REMARK                            x       y       z     vdW  Elec       q    Type
REMARK                         _______ _______ _______ _____ _____    ______ ____
ROOT
ATOM      1  C   UNL     1       7.889  -1.619  23.210  0.00  0.00    +0.181 A 
ATOM      2  O   UNL     1       7.056  -0.544  22.893  0.00  0.00    -0.451 OA
ATOM      3  C   UNL     1       7.593   0.721  22.834  0.00  0.00    +0.147 A 
ATOM      4  C   UNL     1       8.905   1.001  23.197  0.00  0.00    +0.109 A 
ATOM      5  C   UNL     1       9.396   2.313  23.135  0.00  0.00    +0.135 A 
ATOM      6  C   UNL     1       8.577   3.348  22.700  0.00  0.00    +0.091 A 
ATOM      7  C   UNL     1       7.267   3.060  22.329  0.00  0.00    +0.124 A 
ATOM      8  C   UNL     1       9.762  -0.107  23.613  0.00  0.00    +0.238 A 
ATOM      9  O   UNL     1      10.911   0.116  23.980  0.00  0.00    -0.283 OA
ATOM     10  C   UNL     1       6.767   1.758  22.393  0.00  0.00    +0.092 A 
ATOM     11  C   UNL     1       9.197  -1.479  23.520  0.00  0.00    +0.208 A 
ENDROOT
BRANCH   1  13
ATOM     12  C   UNL     1       6.928  -3.714  24.280  0.00  0.00    +0.015 A 
ATOM     13  C   UNL     1       7.205  -2.944  23.129  0.00  0.00    +0.025 A 
ATOM     14  C   UNL     1       6.820  -3.470  21.886  0.00  0.00    +0.060 A 
ATOM     15  C   UNL     1       6.272  -4.748  21.806  0.00  0.00    +0.159 A 
ATOM     16  C   UNL     1       6.097  -5.528  22.945  0.00  0.00    +0.158 A 
ATOM     17  C   UNL     1       6.407  -5.012  24.192  0.00  0.00    +0.050 A 
BRANCH  15  18
ATOM     18  O   UNL     1       5.919  -5.251  20.585  0.00  0.00    -0.503 OA
ATOM     19  H   UNL     1       5.257  -5.943  20.783  0.00  0.00    +0.292 HD
ENDBRANCH  15  18
BRANCH  16  20
ATOM     20  O   UNL     1       5.618  -6.797  22.786  0.00  0.00    -0.503 OA
ATOM     21  H   UNL     1       5.548  -6.983  21.834  0.00  0.00    +0.292 HD
ENDBRANCH  16  20
ENDBRANCH   1  13
BRANCH   5  22
ATOM     22  O   UNL     1      10.679   2.648  23.475  0.00  0.00    -0.506 OA
ATOM     23  H   UNL     1      11.234   1.836  23.410  0.00  0.00    +0.292 HD
ENDBRANCH   5  22
BRANCH   7  24
ATOM     24  O   UNL     1       6.432   4.045  21.891  0.00  0.00    -0.507 OA
ATOM     25  H   UNL     1       5.537   3.675  21.782  0.00  0.00    +0.292 HD
ENDBRANCH   7  24
BRANCH  11  26
ATOM     26  O   UNL     1      10.088  -2.515  23.728  0.00  0.00    -0.501 OA
ATOM     27  H   UNL     1       9.584  -3.343  23.791  0.00  0.00    +0.292 HD
ENDBRANCH  11  26
TORSDOF 6
ENDMDL
MODEL 6
REMARK VINA RESULT:      -6.7      2.054      6.987
REMARK  Name = 
REMARK  6 active torsions:
REMARK  status: ('A' for Active; 'I' for Inactive)
REMARK    1  A    between atoms: C_3  and  O_22
REMARK    2  A    between atoms: C_4  and  O_21
REMARK    3  A    between atoms: C_6  and  C_7
REMARK    4  A    between atoms: C_8  and  O_20
REMARK    5  A    between atoms: C_12  and  O_19
REMARK    6  A    between atoms: C_14  and  O_18
REMARK                            x       y       z     vdW  Elec       q    Type
REMARK                         _______ _______ _______ _____ _____    ______ ____
ROOT
ATOM      1  C   UNL     1       6.953  -2.565  23.993  0.00  0.00    +0.181 A 
ATOM      2  O   UNL     1       7.198  -1.598  23.017  0.00  0.00    -0.451 OA
ATOM      3  C   UNL     1       8.198  -0.677  23.225  0.00  0.00    +0.147 A 
ATOM      4  C   UNL     1       8.898  -0.582  24.422  0.00  0.00    +0.109 A 
ATOM      5  C   UNL     1       9.897   0.389  24.588  0.00  0.00    +0.135 A 
ATOM      6  C   UNL     1      10.202   1.264  23.552  0.00  0.00    +0.091 A 
ATOM      7  C   UNL     1       9.503   1.159  22.353  0.00  0.00    +0.124 A 
ATOM      8  C   UNL     1       8.590  -1.536  25.485  0.00  0.00    +0.238 A 
ATOM      9  O   UNL     1       9.161  -1.450  26.566  0.00  0.00    -0.283 OA
ATOM     10  C   UNL     1       8.504   0.199  22.180  0.00  0.00    +0.092 A 
ATOM     11  C   UNL     1       7.614  -2.614  25.172  0.00  0.00    +0.208 A 
ENDROOT
BRANCH   1  13
ATOM     12  C   UNL     1       4.606  -3.530  24.100  0.00  0.00    +0.015 A 
ATOM     13  C   UNL     1       5.922  -3.568  23.592  0.00  0.00    +0.025 A 
ATOM     14  C   UNL     1       6.244  -4.595  22.690  0.00  0.00    +0.060 A 
ATOM     15  C   UNL     1       5.309  -5.584  22.395  0.00  0.00    +0.159 A 
ATOM     16  C   UNL     1       4.048  -5.580  22.982  0.00  0.00    +0.158 A 
ATOM     17  C   UNL     1       3.680  -4.545  23.824  0.00  0.00    +0.050 A 
BRANCH  15  18
ATOM     18  O   UNL     1       5.646  -6.585  21.527  0.00  0.00    -0.503 OA
ATOM     19  H   UNL     1       6.059  -6.128  20.767  0.00  0.00    +0.292 HD
ENDBRANCH  15  18
BRANCH  16  20
ATOM     20  O   UNL     1       3.206  -6.618  22.698  0.00  0.00    -0.503 OA
ATOM     21  H   UNL     1       3.742  -7.394  22.462  0.00  0.00    +0.292 HD
ENDBRANCH  16  20
ENDBRANCH   1  13
BRANCH   5  22
ATOM     22  O   UNL     1      10.621   0.526  25.741  0.00  0.00    -0.506 OA
ATOM     23  H   UNL     1      11.495   0.917  25.508  0.00  0.00    +0.292 HD
ENDBRANCH   5  22
BRANCH   7  24
ATOM     24  O   UNL     1       9.776   1.993  21.310  0.00  0.00    -0.507 OA
ATOM     25  H   UNL     1      10.735   1.987  21.142  0.00  0.00    +0.292 HD
ENDBRANCH   7  24
BRANCH  11  26
ATOM     26  O   UNL     1       7.491  -3.612  26.121  0.00  0.00    -0.501 OA
ATOM     27  H   UNL     1       8.382  -3.861  26.418  0.00  0.00    +0.292 HD
ENDBRANCH  11  26
TORSDOF 6
ENDMDL
MODEL 7
REMARK VINA RESULT:      -6.7      2.019      3.705
REMARK  Name = 
REMARK  6 active torsions:
REMARK  status: ('A' for Active; 'I' for Inactive)
REMARK    1  A    between atoms: C_3  and  O_22
REMARK    2  A    between atoms: C_4  and  O_21
REMARK    3  A    between atoms: C_6  and  C_7
REMARK    4  A    between atoms: C_8  and  O_20
REMARK    5  A    between atoms: C_12  and  O_19
REMARK    6  A    between atoms: C_14  and  O_18
REMARK                            x       y       z     vdW  Elec       q    Type
REMARK                         _______ _______ _______ _____ _____    ______ ____
ROOT
ATOM      1  C   UNL     1       7.698  -3.589  25.266  0.00  0.00    +0.181 A 
ATOM      2  O   UNL     1       6.514  -3.841  24.570  0.00  0.00    -0.451 OA
ATOM      3  C   UNL     1       5.637  -4.779  25.061  0.00  0.00    +0.147 A 
ATOM      4  C   UNL     1       5.930  -5.584  26.155  0.00  0.00    +0.109 A 
ATOM      5  C   UNL     1       5.006  -6.540  26.604  0.00  0.00    +0.135 A 
ATOM      6  C   UNL     1       3.782  -6.686  25.961  0.00  0.00    +0.091 A 
ATOM      7  C   UNL     1       3.491  -5.871  24.872  0.00  0.00    +0.124 A 
ATOM      8  C   UNL     1       7.205  -5.389  26.841  0.00  0.00    +0.238 A 
ATOM      9  O   UNL     1       7.509  -6.113  27.783  0.00  0.00    -0.283 OA
ATOM     10  C   UNL     1       4.407  -4.921  24.415  0.00  0.00    +0.092 A 
ATOM     11  C   UNL     1       8.062  -4.264  26.380  0.00  0.00    +0.208 A 
ENDROOT
BRANCH   1  13
ATOM     12  C   UNL     1       8.709  -1.261  25.386  0.00  0.00    +0.015 A 
ATOM     13  C   UNL     1       8.502  -2.471  24.688  0.00  0.00    +0.025 A 
ATOM     14  C   UNL     1       9.075  -2.594  23.413  0.00  0.00    +0.060 A 
ATOM     15  C   UNL     1       9.739  -1.513  22.838  0.00  0.00    +0.159 A 
ATOM     16  C   UNL     1       9.849  -0.298  23.506  0.00  0.00    +0.158 A 
ATOM     17  C   UNL     1       9.352  -0.167  24.791  0.00  0.00    +0.050 A 
BRANCH  15  18
ATOM     18  O   UNL     1      10.276  -1.646  21.588  0.00  0.00    -0.503 OA
ATOM     19  H   UNL     1      10.170  -0.765  21.176  0.00  0.00    +0.292 HD
ENDBRANCH  15  18
BRANCH  16  20
ATOM     20  O   UNL     1      10.456   0.738  22.855  0.00  0.00    -0.503 OA
ATOM     21  H   UNL     1      10.845   0.400  22.030  0.00  0.00    +0.292 HD
ENDBRANCH  16  20
ENDBRANCH   1  13
BRANCH   5  22
ATOM     22  O   UNL     1       5.238  -7.357  27.677  0.00  0.00    -0.506 OA
ATOM     23  H   UNL     1       5.755  -6.847  28.343  0.00  0.00    +0.292 HD
ENDBRANCH   5  22
BRANCH   7  24
ATOM     24  O   UNL     1       2.300  -5.978  24.217  0.00  0.00    -0.507 OA
ATOM     25  H   UNL     1       2.258  -5.294  23.525  0.00  0.00    +0.292 HD
ENDBRANCH   7  24
BRANCH  11  26
ATOM     26  O   UNL     1       9.162  -3.979  27.168  0.00  0.00    -0.501 OA
ATOM     27  H   UNL     1       9.746  -4.754  27.167  0.00  0.00    +0.292 HD
ENDBRANCH  11  26
TORSDOF 6
ENDMDL
MODEL 8
REMARK VINA RESULT:      -6.7      2.226      7.330
REMARK  Name = 
REMARK  6 active torsions:
REMARK  status: ('A' for Active; 'I' for Inactive)
REMARK    1  A    between atoms: C_3  and  O_22
REMARK    2  A    between atoms: C_4  and  O_21
REMARK    3  A    between atoms: C_6  and  C_7
REMARK    4  A    between atoms: C_8  and  O_20
REMARK    5  A    between atoms: C_12  and  O_19
REMARK    6  A    between atoms: C_14  and  O_18
REMARK                            x       y       z     vdW  Elec       q    Type
REMARK                         _______ _______ _______ _____ _____    ______ ____
ROOT
ATOM      1  C   UNL     1       7.321  -4.282  25.637  0.00  0.00    +0.181 A 
ATOM      2  O   UNL     1       6.604  -3.142  25.267  0.00  0.00    -0.451 OA
ATOM      3  C   UNL     1       7.179  -2.246  24.396  0.00  0.00    +0.147 A 
ATOM      4  C   UNL     1       8.494  -2.356  23.961  0.00  0.00    +0.109 A 
ATOM      5  C   UNL     1       9.037  -1.403  23.086  0.00  0.00    +0.135 A 
ATOM      6  C   UNL     1       8.260  -0.341  22.638  0.00  0.00    +0.091 A 
ATOM      7  C   UNL     1       6.941  -0.242  23.070  0.00  0.00    +0.124 A 
ATOM      8  C   UNL     1       9.283  -3.501  24.412  0.00  0.00    +0.238 A 
ATOM      9  O   UNL     1      10.458  -3.601  24.078  0.00  0.00    -0.283 OA
ATOM     10  C   UNL     1       6.394  -1.182  23.945  0.00  0.00    +0.092 A 
ATOM     11  C   UNL     1       8.585  -4.530  25.228  0.00  0.00    +0.208 A 
ENDROOT
BRANCH   1  13
ATOM     12  C   UNL     1       5.509  -6.033  25.968  0.00  0.00    +0.015 A 
ATOM     13  C   UNL     1       6.540  -5.223  26.494  0.00  0.00    +0.025 A 
ATOM     14  C   UNL     1       6.809  -5.324  27.868  0.00  0.00    +0.060 A 
ATOM     15  C   UNL     1       6.014  -6.129  28.680  0.00  0.00    +0.159 A 
ATOM     16  C   UNL     1       4.943  -6.844  28.155  0.00  0.00    +0.158 A 
ATOM     17  C   UNL     1       4.692  -6.816  26.794  0.00  0.00    +0.050 A 
BRANCH  15  18
ATOM     18  O   UNL     1       6.282  -6.201  30.018  0.00  0.00    -0.503 OA
ATOM     19  H   UNL     1       6.632  -5.317  30.250  0.00  0.00    +0.292 HD
ENDBRANCH  15  18
BRANCH  16  20
ATOM     20  O   UNL     1       4.165  -7.560  29.020  0.00  0.00    -0.503 OA
ATOM     21  H   UNL     1       4.717  -8.243  29.438  0.00  0.00    +0.292 HD
ENDBRANCH  16  20
ENDBRANCH   1  13
BRANCH   5  22
ATOM     22  O   UNL     1      10.323  -1.462  22.621  0.00  0.00    -0.506 OA
ATOM     23  H   UNL     1      10.924  -1.187  23.352  0.00  0.00    +0.292 HD
ENDBRANCH   5  22
BRANCH   7  24
ATOM     24  O   UNL     1       6.143   0.781  22.650  0.00  0.00    -0.507 OA
ATOM     25  H   UNL     1       6.528   1.625  22.947  0.00  0.00    +0.292 HD
ENDBRANCH   7  24
BRANCH  11  26
ATOM     26  O   UNL     1       9.295  -5.691  25.471  0.00  0.00    -0.501 OA
ATOM     27  H   UNL     1       9.487  -6.115  24.618  0.00  0.00    +0.292 HD
ENDBRANCH  11  26
TORSDOF 6
ENDMDL
MODEL 9
REMARK VINA RESULT:      -6.7      1.930      7.073
REMARK  Name = 
REMARK  6 active torsions:
REMARK  status: ('A' for Active; 'I' for Inactive)
REMARK    1  A    between atoms: C_3  and  O_22
REMARK    2  A    between atoms: C_4  and  O_21
REMARK    3  A    between atoms: C_6  and  C_7
REMARK    4  A    between atoms: C_8  and  O_20
REMARK    5  A    between atoms: C_12  and  O_19
REMARK    6  A    between atoms: C_14  and  O_18
REMARK                            x       y       z     vdW  Elec       q    Type
REMARK                         _______ _______ _______ _____ _____    ______ ____
ROOT
ATOM      1  C   UNL     1       7.902  -1.878  24.121  0.00  0.00    +0.181 A 
ATOM      2  O   UNL     1       7.851  -0.778  24.980  0.00  0.00    -0.451 OA
ATOM      3  C   UNL     1       8.215   0.459  24.502  0.00  0.00    +0.147 A 
ATOM      4  C   UNL     1       8.752   0.649  23.234  0.00  0.00    +0.109 A 
ATOM      5  C   UNL     1       9.124   1.932  22.803  0.00  0.00    +0.135 A 
ATOM      6  C   UNL     1       8.950   3.029  23.639  0.00  0.00    +0.091 A 
ATOM      7  C   UNL     1       8.403   2.833  24.903  0.00  0.00    +0.124 A 
ATOM      8  C   UNL     1       8.891  -0.511  22.356  0.00  0.00    +0.238 A 
ATOM      9  O   UNL     1       9.401  -0.380  21.249  0.00  0.00    -0.283 OA
ATOM     10  C   UNL     1       8.035   1.560  25.343  0.00  0.00    +0.092 A 
ATOM     11  C   UNL     1       8.347  -1.806  22.847  0.00  0.00    +0.208 A 
ENDROOT
BRANCH   1  13
ATOM     12  C   UNL     1       6.094  -3.639  24.418  0.00  0.00    +0.015 A 
ATOM     13  C   UNL     1       7.375  -3.134  24.733  0.00  0.00    +0.025 A 
ATOM     14  C   UNL     1       8.149  -3.854  25.656  0.00  0.00    +0.060 A 
ATOM     15  C   UNL     1       7.616  -4.969  26.297  0.00  0.00    +0.159 A 
ATOM     16  C   UNL     1       6.315  -5.393  26.042  0.00  0.00    +0.158 A 
ATOM     17  C   UNL     1       5.551  -4.742  25.089  0.00  0.00    +0.050 A 
BRANCH  15  18
ATOM     18  O   UNL     1       8.379  -5.648  27.206  0.00  0.00    -0.503 OA
ATOM     19  H   UNL     1       7.961  -5.461  28.071  0.00  0.00    +0.292 HD
ENDBRANCH  15  18
BRANCH  16  20
ATOM     20  O   UNL     1       5.834  -6.453  26.756  0.00  0.00    -0.503 OA
ATOM     21  H   UNL     1       6.584  -7.019  27.010  0.00  0.00    +0.292 HD
ENDBRANCH  16  20
ENDBRANCH   1  13
BRANCH   5  22
ATOM     22  O   UNL     1       9.653   2.180  21.566  0.00  0.00    -0.506 OA
ATOM     23  H   UNL     1       8.950   2.588  21.009  0.00  0.00    +0.292 HD
ENDBRANCH   5  22
BRANCH   7  24
ATOM     24  O   UNL     1       8.210   3.883  25.751  0.00  0.00    -0.507 OA
ATOM     25  H   UNL     1       8.970   4.488  25.683  0.00  0.00    +0.292 HD
ENDBRANCH   7  24
BRANCH  11  26
ATOM     26  O   UNL     1       8.312  -2.834  21.924  0.00  0.00    -0.501 OA
ATOM     27  H   UNL     1       8.120  -3.661  22.397  0.00  0.00    +0.292 HD
ENDBRANCH  11  26
TORSDOF 6
ENDMDL
