MODEL 1
REMARK VINA RESULT:      -7.2      0.000      0.000
REMARK  Name = 
REMARK  13 active torsions:
REMARK  status: ('A' for Active; 'I' for Inactive)
REMARK    1  A    between atoms: C_1  and  C_2
REMARK    2  A    between atoms: C_2  and  C_3
REMARK    3  A    between atoms: C_2  and  C_4
REMARK    4  A    between atoms: C_4  and  C_5
REMARK    5  A    between atoms: C_5  and  O_7
REMARK    6  A    between atoms: O_7  and  C_8
REMARK    7  A    between atoms: C_9  and  O_29
REMARK    8  A    between atoms: C_11  and  C_14
REMARK    9  A    between atoms: C_15  and  O_27
REMARK   10  A    between atoms: C_19  and  O_26
REMARK   11  A    between atoms: C_21  and  O_25
REMARK   12  A    between atoms: O_27  and  C_28
REMARK   13  A    between atoms: O_29  and  C_30
REMARK                            x       y       z     vdW  Elec       q    Type
REMARK                         _______ _______ _______ _____ _____    ______ ____
ROOT
ATOM      1  C   UNL     1       8.814   1.547  23.511  0.00  0.00    +0.181 A 
ATOM      2  O   UNL     1      10.157   1.965  23.355  0.00  0.00    -0.451 OA
ATOM      3  C   UNL     1      10.500   3.291  23.478  0.00  0.00    +0.147 A 
ATOM      4  C   UNL     1       9.557   4.274  23.709  0.00  0.00    +0.109 A 
ATOM      5  C   UNL     1       9.944   5.621  23.839  0.00  0.00    +0.135 A 
ATOM      6  C   UNL     1      11.278   5.986  23.723  0.00  0.00    +0.091 A 
ATOM      7  C   UNL     1      12.221   4.994  23.487  0.00  0.00    +0.124 A 
ATOM      8  C   UNL     1       8.163   3.884  23.818  0.00  0.00    +0.238 A 
ATOM      9  O   UNL     1       7.323   4.761  24.022  0.00  0.00    -0.283 OA
ATOM     10  C   UNL     1      11.845   3.650  23.366  0.00  0.00    +0.092 A 
ATOM     11  C   UNL     1       7.798   2.436  23.721  0.00  0.00    +0.211 A 
ENDROOT
BRANCH   1  15
ATOM     12  C   UNL     1       8.700  -2.767  23.483  0.00  0.00    +0.173 A 
ATOM     13  C   UNL     1       9.718  -2.074  24.132  0.00  0.00    +0.051 A 
ATOM     14  C   UNL     1       9.758  -0.686  24.077  0.00  0.00    +0.015 A 
ATOM     15  C   UNL     1       8.735   0.056  23.490  0.00  0.00    +0.025 A 
ATOM     16  C   UNL     1       7.738  -0.664  22.776  0.00  0.00    +0.061 A 
ATOM     17  C   UNL     1       7.735  -2.077  22.739  0.00  0.00    +0.163 A 
BRANCH  17  18
ATOM     18  O   UNL     1       6.877  -2.866  22.014  0.00  0.00    -0.491 OA
ATOM     19  C   UNL     1       5.552  -3.056  22.491  0.00  0.00    +0.277 C 
ENDBRANCH  17  18
BRANCH  12  20
ATOM     20  O   UNL     1       8.774  -4.171  23.433  0.00  0.00    -0.422 OA
BRANCH  20  21
ATOM     21  C   UNL     1       8.880  -4.808  24.667  0.00  0.00    +0.313 C 
ATOM     22  O   UNL     1       9.898  -5.283  25.157  0.00  0.00    -0.250 OA
BRANCH  21  23
ATOM     23  C   UNL     1       7.510  -4.915  25.300  0.00  0.00    +0.124 C 
BRANCH  23  25
ATOM     24  C   UNL     1       6.948  -2.905  26.707  0.00  0.00    +0.008 C 
ATOM     25  C   UNL     1       7.476  -4.340  26.716  0.00  0.00    -0.007 C 
ATOM     26  C   UNL     1       6.609  -5.216  27.622  0.00  0.00    +0.008 C 
ENDBRANCH  23  25
ENDBRANCH  21  23
ENDBRANCH  20  21
ENDBRANCH  12  20
ENDBRANCH   1  15
BRANCH   5  27
ATOM     27  O   UNL     1       9.054   6.635  24.081  0.00  0.00    -0.506 OA
ATOM     28  H   UNL     1       8.188   6.227  24.317  0.00  0.00    +0.292 HD
ENDBRANCH   5  27
BRANCH   7  29
ATOM     29  O   UNL     1      13.544   5.313  23.370  0.00  0.00    -0.507 OA
ATOM     30  H   UNL     1      13.626   6.276  23.272  0.00  0.00    +0.292 HD
ENDBRANCH   7  29
BRANCH  11  31
ATOM     31  O   UNL     1       6.450   2.312  23.894  0.00  0.00    -0.488 OA
ATOM     32  C   UNL     1       5.675   1.697  24.892  0.00  0.00    +0.277 C 
ENDBRANCH  11  31
TORSDOF 9
ENDMDL
MODEL 2
REMARK VINA RESULT:      -7.0      1.601      2.218
REMARK  Name = 
REMARK  13 active torsions:
REMARK  status: ('A' for Active; 'I' for Inactive)
REMARK    1  A    between atoms: C_1  and  C_2
REMARK    2  A    between atoms: C_2  and  C_3
REMARK    3  A    between atoms: C_2  and  C_4
REMARK    4  A    between atoms: C_4  and  C_5
REMARK    5  A    between atoms: C_5  and  O_7
REMARK    6  A    between atoms: O_7  and  C_8
REMARK    7  A    between atoms: C_9  and  O_29
REMARK    8  A    between atoms: C_11  and  C_14
REMARK    9  A    between atoms: C_15  and  O_27
REMARK   10  A    between atoms: C_19  and  O_26
REMARK   11  A    between atoms: C_21  and  O_25
REMARK   12  A    between atoms: O_27  and  C_28
REMARK   13  A    between atoms: O_29  and  C_30
REMARK                            x       y       z     vdW  Elec       q    Type
REMARK                         _______ _______ _______ _____ _____    ______ ____
ROOT
ATOM      1  C   UNL     1       8.776   2.174  23.305  0.00  0.00    +0.181 A 
ATOM      2  O   UNL     1      10.156   2.407  23.101  0.00  0.00    -0.451 OA
ATOM      3  C   UNL     1      10.711   3.636  23.371  0.00  0.00    +0.147 A 
ATOM      4  C   UNL     1       9.949   4.705  23.803  0.00  0.00    +0.109 A 
ATOM      5  C   UNL     1      10.549   5.947  24.079  0.00  0.00    +0.135 A 
ATOM      6  C   UNL     1      11.915   6.124  23.908  0.00  0.00    +0.091 A 
ATOM      7  C   UNL     1      12.676   5.047  23.470  0.00  0.00    +0.124 A 
ATOM      8  C   UNL     1       8.519   4.513  23.969  0.00  0.00    +0.238 A 
ATOM      9  O   UNL     1       7.840   5.466  24.353  0.00  0.00    -0.283 OA
ATOM     10  C   UNL     1      12.086   3.805  23.202  0.00  0.00    +0.092 A 
ATOM     11  C   UNL     1       7.926   3.164  23.710  0.00  0.00    +0.211 A 
ENDROOT
BRANCH   1  15
ATOM     12  C   UNL     1       7.947  -2.004  22.606  0.00  0.00    +0.173 A 
ATOM     13  C   UNL     1       9.092  -1.397  22.096  0.00  0.00    +0.051 A 
ATOM     14  C   UNL     1       9.303  -0.038  22.290  0.00  0.00    +0.015 A 
ATOM     15  C   UNL     1       8.462   0.729  23.094  0.00  0.00    +0.025 A 
ATOM     16  C   UNL     1       7.265   0.114  23.554  0.00  0.00    +0.061 A 
ATOM     17  C   UNL     1       6.985  -1.244  23.283  0.00  0.00    +0.163 A 
BRANCH  17  18
ATOM     18  O   UNL     1       5.829  -1.911  23.601  0.00  0.00    -0.491 OA
ATOM     19  C   UNL     1       5.534  -2.159  24.969  0.00  0.00    +0.277 C 
ENDBRANCH  17  18
BRANCH  12  20
ATOM     20  O   UNL     1       7.691  -3.343  22.262  0.00  0.00    -0.422 OA
BRANCH  20  21
ATOM     21  C   UNL     1       8.018  -4.283  23.237  0.00  0.00    +0.313 C 
ATOM     22  O   UNL     1       8.958  -4.223  24.021  0.00  0.00    -0.250 OA
BRANCH  21  23
ATOM     23  C   UNL     1       7.079  -5.465  23.135  0.00  0.00    +0.124 C 
BRANCH  23  25
ATOM     24  C   UNL     1       6.096  -5.930  20.864  0.00  0.00    +0.008 C 
ATOM     25  C   UNL     1       5.905  -5.195  22.191  0.00  0.00    -0.007 C 
ATOM     26  C   UNL     1       4.591  -5.622  22.847  0.00  0.00    +0.008 C 
ENDBRANCH  23  25
ENDBRANCH  21  23
ENDBRANCH  20  21
ENDBRANCH  12  20
ENDBRANCH   1  15
BRANCH   5  27
ATOM     27  O   UNL     1       9.846   7.037  24.523  0.00  0.00    -0.506 OA
ATOM     28  H   UNL     1      10.493   7.755  24.716  0.00  0.00    +0.292 HD
ENDBRANCH   5  27
BRANCH   7  29
ATOM     29  O   UNL     1      14.023   5.180  23.292  0.00  0.00    -0.507 OA
ATOM     30  H   UNL     1      14.436   4.303  23.352  0.00  0.00    +0.292 HD
ENDBRANCH   7  29
BRANCH  11  31
ATOM     31  O   UNL     1       6.588   3.217  23.971  0.00  0.00    -0.488 OA
ATOM     32  C   UNL     1       5.460   3.277  23.136  0.00  0.00    +0.277 C 
ENDBRANCH  11  31
TORSDOF 9
ENDMDL
MODEL 3
REMARK VINA RESULT:      -6.9      1.143      2.239
REMARK  Name = 
REMARK  13 active torsions:
REMARK  status: ('A' for Active; 'I' for Inactive)
REMARK    1  A    between atoms: C_1  and  C_2
REMARK    2  A    between atoms: C_2  and  C_3
REMARK    3  A    between atoms: C_2  and  C_4
REMARK    4  A    between atoms: C_4  and  C_5
REMARK    5  A    between atoms: C_5  and  O_7
REMARK    6  A    between atoms: O_7  and  C_8
REMARK    7  A    between atoms: C_9  and  O_29
REMARK    8  A    between atoms: C_11  and  C_14
REMARK    9  A    between atoms: C_15  and  O_27
REMARK   10  A    between atoms: C_19  and  O_26
REMARK   11  A    between atoms: C_21  and  O_25
REMARK   12  A    between atoms: O_27  and  C_28
REMARK   13  A    between atoms: O_29  and  C_30
REMARK                            x       y       z     vdW  Elec       q    Type
REMARK                         _______ _______ _______ _____ _____    ______ ____
ROOT
ATOM      1  C   UNL     1       8.743   1.349  23.537  0.00  0.00    +0.181 A 
ATOM      2  O   UNL     1      10.067   1.835  23.434  0.00  0.00    -0.451 OA
ATOM      3  C   UNL     1      10.332   3.182  23.522  0.00  0.00    +0.147 A 
ATOM      4  C   UNL     1       9.326   4.118  23.666  0.00  0.00    +0.109 A 
ATOM      5  C   UNL     1       9.632   5.488  23.763  0.00  0.00    +0.135 A 
ATOM      6  C   UNL     1      10.949   5.923  23.701  0.00  0.00    +0.091 A 
ATOM      7  C   UNL     1      11.955   4.977  23.552  0.00  0.00    +0.124 A 
ATOM      8  C   UNL     1       7.951   3.654  23.720  0.00  0.00    +0.238 A 
ATOM      9  O   UNL     1       7.055   4.490  23.847  0.00  0.00    -0.283 OA
ATOM     10  C   UNL     1      11.659   3.611  23.464  0.00  0.00    +0.092 A 
ATOM     11  C   UNL     1       7.671   2.185  23.661  0.00  0.00    +0.211 A 
ENDROOT
BRANCH   1  15
ATOM     12  C   UNL     1       8.701  -2.967  23.528  0.00  0.00    +0.173 A 
ATOM     13  C   UNL     1       8.528  -2.239  22.354  0.00  0.00    +0.051 A 
ATOM     14  C   UNL     1       8.491  -0.851  22.397  0.00  0.00    +0.015 A 
ATOM     15  C   UNL     1       8.746  -0.145  23.570  0.00  0.00    +0.025 A 
ATOM     16  C   UNL     1       8.856  -0.899  24.772  0.00  0.00    +0.061 A 
ATOM     17  C   UNL     1       8.798  -2.311  24.761  0.00  0.00    +0.163 A 
BRANCH  17  18
ATOM     18  O   UNL     1       8.806  -3.129  25.863  0.00  0.00    -0.491 OA
ATOM     19  C   UNL     1       7.679  -3.125  26.729  0.00  0.00    +0.277 C 
ENDBRANCH  17  18
BRANCH  12  20
ATOM     20  O   UNL     1       8.582  -4.368  23.470  0.00  0.00    -0.422 OA
BRANCH  20  21
ATOM     21  C   UNL     1       7.418  -4.844  22.872  0.00  0.00    +0.313 C 
ATOM     22  O   UNL     1       7.287  -5.185  21.702  0.00  0.00    -0.250 OA
BRANCH  21  23
ATOM     23  C   UNL     1       6.283  -4.800  23.870  0.00  0.00    +0.124 C 
BRANCH  23  25
ATOM     24  C   UNL     1       3.801  -4.646  23.478  0.00  0.00    +0.008 C 
ATOM     25  C   UNL     1       5.134  -3.902  23.405  0.00  0.00    -0.007 C 
ATOM     26  C   UNL     1       5.077  -2.634  24.259  0.00  0.00    +0.008 C 
ENDBRANCH  23  25
ENDBRANCH  21  23
ENDBRANCH  20  21
ENDBRANCH  12  20
ENDBRANCH   1  15
BRANCH   5  27
ATOM     27  O   UNL     1       8.677   6.459  23.921  0.00  0.00    -0.506 OA
ATOM     28  H   UNL     1       8.780   6.839  24.825  0.00  0.00    +0.292 HD
ENDBRANCH   5  27
BRANCH   7  29
ATOM     29  O   UNL     1      13.263   5.366  23.489  0.00  0.00    -0.507 OA
ATOM     30  H   UNL     1      13.300   6.299  23.221  0.00  0.00    +0.292 HD
ENDBRANCH   7  29
BRANCH  11  31
ATOM     31  O   UNL     1       6.324   1.992  23.771  0.00  0.00    -0.488 OA
ATOM     32  C   UNL     1       5.535   1.343  24.734  0.00  0.00    +0.277 C 
ENDBRANCH  11  31
TORSDOF 9
ENDMDL
MODEL 4
REMARK VINA RESULT:      -6.9      2.262      8.593
REMARK  Name = 
REMARK  13 active torsions:
REMARK  status: ('A' for Active; 'I' for Inactive)
REMARK    1  A    between atoms: C_1  and  C_2
REMARK    2  A    between atoms: C_2  and  C_3
REMARK    3  A    between atoms: C_2  and  C_4
REMARK    4  A    between atoms: C_4  and  C_5
REMARK    5  A    between atoms: C_5  and  O_7
REMARK    6  A    between atoms: O_7  and  C_8
REMARK    7  A    between atoms: C_9  and  O_29
REMARK    8  A    between atoms: C_11  and  C_14
REMARK    9  A    between atoms: C_15  and  O_27
REMARK   10  A    between atoms: C_19  and  O_26
REMARK   11  A    between atoms: C_21  and  O_25
REMARK   12  A    between atoms: O_27  and  C_28
REMARK   13  A    between atoms: O_29  and  C_30
REMARK                            x       y       z     vdW  Elec       q    Type
REMARK                         _______ _______ _______ _____ _____    ______ ____
ROOT
ATOM      1  C   UNL     1       7.540  -0.775  23.111  0.00  0.00    +0.181 A 
ATOM      2  O   UNL     1       6.493  -1.638  22.710  0.00  0.00    -0.451 OA
ATOM      3  C   UNL     1       6.617  -3.002  22.841  0.00  0.00    +0.147 A 
ATOM      4  C   UNL     1       7.771  -3.591  23.318  0.00  0.00    +0.109 A 
ATOM      5  C   UNL     1       7.861  -4.989  23.447  0.00  0.00    +0.135 A 
ATOM      6  C   UNL     1       6.796  -5.801  23.084  0.00  0.00    +0.091 A 
ATOM      7  C   UNL     1       5.638  -5.203  22.601  0.00  0.00    +0.124 A 
ATOM      8  C   UNL     1       8.885  -2.734  23.686  0.00  0.00    +0.238 A 
ATOM      9  O   UNL     1       9.914  -3.260  24.110  0.00  0.00    -0.283 OA
ATOM     10  C   UNL     1       5.539  -3.812  22.478  0.00  0.00    +0.092 A 
ATOM     11  C   UNL     1       8.733  -1.249  23.577  0.00  0.00    +0.211 A 
ENDROOT
BRANCH   1  15
ATOM     12  C   UNL     1       6.343   3.358  22.764  0.00  0.00    +0.173 A 
ATOM     13  C   UNL     1       7.192   2.769  21.831  0.00  0.00    +0.051 A 
ATOM     14  C   UNL     1       7.604   1.453  21.999  0.00  0.00    +0.015 A 
ATOM     15  C   UNL     1       7.095   0.648  23.017  0.00  0.00    +0.025 A 
ATOM     16  C   UNL     1       6.282   1.279  23.999  0.00  0.00    +0.061 A 
ATOM     17  C   UNL     1       5.932   2.644  23.897  0.00  0.00    +0.163 A 
BRANCH  17  18
ATOM     18  O   UNL     1       5.230   3.371  24.826  0.00  0.00    -0.491 OA
ATOM     19  C   UNL     1       3.817   3.228  24.884  0.00  0.00    +0.277 C 
ENDBRANCH  17  18
BRANCH  12  20
ATOM     20  O   UNL     1       6.069   4.732  22.644  0.00  0.00    -0.422 OA
BRANCH  20  21
ATOM     21  C   UNL     1       7.185   5.556  22.518  0.00  0.00    +0.313 C 
ATOM     22  O   UNL     1       7.568   6.110  21.494  0.00  0.00    -0.250 OA
BRANCH  21  23
ATOM     23  C   UNL     1       7.931   5.602  23.833  0.00  0.00    +0.124 C 
BRANCH  23  25
ATOM     24  C   UNL     1      10.223   6.358  24.547  0.00  0.00    +0.008 C 
ATOM     25  C   UNL     1       9.436   5.397  23.655  0.00  0.00    -0.007 C 
ATOM     26  C   UNL     1       9.814   3.950  23.976  0.00  0.00    +0.008 C 
ENDBRANCH  23  25
ENDBRANCH  21  23
ENDBRANCH  20  21
ENDBRANCH  12  20
ENDBRANCH   1  15
BRANCH   5  27
ATOM     27  O   UNL     1       8.976  -5.627  23.927  0.00  0.00    -0.506 OA
ATOM     28  H   UNL     1       9.303  -6.233  23.222  0.00  0.00    +0.292 HD
ENDBRANCH   5  27
BRANCH   7  29
ATOM     29  O   UNL     1       4.568  -5.968  22.235  0.00  0.00    -0.507 OA
ATOM     30  H   UNL     1       4.413  -5.856  21.282  0.00  0.00    +0.292 HD
ENDBRANCH   7  29
BRANCH  11  31
ATOM     31  O   UNL     1       9.882  -0.659  24.015  0.00  0.00    -0.488 OA
ATOM     32  C   UNL     1      10.138   0.298  25.011  0.00  0.00    +0.277 C 
ENDBRANCH  11  31
TORSDOF 9
ENDMDL
MODEL 5
REMARK VINA RESULT:      -6.5      2.778      9.142
REMARK  Name = 
REMARK  13 active torsions:
REMARK  status: ('A' for Active; 'I' for Inactive)
REMARK    1  A    between atoms: C_1  and  C_2
REMARK    2  A    between atoms: C_2  and  C_3
REMARK    3  A    between atoms: C_2  and  C_4
REMARK    4  A    between atoms: C_4  and  C_5
REMARK    5  A    between atoms: C_5  and  O_7
REMARK    6  A    between atoms: O_7  and  C_8
REMARK    7  A    between atoms: C_9  and  O_29
REMARK    8  A    between atoms: C_11  and  C_14
REMARK    9  A    between atoms: C_15  and  O_27
REMARK   10  A    between atoms: C_19  and  O_26
REMARK   11  A    between atoms: C_21  and  O_25
REMARK   12  A    between atoms: O_27  and  C_28
REMARK   13  A    between atoms: O_29  and  C_30
REMARK                            x       y       z     vdW  Elec       q    Type
REMARK                         _______ _______ _______ _____ _____    ______ ____
ROOT
ATOM      1  C   UNL     1       7.144  -4.032  24.250  0.00  0.00    +0.181 A 
ATOM      2  O   UNL     1       6.031  -4.350  23.435  0.00  0.00    -0.451 OA
ATOM      3  C   UNL     1       5.081  -5.249  23.859  0.00  0.00    +0.147 A 
ATOM      4  C   UNL     1       5.189  -5.915  25.064  0.00  0.00    +0.109 A 
ATOM      5  C   UNL     1       4.195  -6.823  25.472  0.00  0.00    +0.135 A 
ATOM      6  C   UNL     1       3.095  -7.075  24.663  0.00  0.00    +0.091 A 
ATOM      7  C   UNL     1       2.994  -6.405  23.450  0.00  0.00    +0.124 A 
ATOM      8  C   UNL     1       6.348  -5.652  25.899  0.00  0.00    +0.238 A 
ATOM      9  O   UNL     1       6.444  -6.247  26.973  0.00  0.00    -0.283 OA
ATOM     10  C   UNL     1       3.976  -5.494  23.042  0.00  0.00    +0.092 A 
ATOM     11  C   UNL     1       7.360  -4.645  25.451  0.00  0.00    +0.211 A 
ENDROOT
BRANCH   1  15
ATOM     12  C   UNL     1       9.396  -0.869  22.367  0.00  0.00    +0.173 A 
ATOM     13  C   UNL     1       8.532  -1.677  21.634  0.00  0.00    +0.051 A 
ATOM     14  C   UNL     1       7.862  -2.723  22.257  0.00  0.00    +0.015 A 
ATOM     15  C   UNL     1       7.930  -2.921  23.635  0.00  0.00    +0.025 A 
ATOM     16  C   UNL     1       8.865  -2.131  24.360  0.00  0.00    +0.061 A 
ATOM     17  C   UNL     1       9.628  -1.126  23.724  0.00  0.00    +0.163 A 
BRANCH  17  18
ATOM     18  O   UNL     1      10.614  -0.370  24.305  0.00  0.00    -0.491 OA
ATOM     19  C   UNL     1      10.267   0.518  25.359  0.00  0.00    +0.277 C 
ENDBRANCH  17  18
BRANCH  12  20
ATOM     20  O   UNL     1      10.170   0.081  21.675  0.00  0.00    -0.422 OA
BRANCH  20  21
ATOM     21  C   UNL     1       9.801   1.410  21.873  0.00  0.00    +0.313 C 
ATOM     22  O   UNL     1      10.512   2.305  22.315  0.00  0.00    -0.250 OA
BRANCH  21  23
ATOM     23  C   UNL     1       8.336   1.583  21.539  0.00  0.00    +0.124 C 
BRANCH  23  25
ATOM     24  C   UNL     1       6.828   3.503  22.152  0.00  0.00    +0.008 C 
ATOM     25  C   UNL     1       7.559   2.263  22.668  0.00  0.00    -0.007 C 
ATOM     26  C   UNL     1       6.561   1.282  23.287  0.00  0.00    +0.008 C 
ENDBRANCH  23  25
ENDBRANCH  21  23
ENDBRANCH  20  21
ENDBRANCH  12  20
ENDBRANCH   1  15
BRANCH   5  27
ATOM     27  O   UNL     1       4.243  -7.501  26.663  0.00  0.00    -0.506 OA
ATOM     28  H   UNL     1       4.602  -8.401  26.483  0.00  0.00    +0.292 HD
ENDBRANCH   5  27
BRANCH   7  29
ATOM     29  O   UNL     1       1.926  -6.625  22.628  0.00  0.00    -0.507 OA
ATOM     30  H   UNL     1       2.003  -6.044  21.853  0.00  0.00    +0.292 HD
ENDBRANCH   7  29
BRANCH  11  31
ATOM     31  O   UNL     1       8.326  -4.539  26.409  0.00  0.00    -0.488 OA
ATOM     32  C   UNL     1       9.682  -4.907  26.435  0.00  0.00    +0.277 C 
ENDBRANCH  11  31
TORSDOF 9
ENDMDL
MODEL 6
REMARK VINA RESULT:      -6.5      1.736      3.247
REMARK  Name = 
REMARK  13 active torsions:
REMARK  status: ('A' for Active; 'I' for Inactive)
REMARK    1  A    between atoms: C_1  and  C_2
REMARK    2  A    between atoms: C_2  and  C_3
REMARK    3  A    between atoms: C_2  and  C_4
REMARK    4  A    between atoms: C_4  and  C_5
REMARK    5  A    between atoms: C_5  and  O_7
REMARK    6  A    between atoms: O_7  and  C_8
REMARK    7  A    between atoms: C_9  and  O_29
REMARK    8  A    between atoms: C_11  and  C_14
REMARK    9  A    between atoms: C_15  and  O_27
REMARK   10  A    between atoms: C_19  and  O_26
REMARK   11  A    between atoms: C_21  and  O_25
REMARK   12  A    between atoms: O_27  and  C_28
REMARK   13  A    between atoms: O_29  and  C_30
REMARK                            x       y       z     vdW  Elec       q    Type
REMARK                         _______ _______ _______ _____ _____    ______ ____
ROOT
ATOM      1  C   UNL     1       8.093   1.454  23.406  0.00  0.00    +0.181 A 
ATOM      2  O   UNL     1       7.000   2.293  23.087  0.00  0.00    -0.451 OA
ATOM      3  C   UNL     1       7.176   3.646  22.920  0.00  0.00    +0.147 A 
ATOM      4  C   UNL     1       8.404   4.253  23.101  0.00  0.00    +0.109 A 
ATOM      5  C   UNL     1       8.552   5.640  22.913  0.00  0.00    +0.135 A 
ATOM      6  C   UNL     1       7.463   6.424  22.558  0.00  0.00    +0.091 A 
ATOM      7  C   UNL     1       6.230   5.809  22.381  0.00  0.00    +0.124 A 
ATOM      8  C   UNL     1       9.535   3.426  23.483  0.00  0.00    +0.238 A 
ATOM      9  O   UNL     1      10.629   3.968  23.645  0.00  0.00    -0.283 OA
ATOM     10  C   UNL     1       6.077   4.428  22.557  0.00  0.00    +0.092 A 
ATOM     11  C   UNL     1       9.346   1.949  23.627  0.00  0.00    +0.211 A 
ENDROOT
BRANCH   1  15
ATOM     12  C   UNL     1       6.931  -2.699  23.213  0.00  0.00    +0.173 A 
ATOM     13  C   UNL     1       8.046  -2.226  22.526  0.00  0.00    +0.051 A 
ATOM     14  C   UNL     1       8.363  -0.874  22.563  0.00  0.00    +0.015 A 
ATOM     15  C   UNL     1       7.668   0.022  23.372  0.00  0.00    +0.025 A 
ATOM     16  C   UNL     1       6.494  -0.460  24.015  0.00  0.00    +0.061 A 
ATOM     17  C   UNL     1       6.100  -1.813  23.910  0.00  0.00    +0.163 A 
BRANCH  17  18
ATOM     18  O   UNL     1       4.948  -2.362  24.414  0.00  0.00    -0.491 OA
ATOM     19  C   UNL     1       4.666  -2.214  25.799  0.00  0.00    +0.277 C 
ENDBRANCH  17  18
BRANCH  12  20
ATOM     20  O   UNL     1       6.554  -4.042  23.031  0.00  0.00    -0.422 OA
BRANCH  20  21
ATOM     21  C   UNL     1       7.301  -4.974  23.747  0.00  0.00    +0.313 C 
ATOM     22  O   UNL     1       8.299  -5.565  23.351  0.00  0.00    -0.250 OA
BRANCH  21  23
ATOM     23  C   UNL     1       6.644  -5.229  25.085  0.00  0.00    +0.124 C 
BRANCH  23  25
ATOM     24  C   UNL     1       8.215  -3.743  26.373  0.00  0.00    +0.008 C 
ATOM     25  C   UNL     1       7.637  -5.153  26.245  0.00  0.00    -0.007 C 
ATOM     26  C   UNL     1       6.955  -5.564  27.552  0.00  0.00    +0.008 C 
ENDBRANCH  23  25
ENDBRANCH  21  23
ENDBRANCH  20  21
ENDBRANCH  12  20
ENDBRANCH   1  15
BRANCH   5  27
ATOM     27  O   UNL     1       9.748   6.292  23.065  0.00  0.00    -0.506 OA
ATOM     28  H   UNL     1       9.797   6.618  23.995  0.00  0.00    +0.292 HD
ENDBRANCH   5  27
BRANCH   7  29
ATOM     29  O   UNL     1       5.135   6.546  22.029  0.00  0.00    -0.507 OA
ATOM     30  H   UNL     1       4.862   6.291  21.132  0.00  0.00    +0.292 HD
ENDBRANCH   7  29
BRANCH  11  31
ATOM     31  O   UNL     1      10.547   1.384  23.947  0.00  0.00    -0.488 OA
ATOM     32  C   UNL     1      10.916   0.414  24.894  0.00  0.00    +0.277 C 
ENDBRANCH  11  31
TORSDOF 9
ENDMDL
MODEL 7
REMARK VINA RESULT:      -6.4      2.598      9.178
REMARK  Name = 
REMARK  13 active torsions:
REMARK  status: ('A' for Active; 'I' for Inactive)
REMARK    1  A    between atoms: C_1  and  C_2
REMARK    2  A    between atoms: C_2  and  C_3
REMARK    3  A    between atoms: C_2  and  C_4
REMARK    4  A    between atoms: C_4  and  C_5
REMARK    5  A    between atoms: C_5  and  O_7
REMARK    6  A    between atoms: O_7  and  C_8
REMARK    7  A    between atoms: C_9  and  O_29
REMARK    8  A    between atoms: C_11  and  C_14
REMARK    9  A    between atoms: C_15  and  O_27
REMARK   10  A    between atoms: C_19  and  O_26
REMARK   11  A    between atoms: C_21  and  O_25
REMARK   12  A    between atoms: O_27  and  C_28
REMARK   13  A    between atoms: O_29  and  C_30
REMARK                            x       y       z     vdW  Elec       q    Type
REMARK                         _______ _______ _______ _____ _____    ______ ____
ROOT
ATOM      1  C   UNL     1       7.165  -3.846  24.205  0.00  0.00    +0.181 A 
ATOM      2  O   UNL     1       6.048  -4.160  23.396  0.00  0.00    -0.451 OA
ATOM      3  C   UNL     1       5.135  -5.108  23.793  0.00  0.00    +0.147 A 
ATOM      4  C   UNL     1       5.286  -5.827  24.962  0.00  0.00    +0.109 A 
ATOM      5  C   UNL     1       4.329  -6.784  25.344  0.00  0.00    +0.135 A 
ATOM      6  C   UNL     1       3.222  -7.033  24.544  0.00  0.00    +0.091 A 
ATOM      7  C   UNL     1       3.077  -6.310  23.367  0.00  0.00    +0.124 A 
ATOM      8  C   UNL     1       6.453  -5.568  25.788  0.00  0.00    +0.238 A 
ATOM      9  O   UNL     1       6.588  -6.210  26.830  0.00  0.00    -0.283 OA
ATOM     10  C   UNL     1       4.021  -5.349  22.985  0.00  0.00    +0.092 A 
ATOM     11  C   UNL     1       7.424  -4.509  25.371  0.00  0.00    +0.211 A 
ENDROOT
BRANCH   1  15
ATOM     12  C   UNL     1       9.399  -0.521  22.597  0.00  0.00    +0.173 A 
ATOM     13  C   UNL     1      10.041  -1.653  23.093  0.00  0.00    +0.051 A 
ATOM     14  C   UNL     1       9.298  -2.684  23.655  0.00  0.00    +0.015 A 
ATOM     15  C   UNL     1       7.904  -2.683  23.631  0.00  0.00    +0.025 A 
ATOM     16  C   UNL     1       7.264  -1.494  23.182  0.00  0.00    +0.061 A 
ATOM     17  C   UNL     1       8.008  -0.395  22.697  0.00  0.00    +0.163 A 
BRANCH  17  18
ATOM     18  O   UNL     1       7.501   0.823  22.323  0.00  0.00    -0.491 OA
ATOM     19  C   UNL     1       6.774   1.586  23.277  0.00  0.00    +0.277 C 
ENDBRANCH  17  18
BRANCH  12  20
ATOM     20  O   UNL     1      10.189   0.564  22.175  0.00  0.00    -0.422 OA
BRANCH  20  21
ATOM     21  C   UNL     1      10.568   1.453  23.178  0.00  0.00    +0.313 C 
ATOM     22  O   UNL     1      10.800   1.174  24.348  0.00  0.00    -0.250 OA
BRANCH  21  23
ATOM     23  C   UNL     1      10.568   2.862  22.630  0.00  0.00    +0.124 C 
BRANCH  23  25
ATOM     24  C   UNL     1      11.511   5.017  23.528  0.00  0.00    +0.008 C 
ATOM     25  C   UNL     1      10.471   3.916  23.735  0.00  0.00    -0.007 C 
ATOM     26  C   UNL     1       9.065   4.519  23.767  0.00  0.00    +0.008 C 
ENDBRANCH  23  25
ENDBRANCH  21  23
ENDBRANCH  20  21
ENDBRANCH  12  20
ENDBRANCH   1  15
BRANCH   5  27
ATOM     27  O   UNL     1       4.421  -7.517  26.499  0.00  0.00    -0.506 OA
ATOM     28  H   UNL     1       3.505  -7.749  26.783  0.00  0.00    +0.292 HD
ENDBRANCH   5  27
BRANCH   7  29
ATOM     29  O   UNL     1       2.000  -6.524  22.554  0.00  0.00    -0.507 OA
ATOM     30  H   UNL     1       1.190  -6.478  23.089  0.00  0.00    +0.292 HD
ENDBRANCH   7  29
BRANCH  11  31
ATOM     31  O   UNL     1       8.405  -4.418  26.316  0.00  0.00    -0.488 OA
ATOM     32  C   UNL     1       9.727  -4.892  26.360  0.00  0.00    +0.277 C 
ENDBRANCH  11  31
TORSDOF 9
ENDMDL
MODEL 8
REMARK VINA RESULT:      -6.3      2.172      3.938
REMARK  Name = 
REMARK  13 active torsions:
REMARK  status: ('A' for Active; 'I' for Inactive)
REMARK    1  A    between atoms: C_1  and  C_2
REMARK    2  A    between atoms: C_2  and  C_3
REMARK    3  A    between atoms: C_2  and  C_4
REMARK    4  A    between atoms: C_4  and  C_5
REMARK    5  A    between atoms: C_5  and  O_7
REMARK    6  A    between atoms: O_7  and  C_8
REMARK    7  A    between atoms: C_9  and  O_29
REMARK    8  A    between atoms: C_11  and  C_14
REMARK    9  A    between atoms: C_15  and  O_27
REMARK   10  A    between atoms: C_19  and  O_26
REMARK   11  A    between atoms: C_21  and  O_25
REMARK   12  A    between atoms: O_27  and  C_28
REMARK   13  A    between atoms: O_29  and  C_30
REMARK                            x       y       z     vdW  Elec       q    Type
REMARK                         _______ _______ _______ _____ _____    ______ ____
ROOT
ATOM      1  C   UNL     1       8.539   0.777  24.494  0.00  0.00    +0.181 A 
ATOM      2  O   UNL     1       8.003   1.856  25.236  0.00  0.00    -0.451 OA
ATOM      3  C   UNL     1       8.434   3.143  25.018  0.00  0.00    +0.147 A 
ATOM      4  C   UNL     1       9.433   3.438  24.110  0.00  0.00    +0.109 A 
ATOM      5  C   UNL     1       9.845   4.767  23.904  0.00  0.00    +0.135 A 
ATOM      6  C   UNL     1       9.264   5.805  24.621  0.00  0.00    +0.091 A 
ATOM      7  C   UNL     1       8.263   5.502  25.536  0.00  0.00    +0.124 A 
ATOM      8  C   UNL     1      10.042   2.345  23.372  0.00  0.00    +0.238 A 
ATOM      9  O   UNL     1      10.933   2.608  22.564  0.00  0.00    -0.283 OA
ATOM     10  C   UNL     1       7.842   4.182  25.739  0.00  0.00    +0.092 A 
ATOM     11  C   UNL     1       9.544   0.950  23.586  0.00  0.00    +0.211 A 
ENDROOT
BRANCH   1  15
ATOM     12  C   UNL     1       6.285  -2.798  25.370  0.00  0.00    +0.173 A 
ATOM     13  C   UNL     1       5.724  -1.747  24.649  0.00  0.00    +0.051 A 
ATOM     14  C   UNL     1       6.456  -0.587  24.430  0.00  0.00    +0.015 A 
ATOM     15  C   UNL     1       7.794  -0.479  24.805  0.00  0.00    +0.025 A 
ATOM     16  C   UNL     1       8.332  -1.532  25.597  0.00  0.00    +0.061 A 
ATOM     17  C   UNL     1       7.570  -2.679  25.913  0.00  0.00    +0.163 A 
BRANCH  17  18
ATOM     18  O   UNL     1       7.958  -3.707  26.735  0.00  0.00    -0.491 OA
ATOM     19  C   UNL     1       9.060  -4.517  26.348  0.00  0.00    +0.277 C 
ENDBRANCH  17  18
BRANCH  12  20
ATOM     20  O   UNL     1       5.466  -3.893  25.701  0.00  0.00    -0.422 OA
BRANCH  20  21
ATOM     21  C   UNL     1       4.973  -4.620  24.619  0.00  0.00    +0.313 C 
ATOM     22  O   UNL     1       3.796  -4.751  24.306  0.00  0.00    -0.250 OA
BRANCH  21  23
ATOM     23  C   UNL     1       6.117  -5.316  23.915  0.00  0.00    +0.124 C 
BRANCH  23  25
ATOM     24  C   UNL     1       7.568  -3.983  22.349  0.00  0.00    +0.008 C 
ATOM     25  C   UNL     1       6.300  -4.827  22.478  0.00  0.00    -0.007 C 
ATOM     26  C   UNL     1       6.359  -6.017  21.518  0.00  0.00    +0.008 C 
ENDBRANCH  23  25
ENDBRANCH  21  23
ENDBRANCH  20  21
ENDBRANCH  12  20
ENDBRANCH   1  15
BRANCH   5  27
ATOM     27  O   UNL     1      10.820   5.119  23.007  0.00  0.00    -0.506 OA
ATOM     28  H   UNL     1      11.577   5.494  23.517  0.00  0.00    +0.292 HD
ENDBRANCH   5  27
BRANCH   7  29
ATOM     29  O   UNL     1       7.666   6.495  26.259  0.00  0.00    -0.507 OA
ATOM     30  H   UNL     1       6.879   6.132  26.698  0.00  0.00    +0.292 HD
ENDBRANCH   7  29
BRANCH  11  31
ATOM     31  O   UNL     1      10.231   0.109  22.760  0.00  0.00    -0.488 OA
ATOM     32  C   UNL     1       9.818  -0.774  21.748  0.00  0.00    +0.277 C 
ENDBRANCH  11  31
TORSDOF 9
ENDMDL
MODEL 9
REMARK VINA RESULT:      -6.2      2.374      4.544
REMARK  Name = 
REMARK  13 active torsions:
REMARK  status: ('A' for Active; 'I' for Inactive)
REMARK    1  A    between atoms: C_1  and  C_2
REMARK    2  A    between atoms: C_2  and  C_3
REMARK    3  A    between atoms: C_2  and  C_4
REMARK    4  A    between atoms: C_4  and  C_5
REMARK    5  A    between atoms: C_5  and  O_7
REMARK    6  A    between atoms: O_7  and  C_8
REMARK    7  A    between atoms: C_9  and  O_29
REMARK    8  A    between atoms: C_11  and  C_14
REMARK    9  A    between atoms: C_15  and  O_27
REMARK   10  A    between atoms: C_19  and  O_26
REMARK   11  A    between atoms: C_21  and  O_25
REMARK   12  A    between atoms: O_27  and  C_28
REMARK   13  A    between atoms: O_29  and  C_30
REMARK                            x       y       z     vdW  Elec       q    Type
REMARK                         _______ _______ _______ _____ _____    ______ ____
ROOT
ATOM      1  C   UNL     1       7.073  -0.994  23.315  0.00  0.00    +0.181 A 
ATOM      2  O   UNL     1       6.338   0.215  23.311  0.00  0.00    -0.451 OA
ATOM      3  C   UNL     1       6.971   1.423  23.137  0.00  0.00    +0.147 A 
ATOM      4  C   UNL     1       8.344   1.520  23.008  0.00  0.00    +0.109 A 
ATOM      5  C   UNL     1       8.959   2.771  22.822  0.00  0.00    +0.135 A 
ATOM      6  C   UNL     1       8.199   3.932  22.780  0.00  0.00    +0.091 A 
ATOM      7  C   UNL     1       6.820   3.829  22.915  0.00  0.00    +0.124 A 
ATOM      8  C   UNL     1       9.131   0.300  23.063  0.00  0.00    +0.238 A 
ATOM      9  O   UNL     1      10.354   0.387  22.949  0.00  0.00    -0.283 OA
ATOM     10  C   UNL     1       6.200   2.586  23.091  0.00  0.00    +0.092 A 
ATOM     11  C   UNL     1       8.435  -1.015  23.216  0.00  0.00    +0.211 A 
ENDROOT
BRANCH   1  15
ATOM     12  C   UNL     1       4.358  -4.341  23.553  0.00  0.00    +0.173 A 
ATOM     13  C   UNL     1       4.344  -3.328  24.508  0.00  0.00    +0.051 A 
ATOM     14  C   UNL     1       5.267  -2.292  24.436  0.00  0.00    +0.015 A 
ATOM     15  C   UNL     1       6.141  -2.161  23.359  0.00  0.00    +0.025 A 
ATOM     16  C   UNL     1       6.189  -3.234  22.427  0.00  0.00    +0.061 A 
ATOM     17  C   UNL     1       5.323  -4.346  22.539  0.00  0.00    +0.163 A 
BRANCH  17  18
ATOM     18  O   UNL     1       5.343  -5.470  21.752  0.00  0.00    -0.491 OA
ATOM     19  C   UNL     1       6.598  -6.022  21.377  0.00  0.00    +0.277 C 
ENDBRANCH  17  18
BRANCH  12  20
ATOM     20  O   UNL     1       3.512  -5.449  23.742  0.00  0.00    -0.422 OA
BRANCH  20  21
ATOM     21  C   UNL     1       3.448  -5.938  25.045  0.00  0.00    +0.313 C 
ATOM     22  O   UNL     1       2.498  -5.844  25.812  0.00  0.00    -0.250 OA
BRANCH  21  23
ATOM     23  C   UNL     1       4.784  -6.538  25.424  0.00  0.00    +0.124 C 
BRANCH  23  25
ATOM     24  C   UNL     1       5.267  -6.849  27.875  0.00  0.00    +0.008 C 
ATOM     25  C   UNL     1       5.373  -5.898  26.682  0.00  0.00    -0.007 C 
ATOM     26  C   UNL     1       6.834  -5.512  26.444  0.00  0.00    +0.008 C 
ENDBRANCH  23  25
ENDBRANCH  21  23
ENDBRANCH  20  21
ENDBRANCH  12  20
ENDBRANCH   1  15
BRANCH   5  27
ATOM     27  O   UNL     1      10.313   2.924  22.674  0.00  0.00    -0.506 OA
ATOM     28  H   UNL     1      10.717   2.025  22.640  0.00  0.00    +0.292 HD
ENDBRANCH   5  27
BRANCH   7  29
ATOM     29  O   UNL     1       6.038   4.948  22.876  0.00  0.00    -0.507 OA
ATOM     30  H   UNL     1       6.607   5.731  22.965  0.00  0.00    +0.292 HD
ENDBRANCH   7  29
BRANCH  11  31
ATOM     31  O   UNL     1       9.369  -2.009  23.199  0.00  0.00    -0.488 OA
ATOM     32  C   UNL     1       9.748  -2.971  24.151  0.00  0.00    +0.277 C 
ENDBRANCH  11  31
TORSDOF 9
ENDMDL
