MODEL 1
REMARK VINA RESULT:      -7.1      0.000      0.000
REMARK  Name = 
REMARK  13 active torsions:
REMARK  status: ('A' for Active; 'I' for Inactive)
REMARK    1  A    between atoms: C_1  and  C_2
REMARK    2  A    between atoms: C_2  and  O_4
REMARK    3  A    between atoms: O_4  and  C_5
REMARK    4  A    between atoms: C_7  and  C_37
REMARK    5  A    between atoms: C_10  and  O_15
REMARK    6  A    between atoms: C_12  and  O_14
REMARK    7  A    between atoms: O_15  and  C_16
REMARK    8  A    between atoms: C_17  and  C_29
REMARK    9  A    between atoms: C_21  and  O_28
REMARK   10  A    between atoms: C_23  and  O_27
REMARK   11  A    between atoms: C_31  and  O_36
REMARK   12  A    between atoms: C_32  and  O_35
REMARK   13  A    between atoms: C_37  and  O_38
REMARK                            x       y       z     vdW  Elec       q    Type
REMARK                         _______ _______ _______ _____ _____    ______ ____
ROOT
ATOM      1  C   UNL     1       6.944  -4.996  26.176  0.00  0.00    +0.214 A 
ATOM      2  C   UNL     1       6.597  -5.521  27.528  0.00  0.00    +0.238 A 
ATOM      3  O   UNL     1       7.420  -6.149  28.178  0.00  0.00    -0.283 OA
ATOM      4  C   UNL     1       5.240  -5.347  28.037  0.00  0.00    +0.109 A 
ATOM      5  C   UNL     1       4.278  -4.922  27.134  0.00  0.00    +0.147 A 
ATOM      6  C   UNL     1       2.961  -4.738  27.560  0.00  0.00    +0.092 A 
ATOM      7  C   UNL     1       2.632  -5.005  28.892  0.00  0.00    +0.124 A 
ATOM      8  C   UNL     1       3.588  -5.455  29.795  0.00  0.00    +0.091 A 
ATOM      9  O   UNL     1       4.560  -4.699  25.813  0.00  0.00    -0.451 OA
ATOM     10  C   UNL     1       4.898  -5.626  29.366  0.00  0.00    +0.135 A 
ATOM     11  C   UNL     1       5.875  -4.736  25.365  0.00  0.00    +0.181 A 
ENDROOT
BRANCH  11  12
ATOM     12  C   UNL     1       5.943  -4.569  23.875  0.00  0.00    +0.025 A 
ATOM     13  C   UNL     1       5.807  -3.270  23.319  0.00  0.00    +0.015 A 
ATOM     14  C   UNL     1       5.750  -3.055  21.936  0.00  0.00    +0.050 A 
ATOM     15  C   UNL     1       5.804  -4.146  21.091  0.00  0.00    +0.158 A 
ATOM     16  C   UNL     1       5.971  -5.426  21.609  0.00  0.00    +0.159 A 
ATOM     17  C   UNL     1       6.083  -5.642  22.986  0.00  0.00    +0.060 A 
BRANCH  15  18
ATOM     18  O   UNL     1       5.646  -3.964  19.747  0.00  0.00    -0.503 OA
ATOM     19  H   UNL     1       4.726  -3.644  19.649  0.00  0.00    +0.292 HD
ENDBRANCH  15  18
BRANCH  16  20
ATOM     20  O   UNL     1       5.958  -6.469  20.724  0.00  0.00    -0.503 OA
ATOM     21  H   UNL     1       5.030  -6.741  20.613  0.00  0.00    +0.292 HD
ENDBRANCH  16  20
ENDBRANCH  11  12
BRANCH   7  22
ATOM     22  O   UNL     1       1.366  -4.834  29.366  0.00  0.00    -0.507 OA
ATOM     23  H   UNL     1       1.282  -3.948  29.752  0.00  0.00    +0.292 HD
ENDBRANCH   7  22
BRANCH  10  24
ATOM     24  O   UNL     1       5.835  -6.053  30.261  0.00  0.00    -0.506 OA
ATOM     25  H   UNL     1       6.591  -6.446  29.798  0.00  0.00    +0.292 HD
ENDBRANCH  10  24
BRANCH   1  26
ATOM     26  O   UNL     1       8.285  -4.988  25.772  0.00  0.00    -0.453 OA
BRANCH  26  29
ATOM     27  C   UNL     1       8.837  -1.571  24.730  0.00  0.00    +0.242 C 
ATOM     28  C   UNL     1       9.155  -3.039  24.493  0.00  0.00    +0.226 C 
ATOM     29  C   UNL     1       8.997  -3.714  25.886  0.00  0.00    +0.341 C 
ATOM     30  O   UNL     1       8.230  -2.798  26.715  0.00  0.00    -0.330 OA
ATOM     31  C   UNL     1       7.959  -1.587  25.972  0.00  0.00    +0.191 C 
BRANCH  28  32
ATOM     32  O   UNL     1      10.417  -3.138  23.835  0.00  0.00    -0.382 OA
ATOM     33  H   UNL     1      11.104  -2.856  24.482  0.00  0.00    +0.210 HD
ENDBRANCH  28  32
BRANCH  27  34
ATOM     34  O   UNL     1       9.981  -0.673  24.748  0.00  0.00    -0.456 OA
BRANCH  34  36
ATOM     35  C   UNL     1      10.657   1.484  24.117  0.00  0.00    +0.136 C 
ATOM     36  C   UNL     1      10.293   0.097  23.673  0.00  0.00    +0.304 C 
ATOM     37  O   UNL     1      10.331  -0.283  22.515  0.00  0.00    -0.251 OA
ENDBRANCH  34  36
ENDBRANCH  27  34
BRANCH  31  38
ATOM     38  C   UNL     1       8.100  -0.336  26.843  0.00  0.00    +0.191 C 
BRANCH  38  39
ATOM     39  O   UNL     1       9.286  -0.402  27.629  0.00  0.00    -0.392 OA
ATOM     40  H   UNL     1       9.204   0.325  28.275  0.00  0.00    +0.210 HD
ENDBRANCH  38  39
ENDBRANCH  31  38
ENDBRANCH  26  29
ENDBRANCH   1  26
TORSDOF 12
ENDMDL
MODEL 2
REMARK VINA RESULT:      -7.1      2.142      7.033
REMARK  Name = 
REMARK  13 active torsions:
REMARK  status: ('A' for Active; 'I' for Inactive)
REMARK    1  A    between atoms: C_1  and  C_2
REMARK    2  A    between atoms: C_2  and  O_4
REMARK    3  A    between atoms: O_4  and  C_5
REMARK    4  A    between atoms: C_7  and  C_37
REMARK    5  A    between atoms: C_10  and  O_15
REMARK    6  A    between atoms: C_12  and  O_14
REMARK    7  A    between atoms: O_15  and  C_16
REMARK    8  A    between atoms: C_17  and  C_29
REMARK    9  A    between atoms: C_21  and  O_28
REMARK   10  A    between atoms: C_23  and  O_27
REMARK   11  A    between atoms: C_31  and  O_36
REMARK   12  A    between atoms: C_32  and  O_35
REMARK   13  A    between atoms: C_37  and  O_38
REMARK                            x       y       z     vdW  Elec       q    Type
REMARK                         _______ _______ _______ _____ _____    ______ ____
ROOT
ATOM      1  C   UNL     1       6.703  -1.062  24.930  0.00  0.00    +0.214 A 
ATOM      2  C   UNL     1       7.015   0.392  25.041  0.00  0.00    +0.238 A 
ATOM      3  O   UNL     1       6.389   1.102  25.815  0.00  0.00    -0.283 OA
ATOM      4  C   UNL     1       8.021   0.977  24.161  0.00  0.00    +0.109 A 
ATOM      5  C   UNL     1       8.456   0.202  23.098  0.00  0.00    +0.147 A 
ATOM      6  C   UNL     1       9.417   0.707  22.219  0.00  0.00    +0.092 A 
ATOM      7  C   UNL     1       9.912   1.999  22.420  0.00  0.00    +0.124 A 
ATOM      8  C   UNL     1       9.460   2.790  23.470  0.00  0.00    +0.091 A 
ATOM      9  O   UNL     1       7.956  -1.048  22.848  0.00  0.00    -0.451 OA
ATOM     10  C   UNL     1       8.512   2.277  24.345  0.00  0.00    +0.135 A 
ATOM     11  C   UNL     1       7.101  -1.651  23.762  0.00  0.00    +0.181 A 
ENDROOT
BRANCH  11  12
ATOM     12  C   UNL     1       6.594  -2.964  23.242  0.00  0.00    +0.025 A 
ATOM     13  C   UNL     1       7.473  -3.800  22.505  0.00  0.00    +0.015 A 
ATOM     14  C   UNL     1       7.037  -4.985  21.897  0.00  0.00    +0.050 A 
ATOM     15  C   UNL     1       5.705  -5.335  22.001  0.00  0.00    +0.158 A 
ATOM     16  C   UNL     1       4.831  -4.550  22.745  0.00  0.00    +0.159 A 
ATOM     17  C   UNL     1       5.270  -3.396  23.400  0.00  0.00    +0.060 A 
BRANCH  15  18
ATOM     18  O   UNL     1       5.244  -6.429  21.328  0.00  0.00    -0.503 OA
ATOM     19  H   UNL     1       5.991  -7.062  21.346  0.00  0.00    +0.292 HD
ENDBRANCH  15  18
BRANCH  16  20
ATOM     20  O   UNL     1       3.513  -4.919  22.760  0.00  0.00    -0.503 OA
ATOM     21  H   UNL     1       3.487  -5.891  22.720  0.00  0.00    +0.292 HD
ENDBRANCH  16  20
ENDBRANCH  11  12
BRANCH   7  22
ATOM     22  O   UNL     1      10.857   2.541  21.600  0.00  0.00    -0.507 OA
ATOM     23  H   UNL     1      10.772   2.157  20.713  0.00  0.00    +0.292 HD
ENDBRANCH   7  22
BRANCH  10  24
ATOM     24  O   UNL     1       8.084   3.051  25.383  0.00  0.00    -0.506 OA
ATOM     25  H   UNL     1       8.411   2.699  26.225  0.00  0.00    +0.292 HD
ENDBRANCH  10  24
BRANCH   1  26
ATOM     26  O   UNL     1       5.887  -1.660  25.899  0.00  0.00    -0.453 OA
BRANCH  26  29
ATOM     27  C   UNL     1       6.657  -4.973  27.125  0.00  0.00    +0.242 C 
ATOM     28  C   UNL     1       5.679  -3.808  27.137  0.00  0.00    +0.226 C 
ATOM     29  C   UNL     1       6.549  -2.549  26.855  0.00  0.00    +0.341 C 
ATOM     30  O   UNL     1       7.806  -3.021  26.296  0.00  0.00    -0.330 OA
ATOM     31  C   UNL     1       7.810  -4.467  26.271  0.00  0.00    +0.191 C 
BRANCH  28  32
ATOM     32  O   UNL     1       4.926  -3.850  28.348  0.00  0.00    -0.382 OA
ATOM     33  H   UNL     1       4.543  -2.953  28.483  0.00  0.00    +0.210 HD
ENDBRANCH  28  32
BRANCH  27  34
ATOM     34  O   UNL     1       6.999  -5.522  28.427  0.00  0.00    -0.456 OA
BRANCH  34  36
ATOM     35  C   UNL     1       6.158  -6.308  30.473  0.00  0.00    +0.136 C 
ATOM     36  C   UNL     1       6.264  -6.517  28.990  0.00  0.00    +0.304 C 
ATOM     37  O   UNL     1       5.717  -7.424  28.386  0.00  0.00    -0.251 OA
ENDBRANCH  34  36
ENDBRANCH  27  34
BRANCH  31  38
ATOM     38  C   UNL     1       9.171  -5.043  26.668  0.00  0.00    +0.191 C 
BRANCH  38  39
ATOM     39  O   UNL     1       9.748  -5.763  25.583  0.00  0.00    -0.392 OA
ATOM     40  H   UNL     1       8.990  -6.131  25.090  0.00  0.00    +0.210 HD
ENDBRANCH  38  39
ENDBRANCH  31  38
ENDBRANCH  26  29
ENDBRANCH   1  26
TORSDOF 12
ENDMDL
MODEL 3
REMARK VINA RESULT:      -6.7      2.441      7.768
REMARK  Name = 
REMARK  13 active torsions:
REMARK  status: ('A' for Active; 'I' for Inactive)
REMARK    1  A    between atoms: C_1  and  C_2
REMARK    2  A    between atoms: C_2  and  O_4
REMARK    3  A    between atoms: O_4  and  C_5
REMARK    4  A    between atoms: C_7  and  C_37
REMARK    5  A    between atoms: C_10  and  O_15
REMARK    6  A    between atoms: C_12  and  O_14
REMARK    7  A    between atoms: O_15  and  C_16
REMARK    8  A    between atoms: C_17  and  C_29
REMARK    9  A    between atoms: C_21  and  O_28
REMARK   10  A    between atoms: C_23  and  O_27
REMARK   11  A    between atoms: C_31  and  O_36
REMARK   12  A    between atoms: C_32  and  O_35
REMARK   13  A    between atoms: C_37  and  O_38
REMARK                            x       y       z     vdW  Elec       q    Type
REMARK                         _______ _______ _______ _____ _____    ______ ____
ROOT
ATOM      1  C   UNL     1       7.796  -2.319  23.304  0.00  0.00    +0.214 A 
ATOM      2  C   UNL     1       8.351  -1.215  22.469  0.00  0.00    +0.238 A 
ATOM      3  O   UNL     1       8.721  -1.431  21.324  0.00  0.00    -0.283 OA
ATOM      4  C   UNL     1       8.519   0.111  23.055  0.00  0.00    +0.109 A 
ATOM      5  C   UNL     1       8.389   0.212  24.431  0.00  0.00    +0.147 A 
ATOM      6  C   UNL     1       8.541   1.454  25.052  0.00  0.00    +0.092 A 
ATOM      7  C   UNL     1       8.841   2.574  24.272  0.00  0.00    +0.124 A 
ATOM      8  C   UNL     1       8.998   2.472  22.894  0.00  0.00    +0.091 A 
ATOM      9  O   UNL     1       8.142  -0.874  25.227  0.00  0.00    -0.451 OA
ATOM     10  C   UNL     1       8.836   1.236  22.283  0.00  0.00    +0.135 A 
ATOM     11  C   UNL     1       7.850  -2.106  24.653  0.00  0.00    +0.181 A 
ENDROOT
BRANCH  11  12
ATOM     12  C   UNL     1       7.719  -3.172  25.701  0.00  0.00    +0.025 A 
ATOM     13  C   UNL     1       8.650  -4.243  25.715  0.00  0.00    +0.015 A 
ATOM     14  C   UNL     1       8.522  -5.328  26.593  0.00  0.00    +0.050 A 
ATOM     15  C   UNL     1       7.443  -5.363  27.454  0.00  0.00    +0.158 A 
ATOM     16  C   UNL     1       6.535  -4.309  27.483  0.00  0.00    +0.159 A 
ATOM     17  C   UNL     1       6.687  -3.198  26.648  0.00  0.00    +0.060 A 
BRANCH  15  18
ATOM     18  O   UNL     1       7.247  -6.460  28.242  0.00  0.00    -0.503 OA
ATOM     19  H   UNL     1       6.960  -7.161  27.622  0.00  0.00    +0.292 HD
ENDBRANCH  15  18
BRANCH  16  20
ATOM     20  O   UNL     1       5.457  -4.431  28.316  0.00  0.00    -0.503 OA
ATOM     21  H   UNL     1       5.798  -4.434  29.228  0.00  0.00    +0.292 HD
ENDBRANCH  16  20
ENDBRANCH  11  12
BRANCH   7  22
ATOM     22  O   UNL     1       8.991   3.812  24.821  0.00  0.00    -0.507 OA
ATOM     23  H   UNL     1       9.408   3.729  25.694  0.00  0.00    +0.292 HD
ENDBRANCH   7  22
BRANCH  10  24
ATOM     24  O   UNL     1       8.975   1.146  20.929  0.00  0.00    -0.506 OA
ATOM     25  H   UNL     1       8.388   1.778  20.486  0.00  0.00    +0.292 HD
ENDBRANCH  10  24
BRANCH   1  26
ATOM     26  O   UNL     1       7.453  -3.530  22.691  0.00  0.00    -0.453 OA
BRANCH  26  29
ATOM     27  C   UNL     1       4.466  -5.447  23.381  0.00  0.00    +0.242 C 
ATOM     28  C   UNL     1       5.723  -5.313  22.536  0.00  0.00    +0.226 C 
ATOM     29  C   UNL     1       6.024  -3.787  22.501  0.00  0.00    +0.341 C 
ATOM     30  O   UNL     1       5.270  -3.183  23.588  0.00  0.00    -0.330 OA
ATOM     31  C   UNL     1       4.479  -4.198  24.248  0.00  0.00    +0.191 C 
BRANCH  28  32
ATOM     32  O   UNL     1       5.522  -5.990  21.296  0.00  0.00    -0.382 OA
ATOM     33  H   UNL     1       5.396  -5.298  20.607  0.00  0.00    +0.210 HD
ENDBRANCH  28  32
BRANCH  27  34
ATOM     34  O   UNL     1       3.241  -5.722  22.647  0.00  0.00    -0.456 OA
BRANCH  34  36
ATOM     35  C   UNL     1       0.984  -6.355  22.521  0.00  0.00    +0.136 C 
ATOM     36  C   UNL     1       2.345  -6.643  23.088  0.00  0.00    +0.304 C 
ATOM     37  O   UNL     1       2.601  -7.602  23.796  0.00  0.00    -0.251 OA
ENDBRANCH  34  36
ENDBRANCH  27  34
BRANCH  31  38
ATOM     38  C   UNL     1       3.083  -3.687  24.616  0.00  0.00    +0.191 C 
BRANCH  38  39
ATOM     39  O   UNL     1       3.173  -2.574  25.500  0.00  0.00    -0.392 OA
ATOM     40  H   UNL     1       2.280  -2.178  25.503  0.00  0.00    +0.210 HD
ENDBRANCH  38  39
ENDBRANCH  31  38
ENDBRANCH  26  29
ENDBRANCH   1  26
TORSDOF 12
ENDMDL
MODEL 4
REMARK VINA RESULT:      -6.6      2.609      7.807
REMARK  Name = 
REMARK  13 active torsions:
REMARK  status: ('A' for Active; 'I' for Inactive)
REMARK    1  A    between atoms: C_1  and  C_2
REMARK    2  A    between atoms: C_2  and  O_4
REMARK    3  A    between atoms: O_4  and  C_5
REMARK    4  A    between atoms: C_7  and  C_37
REMARK    5  A    between atoms: C_10  and  O_15
REMARK    6  A    between atoms: C_12  and  O_14
REMARK    7  A    between atoms: O_15  and  C_16
REMARK    8  A    between atoms: C_17  and  C_29
REMARK    9  A    between atoms: C_21  and  O_28
REMARK   10  A    between atoms: C_23  and  O_27
REMARK   11  A    between atoms: C_31  and  O_36
REMARK   12  A    between atoms: C_32  and  O_35
REMARK   13  A    between atoms: C_37  and  O_38
REMARK                            x       y       z     vdW  Elec       q    Type
REMARK                         _______ _______ _______ _____ _____    ______ ____
ROOT
ATOM      1  C   UNL     1       7.581  -2.816  25.177  0.00  0.00    +0.214 A 
ATOM      2  C   UNL     1       8.811  -2.489  24.399  0.00  0.00    +0.238 A 
ATOM      3  O   UNL     1       9.838  -3.130  24.568  0.00  0.00    -0.283 OA
ATOM      4  C   UNL     1       8.801  -1.347  23.491  0.00  0.00    +0.109 A 
ATOM      5  C   UNL     1       7.727  -0.476  23.585  0.00  0.00    +0.147 A 
ATOM      6  C   UNL     1       7.662   0.637  22.744  0.00  0.00    +0.092 A 
ATOM      7  C   UNL     1       8.695   0.862  21.829  0.00  0.00    +0.124 A 
ATOM      8  C   UNL     1       9.786   0.005  21.749  0.00  0.00    +0.091 A 
ATOM      9  O   UNL     1       6.724  -0.644  24.502  0.00  0.00    -0.451 OA
ATOM     10  C   UNL     1       9.840  -1.105  22.582  0.00  0.00    +0.135 A 
ATOM     11  C   UNL     1       6.670  -1.801  25.270  0.00  0.00    +0.181 A 
ENDROOT
BRANCH  11  12
ATOM     12  C   UNL     1       5.559  -1.729  26.276  0.00  0.00    +0.025 A 
ATOM     13  C   UNL     1       4.299  -2.298  25.955  0.00  0.00    +0.015 A 
ATOM     14  C   UNL     1       3.187  -2.170  26.799  0.00  0.00    +0.050 A 
ATOM     15  C   UNL     1       3.321  -1.448  27.969  0.00  0.00    +0.158 A 
ATOM     16  C   UNL     1       4.554  -0.909  28.322  0.00  0.00    +0.159 A 
ATOM     17  C   UNL     1       5.679  -1.079  27.511  0.00  0.00    +0.060 A 
BRANCH  15  18
ATOM     18  O   UNL     1       2.225  -1.227  28.751  0.00  0.00    -0.503 OA
ATOM     19  H   UNL     1       2.180  -2.008  29.339  0.00  0.00    +0.292 HD
ENDBRANCH  15  18
BRANCH  16  20
ATOM     20  O   UNL     1       4.606  -0.155  29.463  0.00  0.00    -0.503 OA
ATOM     21  H   UNL     1       4.519   0.777  29.195  0.00  0.00    +0.292 HD
ENDBRANCH  16  20
ENDBRANCH  11  12
BRANCH   7  22
ATOM     22  O   UNL     1       8.680   1.925  20.977  0.00  0.00    -0.507 OA
ATOM     23  H   UNL     1       8.554   1.609  20.069  0.00  0.00    +0.292 HD
ENDBRANCH   7  22
BRANCH  10  24
ATOM     24  O   UNL     1      10.905  -1.951  22.487  0.00  0.00    -0.506 OA
ATOM     25  H   UNL     1      10.896  -2.590  23.216  0.00  0.00    +0.292 HD
ENDBRANCH  10  24
BRANCH   1  26
ATOM     26  O   UNL     1       7.527  -4.018  25.894  0.00  0.00    -0.453 OA
BRANCH  26  29
ATOM     27  C   UNL     1       4.726  -5.836  24.508  0.00  0.00    +0.242 C 
ATOM     28  C   UNL     1       5.567  -5.543  25.741  0.00  0.00    +0.226 C 
ATOM     29  C   UNL     1       6.975  -5.177  25.190  0.00  0.00    +0.341 C 
ATOM     30  O   UNL     1       6.808  -4.859  23.781  0.00  0.00    -0.330 OA
ATOM     31  C   UNL     1       5.427  -5.063  23.401  0.00  0.00    +0.191 C 
BRANCH  28  32
ATOM     32  O   UNL     1       5.461  -6.642  26.644  0.00  0.00    -0.382 OA
ATOM     33  H   UNL     1       5.177  -7.424  26.117  0.00  0.00    +0.210 HD
ENDBRANCH  28  32
BRANCH  27  34
ATOM     34  O   UNL     1       4.451  -7.240  24.252  0.00  0.00    -0.456 OA
BRANCH  34  36
ATOM     35  C   UNL     1       2.247  -6.931  23.507  0.00  0.00    +0.136 C 
ATOM     36  C   UNL     1       3.192  -7.742  24.345  0.00  0.00    +0.304 C 
ATOM     37  O   UNL     1       2.869  -8.739  24.969  0.00  0.00    -0.251 OA
ENDBRANCH  34  36
ENDBRANCH  27  34
BRANCH  31  38
ATOM     38  C   UNL     1       5.303  -5.712  22.020  0.00  0.00    +0.191 C 
BRANCH  38  39
ATOM     39  O   UNL     1       6.182  -6.827  21.908  0.00  0.00    -0.392 OA
ATOM     40  H   UNL     1       5.599  -7.601  21.787  0.00  0.00    +0.210 HD
ENDBRANCH  38  39
ENDBRANCH  31  38
ENDBRANCH  26  29
ENDBRANCH   1  26
TORSDOF 12
ENDMDL
MODEL 5
REMARK VINA RESULT:      -6.6      2.588      7.509
REMARK  Name = 
REMARK  13 active torsions:
REMARK  status: ('A' for Active; 'I' for Inactive)
REMARK    1  A    between atoms: C_1  and  C_2
REMARK    2  A    between atoms: C_2  and  O_4
REMARK    3  A    between atoms: O_4  and  C_5
REMARK    4  A    between atoms: C_7  and  C_37
REMARK    5  A    between atoms: C_10  and  O_15
REMARK    6  A    between atoms: C_12  and  O_14
REMARK    7  A    between atoms: O_15  and  C_16
REMARK    8  A    between atoms: C_17  and  C_29
REMARK    9  A    between atoms: C_21  and  O_28
REMARK   10  A    between atoms: C_23  and  O_27
REMARK   11  A    between atoms: C_31  and  O_36
REMARK   12  A    between atoms: C_32  and  O_35
REMARK   13  A    between atoms: C_37  and  O_38
REMARK                            x       y       z     vdW  Elec       q    Type
REMARK                         _______ _______ _______ _____ _____    ______ ____
ROOT
ATOM      1  C   UNL     1       6.827  -0.529  25.147  0.00  0.00    +0.214 A 
ATOM      2  C   UNL     1       6.518   0.774  24.492  0.00  0.00    +0.238 A 
ATOM      3  O   UNL     1       5.381   1.024  24.116  0.00  0.00    -0.283 OA
ATOM      4  C   UNL     1       7.600   1.719  24.232  0.00  0.00    +0.109 A 
ATOM      5  C   UNL     1       8.895   1.250  24.382  0.00  0.00    +0.147 A 
ATOM      6  C   UNL     1       9.973   2.106  24.146  0.00  0.00    +0.092 A 
ATOM      7  C   UNL     1       9.724   3.421  23.743  0.00  0.00    +0.124 A 
ATOM      8  C   UNL     1       8.427   3.888  23.567  0.00  0.00    +0.091 A 
ATOM      9  O   UNL     1       9.171  -0.045  24.729  0.00  0.00    -0.451 OA
ATOM     10  C   UNL     1       7.360   3.035  23.814  0.00  0.00    +0.135 A 
ATOM     11  C   UNL     1       8.142  -0.900  25.105  0.00  0.00    +0.181 A 
ENDROOT
BRANCH  11  12
ATOM     12  C   UNL     1       8.654  -2.291  25.339  0.00  0.00    +0.025 A 
ATOM     13  C   UNL     1       9.553  -2.863  24.401  0.00  0.00    +0.015 A 
ATOM     14  C   UNL     1       9.983  -4.193  24.499  0.00  0.00    +0.050 A 
ATOM     15  C   UNL     1       9.498  -4.975  25.529  0.00  0.00    +0.158 A 
ATOM     16  C   UNL     1       8.642  -4.428  26.480  0.00  0.00    +0.159 A 
ATOM     17  C   UNL     1       8.252  -3.087  26.419  0.00  0.00    +0.060 A 
BRANCH  15  18
ATOM     18  O   UNL     1       9.825  -6.299  25.579  0.00  0.00    -0.503 OA
ATOM     19  H   UNL     1       9.200  -6.730  24.961  0.00  0.00    +0.292 HD
ENDBRANCH  15  18
BRANCH  16  20
ATOM     20  O   UNL     1       8.151  -5.270  27.440  0.00  0.00    -0.503 OA
ATOM     21  H   UNL     1       8.203  -4.797  28.290  0.00  0.00    +0.292 HD
ENDBRANCH  16  20
ENDBRANCH  11  12
BRANCH   7  22
ATOM     22  O   UNL     1      10.736   4.303  23.508  0.00  0.00    -0.507 OA
ATOM     23  H   UNL     1      10.545   5.141  23.959  0.00  0.00    +0.292 HD
ENDBRANCH   7  22
BRANCH  10  24
ATOM     24  O   UNL     1       6.089   3.503  23.655  0.00  0.00    -0.506 OA
ATOM     25  H   UNL     1       5.514   2.809  23.299  0.00  0.00    +0.292 HD
ENDBRANCH  10  24
BRANCH   1  26
ATOM     26  O   UNL     1       5.771  -1.345  25.572  0.00  0.00    -0.453 OA
BRANCH  26  29
ATOM     27  C   UNL     1       5.979  -4.172  23.328  0.00  0.00    +0.242 C 
ATOM     28  C   UNL     1       6.246  -2.689  23.532  0.00  0.00    +0.226 C 
ATOM     29  C   UNL     1       5.178  -2.226  24.565  0.00  0.00    +0.341 C 
ATOM     30  O   UNL     1       4.663  -3.425  25.206  0.00  0.00    -0.330 OA
ATOM     31  C   UNL     1       5.275  -4.592  24.610  0.00  0.00    +0.191 C 
BRANCH  28  32
ATOM     32  O   UNL     1       6.276  -2.046  22.259  0.00  0.00    -0.382 OA
ATOM     33  H   UNL     1       6.476  -1.095  22.420  0.00  0.00    +0.210 HD
ENDBRANCH  28  32
BRANCH  27  34
ATOM     34  O   UNL     1       5.328  -4.529  22.077  0.00  0.00    -0.456 OA
BRANCH  34  36
ATOM     35  C   UNL     1       7.180  -5.895  21.614  0.00  0.00    +0.136 C 
ATOM     36  C   UNL     1       6.016  -5.120  21.066  0.00  0.00    +0.304 C 
ATOM     37  O   UNL     1       5.713  -5.084  19.885  0.00  0.00    -0.251 OA
ENDBRANCH  34  36
ENDBRANCH  27  34
BRANCH  31  38
ATOM     38  C   UNL     1       4.271  -5.732  24.418  0.00  0.00    +0.191 C 
BRANCH  38  39
ATOM     39  O   UNL     1       4.913  -6.881  23.873  0.00  0.00    -0.392 OA
ATOM     40  H   UNL     1       4.297  -7.219  23.195  0.00  0.00    +0.210 HD
ENDBRANCH  38  39
ENDBRANCH  31  38
ENDBRANCH  26  29
ENDBRANCH   1  26
TORSDOF 12
ENDMDL
MODEL 6
REMARK VINA RESULT:      -6.5      2.853      6.122
REMARK  Name = 
REMARK  13 active torsions:
REMARK  status: ('A' for Active; 'I' for Inactive)
REMARK    1  A    between atoms: C_1  and  C_2
REMARK    2  A    between atoms: C_2  and  O_4
REMARK    3  A    between atoms: O_4  and  C_5
REMARK    4  A    between atoms: C_7  and  C_37
REMARK    5  A    between atoms: C_10  and  O_15
REMARK    6  A    between atoms: C_12  and  O_14
REMARK    7  A    between atoms: O_15  and  C_16
REMARK    8  A    between atoms: C_17  and  C_29
REMARK    9  A    between atoms: C_21  and  O_28
REMARK   10  A    between atoms: C_23  and  O_27
REMARK   11  A    between atoms: C_31  and  O_36
REMARK   12  A    between atoms: C_32  and  O_35
REMARK   13  A    between atoms: C_37  and  O_38
REMARK                            x       y       z     vdW  Elec       q    Type
REMARK                         _______ _______ _______ _____ _____    ______ ____
ROOT
ATOM      1  C   UNL     1       7.663  -2.140  25.335  0.00  0.00    +0.214 A 
ATOM      2  C   UNL     1       7.143  -3.534  25.435  0.00  0.00    +0.238 A 
ATOM      3  O   UNL     1       7.122  -4.112  26.512  0.00  0.00    -0.283 OA
ATOM      4  C   UNL     1       6.731  -4.233  24.221  0.00  0.00    +0.109 A 
ATOM      5  C   UNL     1       7.079  -3.653  23.012  0.00  0.00    +0.147 A 
ATOM      6  C   UNL     1       6.715  -4.274  21.815  0.00  0.00    +0.092 A 
ATOM      7  C   UNL     1       6.017  -5.485  21.860  0.00  0.00    +0.124 A 
ATOM      8  C   UNL     1       5.689  -6.083  23.071  0.00  0.00    +0.091 A 
ATOM      9  O   UNL     1       7.802  -2.492  22.935  0.00  0.00    -0.451 OA
ATOM     10  C   UNL     1       6.046  -5.454  24.257  0.00  0.00    +0.135 A 
ATOM     11  C   UNL     1       8.073  -1.765  24.088  0.00  0.00    +0.181 A 
ENDROOT
BRANCH  11  12
ATOM     12  C   UNL     1       8.963  -0.593  23.788  0.00  0.00    +0.025 A 
ATOM     13  C   UNL     1       9.987  -0.251  24.709  0.00  0.00    +0.015 A 
ATOM     14  C   UNL     1      10.780   0.893  24.549  0.00  0.00    +0.050 A 
ATOM     15  C   UNL     1      10.539   1.723  23.472  0.00  0.00    +0.158 A 
ATOM     16  C   UNL     1       9.564   1.393  22.537  0.00  0.00    +0.159 A 
ATOM     17  C   UNL     1       8.806   0.225  22.661  0.00  0.00    +0.060 A 
BRANCH  15  18
ATOM     18  O   UNL     1      11.232   2.894  23.358  0.00  0.00    -0.503 OA
ATOM     19  H   UNL     1      11.664   2.839  22.481  0.00  0.00    +0.292 HD
ENDBRANCH  15  18
BRANCH  16  20
ATOM     20  O   UNL     1       9.334   2.285  21.526  0.00  0.00    -0.503 OA
ATOM     21  H   UNL     1       8.429   2.625  21.643  0.00  0.00    +0.292 HD
ENDBRANCH  16  20
ENDBRANCH  11  12
BRANCH   7  22
ATOM     22  O   UNL     1       5.628  -6.131  20.725  0.00  0.00    -0.507 OA
ATOM     23  H   UNL     1       5.686  -5.523  19.972  0.00  0.00    +0.292 HD
ENDBRANCH   7  22
BRANCH  10  24
ATOM     24  O   UNL     1       5.706  -6.038  25.442  0.00  0.00    -0.506 OA
ATOM     25  H   UNL     1       6.348  -6.725  25.677  0.00  0.00    +0.292 HD
ENDBRANCH  10  24
BRANCH   1  26
ATOM     26  O   UNL     1       7.871  -1.406  26.510  0.00  0.00    -0.453 OA
BRANCH  26  29
ATOM     27  C   UNL     1       6.824   2.053  26.585  0.00  0.00    +0.242 C 
ATOM     28  C   UNL     1       7.571   0.936  27.296  0.00  0.00    +0.226 C 
ATOM     29  C   UNL     1       6.880  -0.375  26.823  0.00  0.00    +0.341 C 
ATOM     30  O   UNL     1       6.123  -0.045  25.626  0.00  0.00    -0.330 OA
ATOM     31  C   UNL     1       6.236   1.372  25.359  0.00  0.00    +0.191 C 
BRANCH  28  32
ATOM     32  O   UNL     1       7.601   1.216  28.694  0.00  0.00    -0.382 OA
ATOM     33  H   UNL     1       6.735   0.931  29.065  0.00  0.00    +0.210 HD
ENDBRANCH  28  32
BRANCH  27  34
ATOM     34  O   UNL     1       5.905   2.821  27.411  0.00  0.00    -0.456 OA
BRANCH  34  36
ATOM     35  C   UNL     1       5.169   5.049  27.480  0.00  0.00    +0.136 C 
ATOM     36  C   UNL     1       6.230   4.059  27.867  0.00  0.00    +0.304 C 
ATOM     37  O   UNL     1       7.208   4.333  28.542  0.00  0.00    -0.251 OA
ENDBRANCH  34  36
ENDBRANCH  27  34
BRANCH  31  38
ATOM     38  C   UNL     1       4.908   1.975  24.894  0.00  0.00    +0.191 C 
BRANCH  38  39
ATOM     39  O   UNL     1       3.840   1.546  25.734  0.00  0.00    -0.392 OA
ATOM     40  H   UNL     1       3.139   1.248  25.123  0.00  0.00    +0.210 HD
ENDBRANCH  38  39
ENDBRANCH  31  38
ENDBRANCH  26  29
ENDBRANCH   1  26
TORSDOF 12
ENDMDL
MODEL 7
REMARK VINA RESULT:      -6.4      1.804      6.701
REMARK  Name = 
REMARK  13 active torsions:
REMARK  status: ('A' for Active; 'I' for Inactive)
REMARK    1  A    between atoms: C_1  and  C_2
REMARK    2  A    between atoms: C_2  and  O_4
REMARK    3  A    between atoms: O_4  and  C_5
REMARK    4  A    between atoms: C_7  and  C_37
REMARK    5  A    between atoms: C_10  and  O_15
REMARK    6  A    between atoms: C_12  and  O_14
REMARK    7  A    between atoms: O_15  and  C_16
REMARK    8  A    between atoms: C_17  and  C_29
REMARK    9  A    between atoms: C_21  and  O_28
REMARK   10  A    between atoms: C_23  and  O_27
REMARK   11  A    between atoms: C_31  and  O_36
REMARK   12  A    between atoms: C_32  and  O_35
REMARK   13  A    between atoms: C_37  and  O_38
REMARK                            x       y       z     vdW  Elec       q    Type
REMARK                         _______ _______ _______ _____ _____    ______ ____
ROOT
ATOM      1  C   UNL     1       8.337  -2.872  24.706  0.00  0.00    +0.214 A 
ATOM      2  C   UNL     1       8.980  -1.597  25.133  0.00  0.00    +0.238 A 
ATOM      3  O   UNL     1       9.404  -1.468  26.273  0.00  0.00    -0.283 OA
ATOM      4  C   UNL     1       9.029  -0.473  24.203  0.00  0.00    +0.109 A 
ATOM      5  C   UNL     1       8.254  -0.569  23.058  0.00  0.00    +0.147 A 
ATOM      6  C   UNL     1       8.257   0.475  22.130  0.00  0.00    +0.092 A 
ATOM      7  C   UNL     1       9.033   1.610  22.383  0.00  0.00    +0.124 A 
ATOM      8  C   UNL     1       9.792   1.721  23.542  0.00  0.00    +0.091 A 
ATOM      9  O   UNL     1       7.448  -1.646  22.805  0.00  0.00    -0.451 OA
ATOM     10  C   UNL     1       9.791   0.675  24.456  0.00  0.00    +0.135 A 
ATOM     11  C   UNL     1       7.508  -2.768  23.625  0.00  0.00    +0.181 A 
ENDROOT
BRANCH  11  12
ATOM     12  C   UNL     1       6.471  -3.779  23.231  0.00  0.00    +0.025 A 
ATOM     13  C   UNL     1       5.106  -3.514  23.514  0.00  0.00    +0.015 A 
ATOM     14  C   UNL     1       4.100  -4.460  23.275  0.00  0.00    +0.050 A 
ATOM     15  C   UNL     1       4.455  -5.695  22.769  0.00  0.00    +0.158 A 
ATOM     16  C   UNL     1       5.781  -5.967  22.452  0.00  0.00    +0.159 A 
ATOM     17  C   UNL     1       6.782  -5.009  22.636  0.00  0.00    +0.060 A 
BRANCH  15  18
ATOM     18  O   UNL     1       3.502  -6.662  22.628  0.00  0.00    -0.503 OA
ATOM     19  H   UNL     1       4.000  -7.505  22.660  0.00  0.00    +0.292 HD
ENDBRANCH  15  18
BRANCH  16  20
ATOM     20  O   UNL     1       6.076  -7.228  22.009  0.00  0.00    -0.503 OA
ATOM     21  H   UNL     1       5.378  -7.819  22.343  0.00  0.00    +0.292 HD
ENDBRANCH  16  20
ENDBRANCH  11  12
BRANCH   7  22
ATOM     22  O   UNL     1       9.082   2.654  21.509  0.00  0.00    -0.507 OA
ATOM     23  H   UNL     1      10.006   2.829  21.267  0.00  0.00    +0.292 HD
ENDBRANCH   7  22
BRANCH  10  24
ATOM     24  O   UNL     1      10.551   0.783  25.584  0.00  0.00    -0.506 OA
ATOM     25  H   UNL     1      10.986  -0.061  25.780  0.00  0.00    +0.292 HD
ENDBRANCH  10  24
BRANCH   1  26
ATOM     26  O   UNL     1       8.463  -4.005  25.520  0.00  0.00    -0.453 OA
BRANCH  26  29
ATOM     27  C   UNL     1       5.480  -4.452  27.514  0.00  0.00    +0.242 C 
ATOM     28  C   UNL     1       6.287  -3.518  26.626  0.00  0.00    +0.226 C 
ATOM     29  C   UNL     1       7.766  -3.968  26.807  0.00  0.00    +0.341 C 
ATOM     30  O   UNL     1       7.733  -5.302  27.384  0.00  0.00    -0.330 OA
ATOM     31  C   UNL     1       6.362  -5.686  27.635  0.00  0.00    +0.191 C 
BRANCH  28  32
ATOM     32  O   UNL     1       5.949  -2.170  26.945  0.00  0.00    -0.382 OA
ATOM     33  H   UNL     1       6.002  -1.652  26.110  0.00  0.00    +0.210 HD
ENDBRANCH  28  32
BRANCH  27  34
ATOM     34  O   UNL     1       4.989  -3.874  28.754  0.00  0.00    -0.456 OA
BRANCH  34  36
ATOM     35  C   UNL     1       2.859  -4.270  27.851  0.00  0.00    +0.136 C 
ATOM     36  C   UNL     1       3.663  -3.858  29.050  0.00  0.00    +0.304 C 
ATOM     37  O   UNL     1       3.183  -3.603  30.142  0.00  0.00    -0.251 OA
ENDBRANCH  34  36
ENDBRANCH  27  34
BRANCH  31  38
ATOM     38  C   UNL     1       6.208  -6.426  28.966  0.00  0.00    +0.191 C 
BRANCH  38  39
ATOM     39  O   UNL     1       5.457  -7.623  28.792  0.00  0.00    -0.392 OA
ATOM     40  H   UNL     1       5.863  -8.270  29.401  0.00  0.00    +0.210 HD
ENDBRANCH  38  39
ENDBRANCH  31  38
ENDBRANCH  26  29
ENDBRANCH   1  26
TORSDOF 12
ENDMDL
MODEL 8
REMARK VINA RESULT:      -6.4      2.674      4.370
REMARK  Name = 
REMARK  13 active torsions:
REMARK  status: ('A' for Active; 'I' for Inactive)
REMARK    1  A    between atoms: C_1  and  C_2
REMARK    2  A    between atoms: C_2  and  O_4
REMARK    3  A    between atoms: O_4  and  C_5
REMARK    4  A    between atoms: C_7  and  C_37
REMARK    5  A    between atoms: C_10  and  O_15
REMARK    6  A    between atoms: C_12  and  O_14
REMARK    7  A    between atoms: O_15  and  C_16
REMARK    8  A    between atoms: C_17  and  C_29
REMARK    9  A    between atoms: C_21  and  O_28
REMARK   10  A    between atoms: C_23  and  O_27
REMARK   11  A    between atoms: C_31  and  O_36
REMARK   12  A    between atoms: C_32  and  O_35
REMARK   13  A    between atoms: C_37  and  O_38
REMARK                            x       y       z     vdW  Elec       q    Type
REMARK                         _______ _______ _______ _____ _____    ______ ____
ROOT
ATOM      1  C   UNL     1       7.034  -3.782  25.432  0.00  0.00    +0.214 A 
ATOM      2  C   UNL     1       6.447  -5.115  25.754  0.00  0.00    +0.238 A 
ATOM      3  O   UNL     1       6.929  -5.805  26.641  0.00  0.00    -0.283 OA
ATOM      4  C   UNL     1       5.341  -5.622  24.950  0.00  0.00    +0.109 A 
ATOM      5  C   UNL     1       5.057  -4.949  23.772  0.00  0.00    +0.147 A 
ATOM      6  C   UNL     1       4.011  -5.388  22.958  0.00  0.00    +0.092 A 
ATOM      7  C   UNL     1       3.276  -6.515  23.340  0.00  0.00    +0.124 A 
ATOM      8  C   UNL     1       3.573  -7.208  24.507  0.00  0.00    +0.091 A 
ATOM      9  O   UNL     1       5.788  -3.872  23.348  0.00  0.00    -0.451 OA
ATOM     10  C   UNL     1       4.609  -6.760  25.317  0.00  0.00    +0.135 A 
ATOM     11  C   UNL     1       6.750  -3.313  24.180  0.00  0.00    +0.181 A 
ENDROOT
BRANCH  11  12
ATOM     12  C   UNL     1       7.499  -2.217  23.479  0.00  0.00    +0.025 A 
ATOM     13  C   UNL     1       6.856  -0.970  23.266  0.00  0.00    +0.015 A 
ATOM     14  C   UNL     1       7.454   0.058  22.523  0.00  0.00    +0.050 A 
ATOM     15  C   UNL     1       8.697  -0.163  21.964  0.00  0.00    +0.158 A 
ATOM     16  C   UNL     1       9.361  -1.365  22.186  0.00  0.00    +0.159 A 
ATOM     17  C   UNL     1       8.795  -2.373  22.971  0.00  0.00    +0.060 A 
BRANCH  15  18
ATOM     18  O   UNL     1       9.247   0.787  21.152  0.00  0.00    -0.503 OA
ATOM     19  H   UNL     1       9.554   0.291  20.366  0.00  0.00    +0.292 HD
ENDBRANCH  15  18
BRANCH  16  20
ATOM     20  O   UNL     1      10.563  -1.544  21.556  0.00  0.00    -0.503 OA
ATOM     21  H   UNL     1      10.523  -1.052  20.717  0.00  0.00    +0.292 HD
ENDBRANCH  16  20
ENDBRANCH  11  12
BRANCH   7  22
ATOM     22  O   UNL     1       2.238  -6.983  22.590  0.00  0.00    -0.507 OA
ATOM     23  H   UNL     1       2.229  -6.528  21.733  0.00  0.00    +0.292 HD
ENDBRANCH   7  22
BRANCH  10  24
ATOM     24  O   UNL     1       4.885  -7.434  26.469  0.00  0.00    -0.506 OA
ATOM     25  H   UNL     1       4.853  -6.833  27.229  0.00  0.00    +0.292 HD
ENDBRANCH  10  24
BRANCH   1  26
ATOM     26  O   UNL     1       7.957  -3.212  26.318  0.00  0.00    -0.453 OA
BRANCH  26  29
ATOM     27  C   UNL     1       7.056   0.252  26.822  0.00  0.00    +0.242 C 
ATOM     28  C   UNL     1       8.168  -0.784  26.823  0.00  0.00    +0.226 C 
ATOM     29  C   UNL     1       7.465  -2.128  27.170  0.00  0.00    +0.341 C 
ATOM     30  O   UNL     1       6.042  -1.933  26.940  0.00  0.00    -0.330 OA
ATOM     31  C   UNL     1       5.802  -0.562  26.543  0.00  0.00    +0.191 C 
BRANCH  28  32
ATOM     32  O   UNL     1       9.219  -0.334  27.675  0.00  0.00    -0.382 OA
ATOM     33  H   UNL     1      10.066  -0.484  27.195  0.00  0.00    +0.210 HD
ENDBRANCH  28  32
BRANCH  27  34
ATOM     34  O   UNL     1       7.019   1.137  27.975  0.00  0.00    -0.456 OA
BRANCH  34  36
ATOM     35  C   UNL     1       7.148   2.856  26.382  0.00  0.00    +0.136 C 
ATOM     36  C   UNL     1       7.122   2.485  27.836  0.00  0.00    +0.304 C 
ATOM     37  O   UNL     1       7.136   3.293  28.749  0.00  0.00    -0.251 OA
ENDBRANCH  34  36
ENDBRANCH  27  34
BRANCH  31  38
ATOM     38  C   UNL     1       4.538   0.008  27.191  0.00  0.00    +0.191 C 
BRANCH  38  39
ATOM     39  O   UNL     1       3.782   0.756  26.243  0.00  0.00    -0.392 OA
ATOM     40  H   UNL     1       2.923   0.296  26.182  0.00  0.00    +0.210 HD
ENDBRANCH  38  39
ENDBRANCH  31  38
ENDBRANCH  26  29
ENDBRANCH   1  26
TORSDOF 12
ENDMDL
MODEL 9
REMARK VINA RESULT:      -6.4      2.882      6.019
REMARK  Name = 
REMARK  13 active torsions:
REMARK  status: ('A' for Active; 'I' for Inactive)
REMARK    1  A    between atoms: C_1  and  C_2
REMARK    2  A    between atoms: C_2  and  O_4
REMARK    3  A    between atoms: O_4  and  C_5
REMARK    4  A    between atoms: C_7  and  C_37
REMARK    5  A    between atoms: C_10  and  O_15
REMARK    6  A    between atoms: C_12  and  O_14
REMARK    7  A    between atoms: O_15  and  C_16
REMARK    8  A    between atoms: C_17  and  C_29
REMARK    9  A    between atoms: C_21  and  O_28
REMARK   10  A    between atoms: C_23  and  O_27
REMARK   11  A    between atoms: C_31  and  O_36
REMARK   12  A    between atoms: C_32  and  O_35
REMARK   13  A    between atoms: C_37  and  O_38
REMARK                            x       y       z     vdW  Elec       q    Type
REMARK                         _______ _______ _______ _____ _____    ______ ____
ROOT
ATOM      1  C   UNL     1       7.726  -2.305  24.589  0.00  0.00    +0.214 A 
ATOM      2  C   UNL     1       7.610  -3.276  23.463  0.00  0.00    +0.238 A 
ATOM      3  O   UNL     1       8.256  -3.114  22.437  0.00  0.00    -0.283 OA
ATOM      4  C   UNL     1       6.661  -4.380  23.564  0.00  0.00    +0.109 A 
ATOM      5  C   UNL     1       5.739  -4.325  24.596  0.00  0.00    +0.147 A 
ATOM      6  C   UNL     1       4.803  -5.351  24.744  0.00  0.00    +0.092 A 
ATOM      7  C   UNL     1       4.804  -6.411  23.833  0.00  0.00    +0.124 A 
ATOM      8  C   UNL     1       5.711  -6.457  22.781  0.00  0.00    +0.091 A 
ATOM      9  O   UNL     1       5.682  -3.277  25.475  0.00  0.00    -0.451 OA
ATOM     10  C   UNL     1       6.645  -5.439  22.646  0.00  0.00    +0.135 A 
ATOM     11  C   UNL     1       6.670  -2.299  25.456  0.00  0.00    +0.181 A 
ENDROOT
BRANCH  11  12
ATOM     12  C   UNL     1       6.356  -1.197  26.426  0.00  0.00    +0.025 A 
ATOM     13  C   UNL     1       5.053  -0.635  26.433  0.00  0.00    +0.015 A 
ATOM     14  C   UNL     1       4.723   0.468  27.233  0.00  0.00    +0.050 A 
ATOM     15  C   UNL     1       5.705   1.037  28.019  0.00  0.00    +0.158 A 
ATOM     16  C   UNL     1       6.981   0.484  28.055  0.00  0.00    +0.159 A 
ATOM     17  C   UNL     1       7.302  -0.649  27.302  0.00  0.00    +0.060 A 
BRANCH  15  18
ATOM     18  O   UNL     1       5.429   2.172  28.723  0.00  0.00    -0.503 OA
ATOM     19  H   UNL     1       5.229   1.858  29.629  0.00  0.00    +0.292 HD
ENDBRANCH  15  18
BRANCH  16  20
ATOM     20  O   UNL     1       7.924   1.128  28.808  0.00  0.00    -0.503 OA
ATOM     21  H   UNL     1       8.777   0.690  28.637  0.00  0.00    +0.292 HD
ENDBRANCH  16  20
ENDBRANCH  11  12
BRANCH   7  22
ATOM     22  O   UNL     1       3.921  -7.445  23.934  0.00  0.00    -0.507 OA
ATOM     23  H   UNL     1       3.516  -7.438  24.816  0.00  0.00    +0.292 HD
ENDBRANCH   7  22
BRANCH  10  24
ATOM     24  O   UNL     1       7.543  -5.498  21.622  0.00  0.00    -0.506 OA
ATOM     25  H   UNL     1       7.108  -5.302  20.778  0.00  0.00    +0.292 HD
ENDBRANCH  10  24
BRANCH   1  26
ATOM     26  O   UNL     1       8.766  -1.368  24.577  0.00  0.00    -0.453 OA
BRANCH  26  29
ATOM     27  C   UNL     1       8.042   2.033  23.588  0.00  0.00    +0.242 C 
ATOM     28  C   UNL     1       7.494   0.636  23.829  0.00  0.00    +0.226 C 
ATOM     29  C   UNL     1       8.692  -0.319  23.558  0.00  0.00    +0.341 C 
ATOM     30  O   UNL     1       9.898   0.493  23.604  0.00  0.00    -0.330 OA
ATOM     31  C   UNL     1       9.538   1.878  23.814  0.00  0.00    +0.191 C 
BRANCH  28  32
ATOM     32  O   UNL     1       6.307   0.465  23.056  0.00  0.00    -0.382 OA
ATOM     33  H   UNL     1       5.693  -0.092  23.586  0.00  0.00    +0.210 HD
ENDBRANCH  28  32
BRANCH  27  34
ATOM     34  O   UNL     1       7.630   2.666  22.346  0.00  0.00    -0.456 OA
BRANCH  34  36
ATOM     35  C   UNL     1       7.270   4.981  22.202  0.00  0.00    +0.136 C 
ATOM     36  C   UNL     1       6.658   3.616  22.325  0.00  0.00    +0.304 C 
ATOM     37  O   UNL     1       5.457   3.403  22.345  0.00  0.00    -0.251 OA
ENDBRANCH  34  36
ENDBRANCH  27  34
BRANCH  31  38
ATOM     38  C   UNL     1      10.392   2.826  22.968  0.00  0.00    +0.191 C 
BRANCH  38  39
ATOM     39  O   UNL     1      10.376   2.431  21.600  0.00  0.00    -0.392 OA
ATOM     40  H   UNL     1      11.140   2.885  21.194  0.00  0.00    +0.210 HD
ENDBRANCH  38  39
ENDBRANCH  31  38
ENDBRANCH  26  29
ENDBRANCH   1  26
TORSDOF 12
ENDMDL
