MODEL 1
REMARK VINA RESULT:      -7.5      0.000      0.000
REMARK  Name = 
REMARK  10 active torsions:
REMARK  status: ('A' for Active; 'I' for Inactive)
REMARK    1  A    between atoms: C_1  and  C_2
REMARK    2  A    between atoms: C_2  and  C_3
REMARK    3  A    between atoms: C_2  and  C_4
REMARK    4  A    between atoms: C_4  and  O_6
REMARK    5  A    between atoms: O_6  and  C_7
REMARK    6  A    between atoms: C_8  and  C_20
REMARK    7  A    between atoms: C_12  and  O_19
REMARK    8  A    between atoms: C_14  and  O_18
REMARK    9  A    between atoms: C_22  and  O_27
REMARK   10  A    between atoms: C_23  and  O_26
REMARK                            x       y       z     vdW  Elec       q    Type
REMARK                         _______ _______ _______ _____ _____    ______ ____
ROOT
ATOM      1  C   UNL     1       8.400  -1.951  23.154  0.00  0.00    +0.221 A 
ATOM      2  C   UNL     1       8.759  -0.729  22.382  0.00  0.00    +0.239 A 
ATOM      3  O   UNL     1       9.104  -0.834  21.211  0.00  0.00    -0.283 OA
ATOM      4  C   UNL     1       8.711   0.552  23.116  0.00  0.00    +0.109 A 
ATOM      5  C   UNL     1       8.483   0.508  24.494  0.00  0.00    +0.147 A 
ATOM      6  C   UNL     1       8.428   1.686  25.246  0.00  0.00    +0.092 A 
ATOM      7  C   UNL     1       8.607   2.908  24.607  0.00  0.00    +0.124 A 
ATOM      8  C   UNL     1       8.838   2.972  23.239  0.00  0.00    +0.091 A 
ATOM      9  O   UNL     1       8.315  -0.664  25.193  0.00  0.00    -0.451 OA
ATOM     10  C   UNL     1       8.890   1.793  22.492  0.00  0.00    +0.135 A 
ATOM     11  C   UNL     1       8.247  -1.850  24.484  0.00  0.00    +0.182 A 
ENDROOT
BRANCH  11  12
ATOM     12  C   UNL     1       7.991  -3.014  25.345  0.00  0.00    +0.025 A 
ATOM     13  C   UNL     1       8.946  -4.043  25.435  0.00  0.00    +0.015 A 
ATOM     14  C   UNL     1       8.755  -5.113  26.314  0.00  0.00    +0.050 A 
ATOM     15  C   UNL     1       7.616  -5.143  27.102  0.00  0.00    +0.158 A 
ATOM     16  C   UNL     1       6.655  -4.140  27.006  0.00  0.00    +0.159 A 
ATOM     17  C   UNL     1       6.828  -3.076  26.126  0.00  0.00    +0.060 A 
BRANCH  15  18
ATOM     18  O   UNL     1       7.451  -6.164  27.995  0.00  0.00    -0.503 OA
ATOM     19  H   UNL     1       7.210  -5.723  28.833  0.00  0.00    +0.292 HD
ENDBRANCH  15  18
BRANCH  16  20
ATOM     20  O   UNL     1       5.559  -4.234  27.819  0.00  0.00    -0.503 OA
ATOM     21  H   UNL     1       5.805  -3.903  28.701  0.00  0.00    +0.292 HD
ENDBRANCH  16  20
ENDBRANCH  11  12
BRANCH   7  22
ATOM     22  O   UNL     1       8.561   4.086  25.291  0.00  0.00    -0.507 OA
ATOM     23  H   UNL     1       9.199   4.057  26.024  0.00  0.00    +0.292 HD
ENDBRANCH   7  22
BRANCH  10  24
ATOM     24  O   UNL     1       9.108   1.878  21.147  0.00  0.00    -0.506 OA
ATOM     25  H   UNL     1       8.276   1.774  20.663  0.00  0.00    +0.292 HD
ENDBRANCH  10  24
BRANCH   1  26
ATOM     26  O   UNL     1       8.319  -3.160  22.453  0.00  0.00    -0.418 OA
BRANCH  26  27
ATOM     27  C   UNL     1       6.999  -3.515  22.288  0.00  0.00    +0.315 C 
ATOM     28  O   UNL     1       6.068  -2.736  22.114  0.00  0.00    -0.250 OA
BRANCH  27  30
ATOM     29  C   UNL     1       5.823  -5.339  23.491  0.00  0.00    +0.019 C 
ATOM     30  C   UNL     1       6.862  -5.022  22.426  0.00  0.00    +0.092 C 
ATOM     31  C   UNL     1       6.499  -5.662  21.088  0.00  0.00    +0.019 C 
ENDBRANCH  27  30
ENDBRANCH  26  27
ENDBRANCH   1  26
TORSDOF 8
ENDMDL
MODEL 2
REMARK VINA RESULT:      -7.2      2.166      6.491
REMARK  Name = 
REMARK  10 active torsions:
REMARK  status: ('A' for Active; 'I' for Inactive)
REMARK    1  A    between atoms: C_1  and  C_2
REMARK    2  A    between atoms: C_2  and  C_3
REMARK    3  A    between atoms: C_2  and  C_4
REMARK    4  A    between atoms: C_4  and  O_6
REMARK    5  A    between atoms: O_6  and  C_7
REMARK    6  A    between atoms: C_8  and  C_20
REMARK    7  A    between atoms: C_12  and  O_19
REMARK    8  A    between atoms: C_14  and  O_18
REMARK    9  A    between atoms: C_22  and  O_27
REMARK   10  A    between atoms: C_23  and  O_26
REMARK                            x       y       z     vdW  Elec       q    Type
REMARK                         _______ _______ _______ _____ _____    ______ ____
ROOT
ATOM      1  C   UNL     1       9.112  -1.117  24.287  0.00  0.00    +0.221 A 
ATOM      2  C   UNL     1       9.591  -2.528  24.317  0.00  0.00    +0.239 A 
ATOM      3  O   UNL     1      10.475  -2.882  23.545  0.00  0.00    -0.283 OA
ATOM      4  C   UNL     1       8.919  -3.431  25.273  0.00  0.00    +0.109 A 
ATOM      5  C   UNL     1       7.803  -2.945  25.959  0.00  0.00    +0.147 A 
ATOM      6  C   UNL     1       7.121  -3.752  26.876  0.00  0.00    +0.092 A 
ATOM      7  C   UNL     1       7.565  -5.051  27.096  0.00  0.00    +0.124 A 
ATOM      8  C   UNL     1       8.670  -5.554  26.421  0.00  0.00    +0.091 A 
ATOM      9  O   UNL     1       7.300  -1.678  25.778  0.00  0.00    -0.451 OA
ATOM     10  C   UNL     1       9.348  -4.743  25.509  0.00  0.00    +0.135 A 
ATOM     11  C   UNL     1       8.000  -0.801  24.970  0.00  0.00    +0.182 A 
ENDROOT
BRANCH  11  12
ATOM     12  C   UNL     1       7.393   0.538  24.922  0.00  0.00    +0.025 A 
ATOM     13  C   UNL     1       8.122   1.654  25.372  0.00  0.00    +0.015 A 
ATOM     14  C   UNL     1       7.591   2.942  25.254  0.00  0.00    +0.050 A 
ATOM     15  C   UNL     1       6.341   3.106  24.679  0.00  0.00    +0.158 A 
ATOM     16  C   UNL     1       5.604   2.006  24.249  0.00  0.00    +0.159 A 
ATOM     17  C   UNL     1       6.116   0.718  24.373  0.00  0.00    +0.060 A 
BRANCH  15  18
ATOM     18  O   UNL     1       5.842   4.368  24.520  0.00  0.00    -0.503 OA
ATOM     19  H   UNL     1       6.632   4.937  24.436  0.00  0.00    +0.292 HD
ENDBRANCH  15  18
BRANCH  16  20
ATOM     20  O   UNL     1       4.379   2.245  23.687  0.00  0.00    -0.503 OA
ATOM     21  H   UNL     1       4.328   1.752  22.849  0.00  0.00    +0.292 HD
ENDBRANCH  16  20
ENDBRANCH  11  12
BRANCH   7  22
ATOM     22  O   UNL     1       6.939  -5.880  27.980  0.00  0.00    -0.507 OA
ATOM     23  H   UNL     1       6.171  -5.422  28.362  0.00  0.00    +0.292 HD
ENDBRANCH   7  22
BRANCH  10  24
ATOM     24  O   UNL     1      10.438  -5.252  24.863  0.00  0.00    -0.506 OA
ATOM     25  H   UNL     1      10.161  -5.820  24.129  0.00  0.00    +0.292 HD
ENDBRANCH  10  24
BRANCH   1  26
ATOM     26  O   UNL     1       9.813  -0.212  23.481  0.00  0.00    -0.418 OA
BRANCH  26  27
ATOM     27  C   UNL     1       9.234  -0.155  22.233  0.00  0.00    +0.315 C 
ATOM     28  O   UNL     1       8.710  -1.096  21.648  0.00  0.00    -0.250 OA
BRANCH  27  30
ATOM     29  C   UNL     1       8.040   1.885  21.479  0.00  0.00    +0.019 C 
ATOM     30  C   UNL     1       9.407   1.242  21.661  0.00  0.00    +0.092 C 
ATOM     31  C   UNL     1      10.306   2.091  22.555  0.00  0.00    +0.019 C 
ENDBRANCH  27  30
ENDBRANCH  26  27
ENDBRANCH   1  26
TORSDOF 8
ENDMDL
MODEL 3
REMARK VINA RESULT:      -7.2      1.921      3.758
REMARK  Name = 
REMARK  10 active torsions:
REMARK  status: ('A' for Active; 'I' for Inactive)
REMARK    1  A    between atoms: C_1  and  C_2
REMARK    2  A    between atoms: C_2  and  C_3
REMARK    3  A    between atoms: C_2  and  C_4
REMARK    4  A    between atoms: C_4  and  O_6
REMARK    5  A    between atoms: O_6  and  C_7
REMARK    6  A    between atoms: C_8  and  C_20
REMARK    7  A    between atoms: C_12  and  O_19
REMARK    8  A    between atoms: C_14  and  O_18
REMARK    9  A    between atoms: C_22  and  O_27
REMARK   10  A    between atoms: C_23  and  O_26
REMARK                            x       y       z     vdW  Elec       q    Type
REMARK                         _______ _______ _______ _____ _____    ______ ____
ROOT
ATOM      1  C   UNL     1       8.550  -1.574  23.934  0.00  0.00    +0.221 A 
ATOM      2  C   UNL     1       9.235  -0.272  24.171  0.00  0.00    +0.239 A 
ATOM      3  O   UNL     1      10.236  -0.236  24.877  0.00  0.00    -0.283 OA
ATOM      4  C   UNL     1       8.617   0.919  23.554  0.00  0.00    +0.109 A 
ATOM      5  C   UNL     1       7.376   0.764  22.931  0.00  0.00    +0.147 A 
ATOM      6  C   UNL     1       6.738   1.854  22.330  0.00  0.00    +0.092 A 
ATOM      7  C   UNL     1       7.352   3.101  22.362  0.00  0.00    +0.124 A 
ATOM      8  C   UNL     1       8.584   3.276  22.979  0.00  0.00    +0.091 A 
ATOM      9  O   UNL     1       6.704  -0.434  22.878  0.00  0.00    -0.451 OA
ATOM     10  C   UNL     1       9.218   2.184  23.576  0.00  0.00    +0.135 A 
ATOM     11  C   UNL     1       7.339  -1.567  23.355  0.00  0.00    +0.182 A 
ENDROOT
BRANCH  11  12
ATOM     12  C   UNL     1       6.541  -2.788  23.169  0.00  0.00    +0.025 A 
ATOM     13  C   UNL     1       5.539  -3.120  24.099  0.00  0.00    +0.015 A 
ATOM     14  C   UNL     1       4.716  -4.230  23.890  0.00  0.00    +0.050 A 
ATOM     15  C   UNL     1       4.895  -4.996  22.749  0.00  0.00    +0.158 A 
ATOM     16  C   UNL     1       5.897  -4.688  21.832  0.00  0.00    +0.159 A 
ATOM     17  C   UNL     1       6.730  -3.592  22.036  0.00  0.00    +0.060 A 
BRANCH  15  18
ATOM     18  O   UNL     1       4.061  -6.054  22.521  0.00  0.00    -0.503 OA
ATOM     19  H   UNL     1       4.312  -6.715  23.194  0.00  0.00    +0.292 HD
ENDBRANCH  15  18
BRANCH  16  20
ATOM     20  O   UNL     1       6.010  -5.486  20.727  0.00  0.00    -0.503 OA
ATOM     21  H   UNL     1       6.390  -4.955  20.006  0.00  0.00    +0.292 HD
ENDBRANCH  16  20
ENDBRANCH  11  12
BRANCH   7  22
ATOM     22  O   UNL     1       6.775   4.196  21.791  0.00  0.00    -0.507 OA
ATOM     23  H   UNL     1       6.066   3.911  21.190  0.00  0.00    +0.292 HD
ENDBRANCH   7  22
BRANCH  10  24
ATOM     24  O   UNL     1      10.432   2.375  24.169  0.00  0.00    -0.506 OA
ATOM     25  H   UNL     1      10.349   2.971  24.926  0.00  0.00    +0.292 HD
ENDBRANCH  10  24
BRANCH   1  26
ATOM     26  O   UNL     1       9.181  -2.732  24.404  0.00  0.00    -0.418 OA
BRANCH  26  27
ATOM     27  C   UNL     1       8.713  -3.041  25.662  0.00  0.00    +0.315 C 
ATOM     28  O   UNL     1       8.304  -2.231  26.487  0.00  0.00    -0.250 OA
BRANCH  27  30
ATOM     29  C   UNL     1       7.752  -4.996  26.847  0.00  0.00    +0.019 C 
ATOM     30  C   UNL     1       8.847  -4.535  25.897  0.00  0.00    +0.092 C 
ATOM     31  C   UNL     1       8.796  -5.303  24.578  0.00  0.00    +0.019 C 
ENDBRANCH  27  30
ENDBRANCH  26  27
ENDBRANCH   1  26
TORSDOF 8
ENDMDL
MODEL 4
REMARK VINA RESULT:      -6.5      2.375      6.461
REMARK  Name = 
REMARK  10 active torsions:
REMARK  status: ('A' for Active; 'I' for Inactive)
REMARK    1  A    between atoms: C_1  and  C_2
REMARK    2  A    between atoms: C_2  and  C_3
REMARK    3  A    between atoms: C_2  and  C_4
REMARK    4  A    between atoms: C_4  and  O_6
REMARK    5  A    between atoms: O_6  and  C_7
REMARK    6  A    between atoms: C_8  and  C_20
REMARK    7  A    between atoms: C_12  and  O_19
REMARK    8  A    between atoms: C_14  and  O_18
REMARK    9  A    between atoms: C_22  and  O_27
REMARK   10  A    between atoms: C_23  and  O_26
REMARK                            x       y       z     vdW  Elec       q    Type
REMARK                         _______ _______ _______ _____ _____    ______ ____
ROOT
ATOM      1  C   UNL     1       7.270  -2.765  23.330  0.00  0.00    +0.221 A 
ATOM      2  C   UNL     1       6.840  -4.073  22.761  0.00  0.00    +0.239 A 
ATOM      3  O   UNL     1       7.164  -4.370  21.617  0.00  0.00    -0.283 OA
ATOM      4  C   UNL     1       5.998  -4.923  23.627  0.00  0.00    +0.109 A 
ATOM      5  C   UNL     1       5.548  -4.384  24.836  0.00  0.00    +0.147 A 
ATOM      6  C   UNL     1       4.746  -5.138  25.698  0.00  0.00    +0.092 A 
ATOM      7  C   UNL     1       4.394  -6.434  25.339  0.00  0.00    +0.124 A 
ATOM      8  C   UNL     1       4.828  -6.986  24.140  0.00  0.00    +0.091 A 
ATOM      9  O   UNL     1       5.843  -3.106  25.246  0.00  0.00    -0.451 OA
ATOM     10  C   UNL     1       5.631  -6.230  23.283  0.00  0.00    +0.135 A 
ATOM     11  C   UNL     1       6.724  -2.357  24.487  0.00  0.00    +0.182 A 
ENDROOT
BRANCH  11  12
ATOM     12  C   UNL     1       7.008  -1.040  25.078  0.00  0.00    +0.025 A 
ATOM     13  C   UNL     1       6.671   0.131  24.375  0.00  0.00    +0.015 A 
ATOM     14  C   UNL     1       6.856   1.387  24.960  0.00  0.00    +0.050 A 
ATOM     15  C   UNL     1       7.368   1.463  26.245  0.00  0.00    +0.158 A 
ATOM     16  C   UNL     1       7.724   0.311  26.942  0.00  0.00    +0.159 A 
ATOM     17  C   UNL     1       7.556  -0.945  26.365  0.00  0.00    +0.060 A 
BRANCH  15  18
ATOM     18  O   UNL     1       7.506   2.688  26.835  0.00  0.00    -0.503 OA
ATOM     19  H   UNL     1       7.567   3.315  26.089  0.00  0.00    +0.292 HD
ENDBRANCH  15  18
BRANCH  16  20
ATOM     20  O   UNL     1       8.220   0.464  28.208  0.00  0.00    -0.503 OA
ATOM     21  H   UNL     1       8.388   1.412  28.355  0.00  0.00    +0.292 HD
ENDBRANCH  16  20
ENDBRANCH  11  12
BRANCH   7  22
ATOM     22  O   UNL     1       3.616  -7.213  26.142  0.00  0.00    -0.507 OA
ATOM     23  H   UNL     1       3.109  -6.645  26.747  0.00  0.00    +0.292 HD
ENDBRANCH   7  22
BRANCH  10  24
ATOM     24  O   UNL     1       6.055  -6.794  22.115  0.00  0.00    -0.506 OA
ATOM     25  H   UNL     1       7.000  -6.629  21.983  0.00  0.00    +0.292 HD
ENDBRANCH  10  24
BRANCH   1  26
ATOM     26  O   UNL     1       8.168  -1.996  22.581  0.00  0.00    -0.418 OA
BRANCH  26  27
ATOM     27  C   UNL     1       9.431  -2.099  23.118  0.00  0.00    +0.315 C 
ATOM     28  O   UNL     1       9.846  -3.040  23.786  0.00  0.00    -0.250 OA
BRANCH  27  30
ATOM     29  C   UNL     1       9.479  -0.030  21.750  0.00  0.00    +0.019 C 
ATOM     30  C   UNL     1      10.214  -0.833  22.814  0.00  0.00    +0.092 C 
ATOM     31  C   UNL     1      10.433  -0.008  24.079  0.00  0.00    +0.019 C 
ENDBRANCH  27  30
ENDBRANCH  26  27
ENDBRANCH   1  26
TORSDOF 8
ENDMDL
MODEL 5
REMARK VINA RESULT:      -6.5      1.849      7.142
REMARK  Name = 
REMARK  10 active torsions:
REMARK  status: ('A' for Active; 'I' for Inactive)
REMARK    1  A    between atoms: C_1  and  C_2
REMARK    2  A    between atoms: C_2  and  C_3
REMARK    3  A    between atoms: C_2  and  C_4
REMARK    4  A    between atoms: C_4  and  O_6
REMARK    5  A    between atoms: O_6  and  C_7
REMARK    6  A    between atoms: C_8  and  C_20
REMARK    7  A    between atoms: C_12  and  O_19
REMARK    8  A    between atoms: C_14  and  O_18
REMARK    9  A    between atoms: C_22  and  O_27
REMARK   10  A    between atoms: C_23  and  O_26
REMARK                            x       y       z     vdW  Elec       q    Type
REMARK                         _______ _______ _______ _____ _____    ______ ____
ROOT
ATOM      1  C   UNL     1       7.748  -2.050  25.305  0.00  0.00    +0.221 A 
ATOM      2  C   UNL     1       7.147  -3.398  25.507  0.00  0.00    +0.239 A 
ATOM      3  O   UNL     1       7.022  -3.840  26.643  0.00  0.00    -0.283 OA
ATOM      4  C   UNL     1       6.772  -4.141  24.287  0.00  0.00    +0.109 A 
ATOM      5  C   UNL     1       7.140  -3.600  23.052  0.00  0.00    +0.147 A 
ATOM      6  C   UNL     1       6.816  -4.257  21.860  0.00  0.00    +0.092 A 
ATOM      7  C   UNL     1       6.124  -5.461  21.916  0.00  0.00    +0.124 A 
ATOM      8  C   UNL     1       5.753  -6.017  23.134  0.00  0.00    +0.091 A 
ATOM      9  O   UNL     1       7.839  -2.424  22.923  0.00  0.00    -0.451 OA
ATOM     10  C   UNL     1       6.076  -5.356  24.321  0.00  0.00    +0.135 A 
ATOM     11  C   UNL     1       8.086  -1.676  24.061  0.00  0.00    +0.182 A 
ENDROOT
BRANCH  11  12
ATOM     12  C   UNL     1       8.774  -0.409  23.772  0.00  0.00    +0.025 A 
ATOM     13  C   UNL     1       9.971  -0.093  24.440  0.00  0.00    +0.015 A 
ATOM     14  C   UNL     1      10.680   1.066  24.114  0.00  0.00    +0.050 A 
ATOM     15  C   UNL     1      10.194   1.896  23.116  0.00  0.00    +0.158 A 
ATOM     16  C   UNL     1       9.001   1.602  22.462  0.00  0.00    +0.159 A 
ATOM     17  C   UNL     1       8.279   0.457  22.787  0.00  0.00    +0.060 A 
BRANCH  15  18
ATOM     18  O   UNL     1      10.911   3.004  22.765  0.00  0.00    -0.503 OA
ATOM     19  H   UNL     1      11.735   2.652  22.374  0.00  0.00    +0.292 HD
ENDBRANCH  15  18
BRANCH  16  20
ATOM     20  O   UNL     1       8.586   2.465  21.485  0.00  0.00    -0.503 OA
ATOM     21  H   UNL     1       7.949   3.087  21.879  0.00  0.00    +0.292 HD
ENDBRANCH  16  20
ENDBRANCH  11  12
BRANCH   7  22
ATOM     22  O   UNL     1       5.781  -6.142  20.786  0.00  0.00    -0.507 OA
ATOM     23  H   UNL     1       6.577  -6.543  20.398  0.00  0.00    +0.292 HD
ENDBRANCH   7  22
BRANCH  10  24
ATOM     24  O   UNL     1       5.694  -5.914  25.507  0.00  0.00    -0.506 OA
ATOM     25  H   UNL     1       5.373  -6.817  25.368  0.00  0.00    +0.292 HD
ENDBRANCH  10  24
BRANCH   1  26
ATOM     26  O   UNL     1       7.998  -1.276  26.444  0.00  0.00    -0.418 OA
BRANCH  26  27
ATOM     27  C   UNL     1       6.936  -0.431  26.676  0.00  0.00    +0.315 C 
ATOM     28  O   UNL     1       5.756  -0.700  26.476  0.00  0.00    -0.250 OA
BRANCH  27  30
ATOM     29  C   UNL     1       7.193   1.965  26.090  0.00  0.00    +0.019 C 
ATOM     30  C   UNL     1       7.455   0.913  27.157  0.00  0.00    +0.092 C 
ATOM     31  C   UNL     1       6.818   1.301  28.489  0.00  0.00    +0.019 C 
ENDBRANCH  27  30
ENDBRANCH  26  27
ENDBRANCH   1  26
TORSDOF 8
ENDMDL
MODEL 6
REMARK VINA RESULT:      -6.4      2.189      6.638
REMARK  Name = 
REMARK  10 active torsions:
REMARK  status: ('A' for Active; 'I' for Inactive)
REMARK    1  A    between atoms: C_1  and  C_2
REMARK    2  A    between atoms: C_2  and  C_3
REMARK    3  A    between atoms: C_2  and  C_4
REMARK    4  A    between atoms: C_4  and  O_6
REMARK    5  A    between atoms: O_6  and  C_7
REMARK    6  A    between atoms: C_8  and  C_20
REMARK    7  A    between atoms: C_12  and  O_19
REMARK    8  A    between atoms: C_14  and  O_18
REMARK    9  A    between atoms: C_22  and  O_27
REMARK   10  A    between atoms: C_23  and  O_26
REMARK                            x       y       z     vdW  Elec       q    Type
REMARK                         _______ _______ _______ _____ _____    ______ ____
ROOT
ATOM      1  C   UNL     1       8.784  -1.756  24.826  0.00  0.00    +0.221 A 
ATOM      2  C   UNL     1       8.932  -3.215  25.091  0.00  0.00    +0.239 A 
ATOM      3  O   UNL     1       9.821  -3.843  24.528  0.00  0.00    -0.283 OA
ATOM      4  C   UNL     1       7.945  -3.821  26.007  0.00  0.00    +0.109 A 
ATOM      5  C   UNL     1       6.874  -3.030  26.431  0.00  0.00    +0.147 A 
ATOM      6  C   UNL     1       5.905  -3.548  27.297  0.00  0.00    +0.092 A 
ATOM      7  C   UNL     1       6.016  -4.864  27.731  0.00  0.00    +0.124 A 
ATOM      8  C   UNL     1       7.071  -5.667  27.317  0.00  0.00    +0.091 A 
ATOM      9  O   UNL     1       6.693  -1.729  26.030  0.00  0.00    -0.451 OA
ATOM     10  C   UNL     1       8.037  -5.145  26.455  0.00  0.00    +0.135 A 
ATOM     11  C   UNL     1       7.680  -1.131  25.266  0.00  0.00    +0.182 A 
ENDROOT
BRANCH  11  12
ATOM     12  C   UNL     1       7.395   0.280  24.969  0.00  0.00    +0.025 A 
ATOM     13  C   UNL     1       6.457   0.613  23.975  0.00  0.00    +0.015 A 
ATOM     14  C   UNL     1       6.113   1.947  23.742  0.00  0.00    +0.050 A 
ATOM     15  C   UNL     1       6.702   2.939  24.509  0.00  0.00    +0.158 A 
ATOM     16  C   UNL     1       7.647   2.622  25.483  0.00  0.00    +0.159 A 
ATOM     17  C   UNL     1       8.006   1.298  25.715  0.00  0.00    +0.060 A 
BRANCH  15  18
ATOM     18  O   UNL     1       6.333   4.240  24.314  0.00  0.00    -0.503 OA
ATOM     19  H   UNL     1       6.448   4.387  23.355  0.00  0.00    +0.292 HD
ENDBRANCH  15  18
BRANCH  16  20
ATOM     20  O   UNL     1       8.182   3.654  26.204  0.00  0.00    -0.503 OA
ATOM     21  H   UNL     1       8.431   4.362  25.584  0.00  0.00    +0.292 HD
ENDBRANCH  16  20
ENDBRANCH  11  12
BRANCH   7  22
ATOM     22  O   UNL     1       5.100  -5.417  28.576  0.00  0.00    -0.507 OA
ATOM     23  H   UNL     1       4.299  -4.868  28.587  0.00  0.00    +0.292 HD
ENDBRANCH   7  22
BRANCH  10  24
ATOM     24  O   UNL     1       9.072  -5.947  26.068  0.00  0.00    -0.506 OA
ATOM     25  H   UNL     1       9.849  -5.413  25.849  0.00  0.00    +0.292 HD
ENDBRANCH  10  24
BRANCH   1  26
ATOM     26  O   UNL     1       9.777  -1.132  24.061  0.00  0.00    -0.418 OA
BRANCH  26  27
ATOM     27  C   UNL     1       9.367  -1.042  22.750  0.00  0.00    +0.315 C 
ATOM     28  O   UNL     1       8.688  -1.874  22.157  0.00  0.00    -0.250 OA
BRANCH  27  30
ATOM     29  C   UNL     1       8.863   0.926  21.326  0.00  0.00    +0.019 C 
ATOM     30  C   UNL     1       9.946   0.216  22.126  0.00  0.00    +0.092 C 
ATOM     31  C   UNL     1      10.538   1.133  23.194  0.00  0.00    +0.019 C 
ENDBRANCH  27  30
ENDBRANCH  26  27
ENDBRANCH   1  26
TORSDOF 8
ENDMDL
MODEL 7
REMARK VINA RESULT:      -6.3      2.378      6.601
REMARK  Name = 
REMARK  10 active torsions:
REMARK  status: ('A' for Active; 'I' for Inactive)
REMARK    1  A    between atoms: C_1  and  C_2
REMARK    2  A    between atoms: C_2  and  C_3
REMARK    3  A    between atoms: C_2  and  C_4
REMARK    4  A    between atoms: C_4  and  O_6
REMARK    5  A    between atoms: O_6  and  C_7
REMARK    6  A    between atoms: C_8  and  C_20
REMARK    7  A    between atoms: C_12  and  O_19
REMARK    8  A    between atoms: C_14  and  O_18
REMARK    9  A    between atoms: C_22  and  O_27
REMARK   10  A    between atoms: C_23  and  O_26
REMARK                            x       y       z     vdW  Elec       q    Type
REMARK                         _______ _______ _______ _____ _____    ______ ____
ROOT
ATOM      1  C   UNL     1       7.221  -2.659  23.023  0.00  0.00    +0.221 A 
ATOM      2  C   UNL     1       6.793  -4.024  22.608  0.00  0.00    +0.239 A 
ATOM      3  O   UNL     1       7.189  -4.484  21.543  0.00  0.00    -0.283 OA
ATOM      4  C   UNL     1       5.866  -4.728  23.516  0.00  0.00    +0.109 A 
ATOM      5  C   UNL     1       5.348  -4.018  24.602  0.00  0.00    +0.147 A 
ATOM      6  C   UNL     1       4.463  -4.628  25.498  0.00  0.00    +0.092 A 
ATOM      7  C   UNL     1       4.098  -5.954  25.294  0.00  0.00    +0.124 A 
ATOM      8  C   UNL     1       4.599  -6.675  24.217  0.00  0.00    +0.091 A 
ATOM      9  O   UNL     1       5.651  -2.701  24.855  0.00  0.00    -0.451 OA
ATOM     10  C   UNL     1       5.484  -6.063  23.328  0.00  0.00    +0.135 A 
ATOM     11  C   UNL     1       6.608  -2.083  24.069  0.00  0.00    +0.182 A 
ENDROOT
BRANCH  11  12
ATOM     12  C   UNL     1       6.889  -0.703  24.493  0.00  0.00    +0.025 A 
ATOM     13  C   UNL     1       7.518  -0.463  25.728  0.00  0.00    +0.015 A 
ATOM     14  C   UNL     1       7.869   0.836  26.105  0.00  0.00    +0.050 A 
ATOM     15  C   UNL     1       7.596   1.885  25.241  0.00  0.00    +0.158 A 
ATOM     16  C   UNL     1       6.955   1.661  24.026  0.00  0.00    +0.159 A 
ATOM     17  C   UNL     1       6.590   0.373  23.645  0.00  0.00    +0.060 A 
BRANCH  15  18
ATOM     18  O   UNL     1       7.980   3.149  25.588  0.00  0.00    -0.503 OA
ATOM     19  H   UNL     1       8.180   3.588  24.739  0.00  0.00    +0.292 HD
ENDBRANCH  15  18
BRANCH  16  20
ATOM     20  O   UNL     1       6.723   2.745  23.224  0.00  0.00    -0.503 OA
ATOM     21  H   UNL     1       5.997   2.522  22.615  0.00  0.00    +0.292 HD
ENDBRANCH  16  20
ENDBRANCH  11  12
BRANCH   7  22
ATOM     22  O   UNL     1       3.241  -6.597  26.136  0.00  0.00    -0.507 OA
ATOM     23  H   UNL     1       2.334  -6.291  25.967  0.00  0.00    +0.292 HD
ENDBRANCH   7  22
BRANCH  10  24
ATOM     24  O   UNL     1       5.973  -6.792  22.283  0.00  0.00    -0.506 OA
ATOM     25  H   UNL     1       5.473  -7.615  22.182  0.00  0.00    +0.292 HD
ENDBRANCH  10  24
BRANCH   1  26
ATOM     26  O   UNL     1       8.194  -2.021  22.245  0.00  0.00    -0.418 OA
BRANCH  26  27
ATOM     27  C   UNL     1       9.413  -2.076  22.883  0.00  0.00    +0.315 C 
ATOM     28  O   UNL     1       9.762  -2.944  23.676  0.00  0.00    -0.250 OA
BRANCH  27  30
ATOM     29  C   UNL     1       9.477  -0.035  21.475  0.00  0.00    +0.019 C 
ATOM     30  C   UNL     1      10.236  -0.857  22.505  0.00  0.00    +0.092 C 
ATOM     31  C   UNL     1      10.576  -0.024  23.739  0.00  0.00    +0.019 C 
ENDBRANCH  27  30
ENDBRANCH  26  27
ENDBRANCH   1  26
TORSDOF 8
ENDMDL
MODEL 8
REMARK VINA RESULT:      -6.2      2.082      3.967
REMARK  Name = 
REMARK  10 active torsions:
REMARK  status: ('A' for Active; 'I' for Inactive)
REMARK    1  A    between atoms: C_1  and  C_2
REMARK    2  A    between atoms: C_2  and  C_3
REMARK    3  A    between atoms: C_2  and  C_4
REMARK    4  A    between atoms: C_4  and  O_6
REMARK    5  A    between atoms: O_6  and  C_7
REMARK    6  A    between atoms: C_8  and  C_20
REMARK    7  A    between atoms: C_12  and  O_19
REMARK    8  A    between atoms: C_14  and  O_18
REMARK    9  A    between atoms: C_22  and  O_27
REMARK   10  A    between atoms: C_23  and  O_26
REMARK                            x       y       z     vdW  Elec       q    Type
REMARK                         _______ _______ _______ _____ _____    ______ ____
ROOT
ATOM      1  C   UNL     1       6.186  -0.429  24.484  0.00  0.00    +0.221 A 
ATOM      2  C   UNL     1       6.285   1.035  24.743  0.00  0.00    +0.239 A 
ATOM      3  O   UNL     1       5.355   1.616  25.291  0.00  0.00    -0.283 OA
ATOM      4  C   UNL     1       7.514   1.705  24.273  0.00  0.00    +0.109 A 
ATOM      5  C   UNL     1       8.410   0.962  23.500  0.00  0.00    +0.147 A 
ATOM      6  C   UNL     1       9.591   1.541  23.022  0.00  0.00    +0.092 A 
ATOM      7  C   UNL     1       9.865   2.870  23.323  0.00  0.00    +0.124 A 
ATOM      8  C   UNL     1       8.984   3.626  24.087  0.00  0.00    +0.091 A 
ATOM      9  O   UNL     1       8.195  -0.350  23.150  0.00  0.00    -0.451 OA
ATOM     10  C   UNL     1       7.808   3.044  24.563  0.00  0.00    +0.135 A 
ATOM     11  C   UNL     1       7.102  -1.005  23.688  0.00  0.00    +0.182 A 
ENDROOT
BRANCH  11  12
ATOM     12  C   UNL     1       7.033  -2.419  23.293  0.00  0.00    +0.025 A 
ATOM     13  C   UNL     1       6.145  -2.821  22.279  0.00  0.00    +0.015 A 
ATOM     14  C   UNL     1       6.130  -4.146  21.834  0.00  0.00    +0.050 A 
ATOM     15  C   UNL     1       7.009  -5.057  22.398  0.00  0.00    +0.158 A 
ATOM     16  C   UNL     1       7.878  -4.673  23.416  0.00  0.00    +0.159 A 
ATOM     17  C   UNL     1       7.894  -3.360  23.876  0.00  0.00    +0.060 A 
BRANCH  15  18
ATOM     18  O   UNL     1       7.027  -6.341  21.931  0.00  0.00    -0.503 OA
ATOM     19  H   UNL     1       7.209  -6.887  22.720  0.00  0.00    +0.292 HD
ENDBRANCH  15  18
BRANCH  16  20
ATOM     20  O   UNL     1       8.720  -5.626  23.921  0.00  0.00    -0.503 OA
ATOM     21  H   UNL     1       8.208  -6.197  24.521  0.00  0.00    +0.292 HD
ENDBRANCH  16  20
ENDBRANCH  11  12
BRANCH   7  22
ATOM     22  O   UNL     1      11.001   3.483  22.885  0.00  0.00    -0.507 OA
ATOM     23  H   UNL     1      11.537   3.751  23.650  0.00  0.00    +0.292 HD
ENDBRANCH   7  22
BRANCH  10  24
ATOM     24  O   UNL     1       6.962   3.800  25.320  0.00  0.00    -0.506 OA
ATOM     25  H   UNL     1       6.104   3.890  24.881  0.00  0.00    +0.292 HD
ENDBRANCH  10  24
BRANCH   1  26
ATOM     26  O   UNL     1       5.090  -1.110  25.027  0.00  0.00    -0.418 OA
BRANCH  26  27
ATOM     27  C   UNL     1       5.462  -1.733  26.197  0.00  0.00    +0.315 C 
ATOM     28  O   UNL     1       6.330  -1.339  26.968  0.00  0.00    -0.250 OA
BRANCH  27  30
ATOM     29  C   UNL     1       3.845  -3.263  25.101  0.00  0.00    +0.019 C 
ATOM     30  C   UNL     1       4.676  -3.024  26.353  0.00  0.00    +0.092 C 
ATOM     31  C   UNL     1       5.608  -4.200  26.635  0.00  0.00    +0.019 C 
ENDBRANCH  27  30
ENDBRANCH  26  27
ENDBRANCH   1  26
TORSDOF 8
ENDMDL
MODEL 9
REMARK VINA RESULT:      -6.2      1.851      2.625
REMARK  Name = 
REMARK  10 active torsions:
REMARK  status: ('A' for Active; 'I' for Inactive)
REMARK    1  A    between atoms: C_1  and  C_2
REMARK    2  A    between atoms: C_2  and  C_3
REMARK    3  A    between atoms: C_2  and  C_4
REMARK    4  A    between atoms: C_4  and  O_6
REMARK    5  A    between atoms: O_6  and  C_7
REMARK    6  A    between atoms: C_8  and  C_20
REMARK    7  A    between atoms: C_12  and  O_19
REMARK    8  A    between atoms: C_14  and  O_18
REMARK    9  A    between atoms: C_22  and  O_27
REMARK   10  A    between atoms: C_23  and  O_26
REMARK                            x       y       z     vdW  Elec       q    Type
REMARK                         _______ _______ _______ _____ _____    ______ ____
ROOT
ATOM      1  C   UNL     1       7.611  -1.524  23.164  0.00  0.00    +0.221 A 
ATOM      2  C   UNL     1       8.389  -0.394  22.583  0.00  0.00    +0.239 A 
ATOM      3  O   UNL     1       9.497  -0.607  22.104  0.00  0.00    -0.283 OA
ATOM      4  C   UNL     1       7.768   0.943  22.664  0.00  0.00    +0.109 A 
ATOM      5  C   UNL     1       6.588   1.073  23.401  0.00  0.00    +0.147 A 
ATOM      6  C   UNL     1       5.954   2.314  23.518  0.00  0.00    +0.092 A 
ATOM      7  C   UNL     1       6.513   3.424  22.894  0.00  0.00    +0.124 A 
ATOM      8  C   UNL     1       7.687   3.315  22.160  0.00  0.00    +0.091 A 
ATOM      9  O   UNL     1       5.991   0.024  24.057  0.00  0.00    -0.451 OA
ATOM     10  C   UNL     1       8.316   2.074  22.044  0.00  0.00    +0.135 A 
ATOM     11  C   UNL     1       6.512  -1.246  23.883  0.00  0.00    +0.182 A 
ENDROOT
BRANCH  11  12
ATOM     12  C   UNL     1       5.734  -2.282  24.579  0.00  0.00    +0.025 A 
ATOM     13  C   UNL     1       4.932  -3.171  23.841  0.00  0.00    +0.015 A 
ATOM     14  C   UNL     1       4.256  -4.213  24.480  0.00  0.00    +0.050 A 
ATOM     15  C   UNL     1       4.394  -4.366  25.851  0.00  0.00    +0.158 A 
ATOM     16  C   UNL     1       5.170  -3.479  26.593  0.00  0.00    +0.159 A 
ATOM     17  C   UNL     1       5.837  -2.430  25.969  0.00  0.00    +0.060 A 
BRANCH  15  18
ATOM     18  O   UNL     1       3.770  -5.412  26.470  0.00  0.00    -0.503 OA
ATOM     19  H   UNL     1       4.180  -5.454  27.356  0.00  0.00    +0.292 HD
ENDBRANCH  15  18
BRANCH  16  20
ATOM     20  O   UNL     1       5.262  -3.695  27.941  0.00  0.00    -0.503 OA
ATOM     21  H   UNL     1       6.146  -3.411  28.234  0.00  0.00    +0.292 HD
ENDBRANCH  16  20
ENDBRANCH  11  12
BRANCH   7  22
ATOM     22  O   UNL     1       5.935   4.656  22.974  0.00  0.00    -0.507 OA
ATOM     23  H   UNL     1       5.919   5.062  22.091  0.00  0.00    +0.292 HD
ENDBRANCH   7  22
BRANCH  10  24
ATOM     24  O   UNL     1       9.464   1.986  21.311  0.00  0.00    -0.506 OA
ATOM     25  H   UNL     1      10.156   1.540  21.819  0.00  0.00    +0.292 HD
ENDBRANCH  10  24
BRANCH   1  26
ATOM     26  O   UNL     1       8.119  -2.817  22.991  0.00  0.00    -0.418 OA
BRANCH  26  27
ATOM     27  C   UNL     1       8.772  -3.219  24.135  0.00  0.00    +0.315 C 
ATOM     28  O   UNL     1       9.379  -2.482  24.904  0.00  0.00    -0.250 OA
BRANCH  27  30
ATOM     29  C   UNL     1       8.311  -5.095  25.691  0.00  0.00    +0.019 C 
ATOM     30  C   UNL     1       8.684  -4.730  24.262  0.00  0.00    +0.092 C 
ATOM     31  C   UNL     1       7.683  -5.305  23.263  0.00  0.00    +0.019 C 
ENDBRANCH  27  30
ENDBRANCH  26  27
ENDBRANCH   1  26
TORSDOF 8
ENDMDL
