MODEL 1
REMARK VINA RESULT:      -7.2      0.000      0.000
REMARK  Name = 
REMARK  12 active torsions:
REMARK  status: ('A' for Active; 'I' for Inactive)
REMARK    1  A    between atoms: C_3  and  O_38
REMARK    2  A    between atoms: C_4  and  O_37
REMARK    3  A    between atoms: C_6  and  C_7
REMARK    4  A    between atoms: C_8  and  O_20
REMARK    5  A    between atoms: C_12  and  O_19
REMARK    6  A    between atoms: C_14  and  O_18
REMARK    7  A    between atoms: O_20  and  C_21
REMARK    8  A    between atoms: C_23  and  O_36
REMARK    9  A    between atoms: C_25  and  O_35
REMARK   10  A    between atoms: C_27  and  O_34
REMARK   11  A    between atoms: C_29  and  C_32
REMARK   12  A    between atoms: C_32  and  O_33
REMARK                            x       y       z     vdW  Elec       q    Type
REMARK                         _______ _______ _______ _____ _____    ______ ____
ROOT
ATOM      1  C   UNL     1       8.143  -1.957  24.698  0.00  0.00    +0.181 A 
ATOM      2  O   UNL     1       8.298  -0.671  25.234  0.00  0.00    -0.451 OA
ATOM      3  C   UNL     1       8.303   0.399  24.368  0.00  0.00    +0.147 A 
ATOM      4  C   UNL     1       8.445   0.238  22.999  0.00  0.00    +0.109 A 
ATOM      5  C   UNL     1       8.490   1.341  22.133  0.00  0.00    +0.135 A 
ATOM      6  C   UNL     1       8.377   2.627  22.636  0.00  0.00    +0.091 A 
ATOM      7  C   UNL     1       8.233   2.791  24.013  0.00  0.00    +0.124 A 
ATOM      8  C   UNL     1       8.561  -1.109  22.475  0.00  0.00    +0.238 A 
ATOM      9  O   UNL     1       8.980  -1.235  21.330  0.00  0.00    -0.283 OA
ATOM     10  C   UNL     1       8.196   1.694  24.881  0.00  0.00    +0.092 A 
ATOM     11  C   UNL     1       8.192  -2.247  23.376  0.00  0.00    +0.214 A 
ENDROOT
BRANCH   1  13
ATOM     12  C   UNL     1       9.010  -4.028  25.863  0.00  0.00    +0.015 A 
ATOM     13  C   UNL     1       8.027  -3.025  25.737  0.00  0.00    +0.025 A 
ATOM     14  C   UNL     1       6.888  -3.115  26.552  0.00  0.00    +0.060 A 
ATOM     15  C   UNL     1       6.688  -4.229  27.356  0.00  0.00    +0.159 A 
ATOM     16  C   UNL     1       7.623  -5.257  27.411  0.00  0.00    +0.158 A 
ATOM     17  C   UNL     1       8.810  -5.148  26.699  0.00  0.00    +0.050 A 
BRANCH  15  18
ATOM     18  O   UNL     1       5.519  -4.337  28.059  0.00  0.00    -0.503 OA
ATOM     19  H   UNL     1       5.740  -4.020  28.956  0.00  0.00    +0.292 HD
ENDBRANCH  15  18
BRANCH  16  20
ATOM     20  O   UNL     1       7.317  -6.359  28.158  0.00  0.00    -0.503 OA
ATOM     21  H   UNL     1       8.149  -6.768  28.450  0.00  0.00    +0.292 HD
ENDBRANCH  16  20
ENDBRANCH   1  13
BRANCH   5  22
ATOM     22  O   UNL     1       8.644   1.227  20.776  0.00  0.00    -0.506 OA
ATOM     23  H   UNL     1       8.693   0.271  20.555  0.00  0.00    +0.292 HD
ENDBRANCH   5  22
BRANCH   7  24
ATOM     24  O   UNL     1       8.130   4.039  24.546  0.00  0.00    -0.507 OA
ATOM     25  H   UNL     1       7.338   4.075  25.113  0.00  0.00    +0.292 HD
ENDBRANCH   7  24
BRANCH  11  26
ATOM     26  O   UNL     1       7.968  -3.533  22.876  0.00  0.00    -0.453 OA
BRANCH  26  27
ATOM     27  C   UNL     1       6.825  -3.744  22.022  0.00  0.00    +0.340 C 
ATOM     28  O   UNL     1       5.646  -3.204  22.622  0.00  0.00    -0.331 OA
ATOM     29  C   UNL     1       4.585  -4.010  23.145  0.00  0.00    +0.179 C 
ATOM     30  C   UNL     1       4.699  -5.542  23.026  0.00  0.00    +0.177 C 
ATOM     31  C   UNL     1       6.147  -5.992  22.857  0.00  0.00    +0.180 C 
ATOM     32  C   UNL     1       6.750  -5.235  21.668  0.00  0.00    +0.214 C 
BRANCH  30  33
ATOM     33  O   UNL     1       3.892  -5.977  21.911  0.00  0.00    -0.386 OA
ATOM     34  H   UNL     1       3.550  -6.872  22.104  0.00  0.00    +0.210 HD
ENDBRANCH  30  33
BRANCH  31  35
ATOM     35  O   UNL     1       6.880  -5.840  24.070  0.00  0.00    -0.386 OA
ATOM     36  H   UNL     1       7.831  -5.692  23.882  0.00  0.00    +0.210 HD
ENDBRANCH  31  35
BRANCH  32  37
ATOM     37  O   UNL     1       5.969  -5.472  20.483  0.00  0.00    -0.383 OA
ATOM     38  H   UNL     1       6.112  -6.400  20.210  0.00  0.00    +0.210 HD
ENDBRANCH  32  37
BRANCH  29  39
ATOM     39  C   UNL     1       4.360  -3.587  24.608  0.00  0.00    +0.190 C 
BRANCH  39  40
ATOM     40  O   UNL     1       4.083  -4.706  25.454  0.00  0.00    -0.392 OA
ATOM     41  H   UNL     1       4.844  -4.833  26.046  0.00  0.00    +0.210 HD
ENDBRANCH  39  40
ENDBRANCH  29  39
ENDBRANCH  26  27
ENDBRANCH  11  26
TORSDOF 12
ENDMDL
MODEL 2
REMARK VINA RESULT:      -6.9      2.257      7.365
REMARK  Name = 
REMARK  12 active torsions:
REMARK  status: ('A' for Active; 'I' for Inactive)
REMARK    1  A    between atoms: C_3  and  O_38
REMARK    2  A    between atoms: C_4  and  O_37
REMARK    3  A    between atoms: C_6  and  C_7
REMARK    4  A    between atoms: C_8  and  O_20
REMARK    5  A    between atoms: C_12  and  O_19
REMARK    6  A    between atoms: C_14  and  O_18
REMARK    7  A    between atoms: O_20  and  C_21
REMARK    8  A    between atoms: C_23  and  O_36
REMARK    9  A    between atoms: C_25  and  O_35
REMARK   10  A    between atoms: C_27  and  O_34
REMARK   11  A    between atoms: C_29  and  C_32
REMARK   12  A    between atoms: C_32  and  O_33
REMARK                            x       y       z     vdW  Elec       q    Type
REMARK                         _______ _______ _______ _____ _____    ______ ____
ROOT
ATOM      1  C   UNL     1       8.147  -1.631  23.927  0.00  0.00    +0.181 A 
ATOM      2  O   UNL     1       8.060  -2.589  22.907  0.00  0.00    -0.451 OA
ATOM      3  C   UNL     1       7.238  -3.675  23.102  0.00  0.00    +0.147 A 
ATOM      4  C   UNL     1       6.726  -3.998  24.350  0.00  0.00    +0.109 A 
ATOM      5  C   UNL     1       5.923  -5.132  24.541  0.00  0.00    +0.135 A 
ATOM      6  C   UNL     1       5.611  -5.953  23.469  0.00  0.00    +0.091 A 
ATOM      7  C   UNL     1       6.123  -5.630  22.213  0.00  0.00    +0.124 A 
ATOM      8  C   UNL     1       7.054  -3.136  25.469  0.00  0.00    +0.238 A 
ATOM      9  O   UNL     1       6.858  -3.576  26.595  0.00  0.00    -0.283 OA
ATOM     10  C   UNL     1       6.932  -4.503  22.020  0.00  0.00    +0.092 A 
ATOM     11  C   UNL     1       7.633  -1.787  25.171  0.00  0.00    +0.214 A 
ENDROOT
BRANCH   1  13
ATOM     12  C   UNL     1      10.190  -0.165  24.203  0.00  0.00    +0.015 A 
ATOM     13  C   UNL     1       8.968  -0.438  23.556  0.00  0.00    +0.025 A 
ATOM     14  C   UNL     1       8.497   0.496  22.620  0.00  0.00    +0.060 A 
ATOM     15  C   UNL     1       9.157   1.704  22.444  0.00  0.00    +0.159 A 
ATOM     16  C   UNL     1      10.317   2.003  23.151  0.00  0.00    +0.158 A 
ATOM     17  C   UNL     1      10.867   1.057  24.004  0.00  0.00    +0.050 A 
BRANCH  15  18
ATOM     18  O   UNL     1       8.616   2.637  21.602  0.00  0.00    -0.503 OA
ATOM     19  H   UNL     1       9.287   3.346  21.554  0.00  0.00    +0.292 HD
ENDBRANCH  15  18
BRANCH  16  20
ATOM     20  O   UNL     1      10.861   3.246  22.988  0.00  0.00    -0.503 OA
ATOM     21  H   UNL     1      11.009   3.630  23.869  0.00  0.00    +0.292 HD
ENDBRANCH  16  20
ENDBRANCH   1  13
BRANCH   5  22
ATOM     22  O   UNL     1       5.410  -5.495  25.758  0.00  0.00    -0.506 OA
ATOM     23  H   UNL     1       4.867  -6.305  25.629  0.00  0.00    +0.292 HD
ENDBRANCH   5  22
BRANCH   7  24
ATOM     24  O   UNL     1       5.848  -6.418  21.138  0.00  0.00    -0.507 OA
ATOM     25  H   UNL     1       5.817  -5.861  20.339  0.00  0.00    +0.292 HD
ENDBRANCH   7  24
BRANCH  11  26
ATOM     26  O   UNL     1       7.682  -0.782  26.140  0.00  0.00    -0.453 OA
BRANCH  26  27
ATOM     27  C   UNL     1       6.440  -0.318  26.707  0.00  0.00    +0.340 C 
ATOM     28  O   UNL     1       5.544   0.099  25.675  0.00  0.00    -0.331 OA
ATOM     29  C   UNL     1       5.193   1.466  25.438  0.00  0.00    +0.179 C 
ATOM     30  C   UNL     1       5.783   2.547  26.365  0.00  0.00    +0.177 C 
ATOM     31  C   UNL     1       7.058   2.071  27.053  0.00  0.00    +0.180 C 
ATOM     32  C   UNL     1       6.755   0.748  27.764  0.00  0.00    +0.214 C 
BRANCH  30  33
ATOM     33  O   UNL     1       4.781   2.915  27.337  0.00  0.00    -0.386 OA
ATOM     34  H   UNL     1       4.065   3.398  26.880  0.00  0.00    +0.210 HD
ENDBRANCH  30  33
BRANCH  31  35
ATOM     35  O   UNL     1       8.144   1.997  26.132  0.00  0.00    -0.386 OA
ATOM     36  H   UNL     1       8.407   2.895  25.838  0.00  0.00    +0.210 HD
ENDBRANCH  31  35
BRANCH  32  37
ATOM     37  O   UNL     1       5.672   0.924  28.696  0.00  0.00    -0.383 OA
ATOM     38  H   UNL     1       5.975   0.610  29.571  0.00  0.00    +0.210 HD
ENDBRANCH  32  37
BRANCH  29  39
ATOM     39  C   UNL     1       5.507   1.776  23.963  0.00  0.00    +0.190 C 
BRANCH  39  40
ATOM     40  O   UNL     1       6.278   2.971  23.817  0.00  0.00    -0.392 OA
ATOM     41  H   UNL     1       7.127   2.734  23.406  0.00  0.00    +0.210 HD
ENDBRANCH  39  40
ENDBRANCH  29  39
ENDBRANCH  26  27
ENDBRANCH  11  26
TORSDOF 12
ENDMDL
MODEL 3
REMARK VINA RESULT:      -6.8      2.604      7.259
REMARK  Name = 
REMARK  12 active torsions:
REMARK  status: ('A' for Active; 'I' for Inactive)
REMARK    1  A    between atoms: C_3  and  O_38
REMARK    2  A    between atoms: C_4  and  O_37
REMARK    3  A    between atoms: C_6  and  C_7
REMARK    4  A    between atoms: C_8  and  O_20
REMARK    5  A    between atoms: C_12  and  O_19
REMARK    6  A    between atoms: C_14  and  O_18
REMARK    7  A    between atoms: O_20  and  C_21
REMARK    8  A    between atoms: C_23  and  O_36
REMARK    9  A    between atoms: C_25  and  O_35
REMARK   10  A    between atoms: C_27  and  O_34
REMARK   11  A    between atoms: C_29  and  C_32
REMARK   12  A    between atoms: C_32  and  O_33
REMARK                            x       y       z     vdW  Elec       q    Type
REMARK                         _______ _______ _______ _____ _____    ______ ____
ROOT
ATOM      1  C   UNL     1       8.217  -1.505  24.051  0.00  0.00    +0.181 A 
ATOM      2  O   UNL     1       8.196  -2.530  23.094  0.00  0.00    -0.451 OA
ATOM      3  C   UNL     1       7.351  -3.597  23.301  0.00  0.00    +0.147 A 
ATOM      4  C   UNL     1       6.747  -3.831  24.527  0.00  0.00    +0.109 A 
ATOM      5  C   UNL     1       5.921  -4.946  24.735  0.00  0.00    +0.135 A 
ATOM      6  C   UNL     1       5.679  -5.836  23.701  0.00  0.00    +0.091 A 
ATOM      7  C   UNL     1       6.284  -5.601  22.467  0.00  0.00    +0.124 A 
ATOM      8  C   UNL     1       7.001  -2.897  25.607  0.00  0.00    +0.238 A 
ATOM      9  O   UNL     1       6.720  -3.258  26.743  0.00  0.00    -0.283 OA
ATOM     10  C   UNL     1       7.115  -4.495  22.259  0.00  0.00    +0.092 A 
ATOM     11  C   UNL     1       7.613  -1.574  25.262  0.00  0.00    +0.214 A 
ENDROOT
BRANCH   1  13
ATOM     12  C   UNL     1      10.246  -0.031  24.379  0.00  0.00    +0.015 A 
ATOM     13  C   UNL     1       9.075  -0.344  23.661  0.00  0.00    +0.025 A 
ATOM     14  C   UNL     1       8.684   0.523  22.629  0.00  0.00    +0.060 A 
ATOM     15  C   UNL     1       9.366   1.714  22.420  0.00  0.00    +0.159 A 
ATOM     16  C   UNL     1      10.472   2.057  23.190  0.00  0.00    +0.158 A 
ATOM     17  C   UNL     1      10.947   1.172  24.147  0.00  0.00    +0.050 A 
BRANCH  15  18
ATOM     18  O   UNL     1       8.899   2.588  21.476  0.00  0.00    -0.503 OA
ATOM     19  H   UNL     1       8.761   2.040  20.679  0.00  0.00    +0.292 HD
ENDBRANCH  15  18
BRANCH  16  20
ATOM     20  O   UNL     1      11.038   3.284  22.983  0.00  0.00    -0.503 OA
ATOM     21  H   UNL     1      11.532   3.529  23.784  0.00  0.00    +0.292 HD
ENDBRANCH  16  20
ENDBRANCH   1  13
BRANCH   5  22
ATOM     22  O   UNL     1       5.318  -5.223  25.934  0.00  0.00    -0.506 OA
ATOM     23  H   UNL     1       5.040  -4.371  26.338  0.00  0.00    +0.292 HD
ENDBRANCH   5  22
BRANCH   7  24
ATOM     24  O   UNL     1       6.080  -6.460  21.431  0.00  0.00    -0.507 OA
ATOM     25  H   UNL     1       6.881  -6.999  21.307  0.00  0.00    +0.292 HD
ENDBRANCH   7  24
BRANCH  11  26
ATOM     26  O   UNL     1       7.602  -0.506  26.162  0.00  0.00    -0.453 OA
BRANCH  26  27
ATOM     27  C   UNL     1       6.848   0.673  25.814  0.00  0.00    +0.340 C 
ATOM     28  O   UNL     1       7.171   1.752  26.695  0.00  0.00    -0.331 OA
ATOM     29  C   UNL     1       6.271   2.261  27.684  0.00  0.00    +0.179 C 
ATOM     30  C   UNL     1       4.864   1.640  27.787  0.00  0.00    +0.177 C 
ATOM     31  C   UNL     1       4.819   0.235  27.194  0.00  0.00    +0.180 C 
ATOM     32  C   UNL     1       5.360   0.301  25.762  0.00  0.00    +0.214 C 
BRANCH  30  33
ATOM     33  O   UNL     1       3.928   2.511  27.118  0.00  0.00    -0.386 OA
ATOM     34  H   UNL     1       3.176   2.680  27.718  0.00  0.00    +0.210 HD
ENDBRANCH  30  33
BRANCH  31  35
ATOM     35  O   UNL     1       5.501  -0.699  28.027  0.00  0.00    -0.386 OA
ATOM     36  H   UNL     1       5.721  -0.291  28.892  0.00  0.00    +0.210 HD
ENDBRANCH  31  35
BRANCH  32  37
ATOM     37  O   UNL     1       4.594   1.240  24.986  0.00  0.00    -0.383 OA
ATOM     38  H   UNL     1       3.647   1.082  25.173  0.00  0.00    +0.210 HD
ENDBRANCH  32  37
BRANCH  29  39
ATOM     39  C   UNL     1       6.997   2.207  29.041  0.00  0.00    +0.190 C 
BRANCH  39  40
ATOM     40  O   UNL     1       7.861   1.073  29.144  0.00  0.00    -0.392 OA
ATOM     41  H   UNL     1       8.241   0.903  28.265  0.00  0.00    +0.210 HD
ENDBRANCH  39  40
ENDBRANCH  29  39
ENDBRANCH  26  27
ENDBRANCH  11  26
TORSDOF 12
ENDMDL
MODEL 4
REMARK VINA RESULT:      -6.8      2.921      6.325
REMARK  Name = 
REMARK  12 active torsions:
REMARK  status: ('A' for Active; 'I' for Inactive)
REMARK    1  A    between atoms: C_3  and  O_38
REMARK    2  A    between atoms: C_4  and  O_37
REMARK    3  A    between atoms: C_6  and  C_7
REMARK    4  A    between atoms: C_8  and  O_20
REMARK    5  A    between atoms: C_12  and  O_19
REMARK    6  A    between atoms: C_14  and  O_18
REMARK    7  A    between atoms: O_20  and  C_21
REMARK    8  A    between atoms: C_23  and  O_36
REMARK    9  A    between atoms: C_25  and  O_35
REMARK   10  A    between atoms: C_27  and  O_34
REMARK   11  A    between atoms: C_29  and  C_32
REMARK   12  A    between atoms: C_32  and  O_33
REMARK                            x       y       z     vdW  Elec       q    Type
REMARK                         _______ _______ _______ _____ _____    ______ ____
ROOT
ATOM      1  C   UNL     1       6.849  -1.811  26.340  0.00  0.00    +0.181 A 
ATOM      2  O   UNL     1       5.754  -2.285  27.076  0.00  0.00    -0.451 OA
ATOM      3  C   UNL     1       4.953  -1.368  27.716  0.00  0.00    +0.147 A 
ATOM      4  C   UNL     1       5.341  -0.048  27.895  0.00  0.00    +0.109 A 
ATOM      5  C   UNL     1       4.532   0.865  28.585  0.00  0.00    +0.135 A 
ATOM      6  C   UNL     1       3.307   0.464  29.097  0.00  0.00    +0.091 A 
ATOM      7  C   UNL     1       2.915  -0.862  28.918  0.00  0.00    +0.124 A 
ATOM      8  C   UNL     1       6.621   0.369  27.357  0.00  0.00    +0.238 A 
ATOM      9  O   UNL     1       7.087   1.425  27.766  0.00  0.00    -0.283 OA
ATOM     10  C   UNL     1       3.724  -1.778  28.236  0.00  0.00    +0.092 A 
ATOM     11  C   UNL     1       7.294  -0.532  26.367  0.00  0.00    +0.214 A 
ENDROOT
BRANCH   1  13
ATOM     12  C   UNL     1       7.102  -3.337  24.339  0.00  0.00    +0.015 A 
ATOM     13  C   UNL     1       7.571  -2.883  25.588  0.00  0.00    +0.025 A 
ATOM     14  C   UNL     1       8.680  -3.534  26.151  0.00  0.00    +0.060 A 
ATOM     15  C   UNL     1       9.206  -4.668  25.549  0.00  0.00    +0.159 A 
ATOM     16  C   UNL     1       8.682  -5.162  24.358  0.00  0.00    +0.158 A 
ATOM     17  C   UNL     1       7.655  -4.479  23.721  0.00  0.00    +0.050 A 
BRANCH  15  18
ATOM     18  O   UNL     1      10.218  -5.341  26.175  0.00  0.00    -0.503 OA
ATOM     19  H   UNL     1       9.783  -5.816  26.910  0.00  0.00    +0.292 HD
ENDBRANCH  15  18
BRANCH  16  20
ATOM     20  O   UNL     1       9.196  -6.331  23.872  0.00  0.00    -0.503 OA
ATOM     21  H   UNL     1      10.161  -6.312  23.996  0.00  0.00    +0.292 HD
ENDBRANCH  16  20
ENDBRANCH   1  13
BRANCH   5  22
ATOM     22  O   UNL     1       4.883   2.173  28.797  0.00  0.00    -0.506 OA
ATOM     23  H   UNL     1       5.732   2.183  29.292  0.00  0.00    +0.292 HD
ENDBRANCH   5  22
BRANCH   7  24
ATOM     24  O   UNL     1       1.725  -1.296  29.416  0.00  0.00    -0.507 OA
ATOM     25  H   UNL     1       1.493  -2.138  28.984  0.00  0.00    +0.292 HD
ENDBRANCH   7  24
BRANCH  11  26
ATOM     26  O   UNL     1       8.349  -0.082  25.568  0.00  0.00    -0.453 OA
BRANCH  26  27
ATOM     27  C   UNL     1       8.034   0.686  24.390  0.00  0.00    +0.340 C 
ATOM     28  O   UNL     1       8.108  -0.136  23.222  0.00  0.00    -0.331 OA
ATOM     29  C   UNL     1       9.136  -0.013  22.234  0.00  0.00    +0.179 C 
ATOM     30  C   UNL     1      10.202   1.085  22.414  0.00  0.00    +0.177 C 
ATOM     31  C   UNL     1      10.322   1.526  23.870  0.00  0.00    +0.180 C 
ATOM     32  C   UNL     1       8.930   1.931  24.365  0.00  0.00    +0.214 C 
BRANCH  30  33
ATOM     33  O   UNL     1       9.860   2.201  21.566  0.00  0.00    -0.386 OA
ATOM     34  H   UNL     1      10.683   2.660  21.307  0.00  0.00    +0.210 HD
ENDBRANCH  30  33
BRANCH  31  35
ATOM     35  O   UNL     1      10.948   0.520  24.664  0.00  0.00    -0.386 OA
ATOM     36  H   UNL     1      10.461  -0.328  24.590  0.00  0.00    +0.210 HD
ENDBRANCH  31  35
BRANCH  32  37
ATOM     37  O   UNL     1       8.391   2.971  23.529  0.00  0.00    -0.383 OA
ATOM     38  H   UNL     1       8.735   3.827  23.854  0.00  0.00    +0.210 HD
ENDBRANCH  32  37
BRANCH  29  39
ATOM     39  C   UNL     1       9.792  -1.397  22.075  0.00  0.00    +0.190 C 
BRANCH  39  40
ATOM     40  O   UNL     1      10.171  -1.959  23.333  0.00  0.00    -0.392 OA
ATOM     41  H   UNL     1       9.846  -2.876  23.364  0.00  0.00    +0.210 HD
ENDBRANCH  39  40
ENDBRANCH  29  39
ENDBRANCH  26  27
ENDBRANCH  11  26
TORSDOF 12
ENDMDL
MODEL 5
REMARK VINA RESULT:      -6.8      2.552      7.484
REMARK  Name = 
REMARK  12 active torsions:
REMARK  status: ('A' for Active; 'I' for Inactive)
REMARK    1  A    between atoms: C_3  and  O_38
REMARK    2  A    between atoms: C_4  and  O_37
REMARK    3  A    between atoms: C_6  and  C_7
REMARK    4  A    between atoms: C_8  and  O_20
REMARK    5  A    between atoms: C_12  and  O_19
REMARK    6  A    between atoms: C_14  and  O_18
REMARK    7  A    between atoms: O_20  and  C_21
REMARK    8  A    between atoms: C_23  and  O_36
REMARK    9  A    between atoms: C_25  and  O_35
REMARK   10  A    between atoms: C_27  and  O_34
REMARK   11  A    between atoms: C_29  and  C_32
REMARK   12  A    between atoms: C_32  and  O_33
REMARK                            x       y       z     vdW  Elec       q    Type
REMARK                         _______ _______ _______ _____ _____    ______ ____
ROOT
ATOM      1  C   UNL     1       7.532  -1.396  23.688  0.00  0.00    +0.181 A 
ATOM      2  O   UNL     1       7.869  -2.700  23.298  0.00  0.00    -0.451 OA
ATOM      3  C   UNL     1       6.865  -3.639  23.225  0.00  0.00    +0.147 A 
ATOM      4  C   UNL     1       5.614  -3.424  23.782  0.00  0.00    +0.109 A 
ATOM      5  C   UNL     1       4.613  -4.405  23.735  0.00  0.00    +0.135 A 
ATOM      6  C   UNL     1       4.856  -5.618  23.110  0.00  0.00    +0.091 A 
ATOM      7  C   UNL     1       6.113  -5.836  22.548  0.00  0.00    +0.124 A 
ATOM      8  C   UNL     1       5.362  -2.153  24.433  0.00  0.00    +0.238 A 
ATOM      9  O   UNL     1       4.386  -2.081  25.170  0.00  0.00    -0.283 OA
ATOM     10  C   UNL     1       7.116  -4.862  22.600  0.00  0.00    +0.092 A 
ATOM     11  C   UNL     1       6.325  -1.033  24.184  0.00  0.00    +0.214 A 
ENDROOT
BRANCH   1  13
ATOM     12  C   UNL     1       9.596  -0.315  24.672  0.00  0.00    +0.015 A 
ATOM     13  C   UNL     1       8.676  -0.437  23.611  0.00  0.00    +0.025 A 
ATOM     14  C   UNL     1       8.809   0.437  22.521  0.00  0.00    +0.060 A 
ATOM     15  C   UNL     1       9.739   1.468  22.560  0.00  0.00    +0.159 A 
ATOM     16  C   UNL     1      10.587   1.634  23.651  0.00  0.00    +0.158 A 
ATOM     17  C   UNL     1      10.552   0.722  24.696  0.00  0.00    +0.050 A 
BRANCH  15  18
ATOM     18  O   UNL     1       9.774   2.367  21.530  0.00  0.00    -0.503 OA
ATOM     19  H   UNL     1       9.070   2.072  20.920  0.00  0.00    +0.292 HD
ENDBRANCH  15  18
BRANCH  16  20
ATOM     20  O   UNL     1      11.414   2.721  23.654  0.00  0.00    -0.503 OA
ATOM     21  H   UNL     1      11.014   3.405  24.218  0.00  0.00    +0.292 HD
ENDBRANCH  16  20
ENDBRANCH   1  13
BRANCH   5  22
ATOM     22  O   UNL     1       3.369  -4.240  24.285  0.00  0.00    -0.506 OA
ATOM     23  H   UNL     1       2.883  -5.090  24.198  0.00  0.00    +0.292 HD
ENDBRANCH   5  22
BRANCH   7  24
ATOM     24  O   UNL     1       6.393  -7.019  21.936  0.00  0.00    -0.507 OA
ATOM     25  H   UNL     1       5.577  -7.363  21.528  0.00  0.00    +0.292 HD
ENDBRANCH   7  24
BRANCH  11  26
ATOM     26  O   UNL     1       6.006   0.290  24.500  0.00  0.00    -0.453 OA
BRANCH  26  27
ATOM     27  C   UNL     1       5.965   0.670  25.890  0.00  0.00    +0.340 C 
ATOM     28  O   UNL     1       4.663   1.146  26.240  0.00  0.00    -0.331 OA
ATOM     29  C   UNL     1       4.375   2.518  26.530  0.00  0.00    +0.179 C 
ATOM     30  C   UNL     1       5.533   3.534  26.499  0.00  0.00    +0.177 C 
ATOM     31  C   UNL     1       6.701   3.038  25.651  0.00  0.00    +0.180 C 
ATOM     32  C   UNL     1       7.111   1.653  26.161  0.00  0.00    +0.214 C 
BRANCH  30  33
ATOM     33  O   UNL     1       5.955   3.792  27.854  0.00  0.00    -0.386 OA
ATOM     34  H   UNL     1       5.667   3.047  28.418  0.00  0.00    +0.210 HD
ENDBRANCH  30  33
BRANCH  31  35
ATOM     35  O   UNL     1       6.381   3.072  24.262  0.00  0.00    -0.386 OA
ATOM     36  H   UNL     1       5.424   3.247  24.134  0.00  0.00    +0.210 HD
ENDBRANCH  31  35
BRANCH  32  37
ATOM     37  O   UNL     1       7.448   1.721  27.559  0.00  0.00    -0.383 OA
ATOM     38  H   UNL     1       8.417   1.840  27.628  0.00  0.00    +0.210 HD
ENDBRANCH  32  37
BRANCH  29  39
ATOM     39  C   UNL     1       3.232   2.958  25.597  0.00  0.00    +0.190 C 
BRANCH  39  40
ATOM     40  O   UNL     1       3.453   2.547  24.246  0.00  0.00    -0.392 OA
ATOM     41  H   UNL     1       3.365   1.579  24.206  0.00  0.00    +0.210 HD
ENDBRANCH  39  40
ENDBRANCH  29  39
ENDBRANCH  26  27
ENDBRANCH  11  26
TORSDOF 12
ENDMDL
MODEL 6
REMARK VINA RESULT:      -6.7      1.891      4.543
REMARK  Name = 
REMARK  12 active torsions:
REMARK  status: ('A' for Active; 'I' for Inactive)
REMARK    1  A    between atoms: C_3  and  O_38
REMARK    2  A    between atoms: C_4  and  O_37
REMARK    3  A    between atoms: C_6  and  C_7
REMARK    4  A    between atoms: C_8  and  O_20
REMARK    5  A    between atoms: C_12  and  O_19
REMARK    6  A    between atoms: C_14  and  O_18
REMARK    7  A    between atoms: O_20  and  C_21
REMARK    8  A    between atoms: C_23  and  O_36
REMARK    9  A    between atoms: C_25  and  O_35
REMARK   10  A    between atoms: C_27  and  O_34
REMARK   11  A    between atoms: C_29  and  C_32
REMARK   12  A    between atoms: C_32  and  O_33
REMARK                            x       y       z     vdW  Elec       q    Type
REMARK                         _______ _______ _______ _____ _____    ______ ____
ROOT
ATOM      1  C   UNL     1       6.764  -1.747  23.552  0.00  0.00    +0.181 A 
ATOM      2  O   UNL     1       7.731  -1.162  22.722  0.00  0.00    -0.451 OA
ATOM      3  C   UNL     1       8.018   0.173  22.897  0.00  0.00    +0.147 A 
ATOM      4  C   UNL     1       7.207   1.009  23.649  0.00  0.00    +0.109 A 
ATOM      5  C   UNL     1       7.490   2.376  23.784  0.00  0.00    +0.135 A 
ATOM      6  C   UNL     1       8.608   2.920  23.173  0.00  0.00    +0.091 A 
ATOM      7  C   UNL     1       9.426   2.081  22.418  0.00  0.00    +0.124 A 
ATOM      8  C   UNL     1       6.038   0.436  24.289  0.00  0.00    +0.238 A 
ATOM      9  O   UNL     1       5.179   1.212  24.691  0.00  0.00    -0.283 OA
ATOM     10  C   UNL     1       9.143   0.718  22.274  0.00  0.00    +0.092 A 
ATOM     11  C   UNL     1       5.950  -1.056  24.386  0.00  0.00    +0.214 A 
ENDROOT
BRANCH   1  13
ATOM     12  C   UNL     1       7.760  -4.057  23.292  0.00  0.00    +0.015 A 
ATOM     13  C   UNL     1       6.626  -3.222  23.357  0.00  0.00    +0.025 A 
ATOM     14  C   UNL     1       5.368  -3.803  23.134  0.00  0.00    +0.060 A 
ATOM     15  C   UNL     1       5.270  -5.130  22.737  0.00  0.00    +0.159 A 
ATOM     16  C   UNL     1       6.402  -5.926  22.593  0.00  0.00    +0.158 A 
ATOM     17  C   UNL     1       7.651  -5.411  22.908  0.00  0.00    +0.050 A 
BRANCH  15  18
ATOM     18  O   UNL     1       4.039  -5.639  22.427  0.00  0.00    -0.503 OA
ATOM     19  H   UNL     1       4.209  -6.278  21.707  0.00  0.00    +0.292 HD
ENDBRANCH  15  18
BRANCH  16  20
ATOM     20  O   UNL     1       6.231  -7.195  22.116  0.00  0.00    -0.503 OA
ATOM     21  H   UNL     1       7.008  -7.422  21.576  0.00  0.00    +0.292 HD
ENDBRANCH  16  20
ENDBRANCH   1  13
BRANCH   5  22
ATOM     22  O   UNL     1       6.707   3.240  24.505  0.00  0.00    -0.506 OA
ATOM     23  H   UNL     1       5.819   3.267  24.085  0.00  0.00    +0.292 HD
ENDBRANCH   5  22
BRANCH   7  24
ATOM     24  O   UNL     1      10.528   2.581  21.793  0.00  0.00    -0.507 OA
ATOM     25  H   UNL     1      11.006   3.159  22.414  0.00  0.00    +0.292 HD
ENDBRANCH   7  24
BRANCH  11  26
ATOM     26  O   UNL     1       5.044  -1.681  25.246  0.00  0.00    -0.453 OA
BRANCH  26  27
ATOM     27  C   UNL     1       5.393  -1.795  26.640  0.00  0.00    +0.340 C 
ATOM     28  O   UNL     1       6.369  -2.823  26.829  0.00  0.00    -0.331 OA
ATOM     29  C   UNL     1       6.087  -4.072  27.468  0.00  0.00    +0.179 C 
ATOM     30  C   UNL     1       4.667  -4.313  28.016  0.00  0.00    +0.177 C 
ATOM     31  C   UNL     1       3.635  -3.420  27.332  0.00  0.00    +0.180 C 
ATOM     32  C   UNL     1       4.104  -1.966  27.453  0.00  0.00    +0.214 C 
BRANCH  30  33
ATOM     33  O   UNL     1       4.679  -4.087  29.441  0.00  0.00    -0.386 OA
ATOM     34  H   UNL     1       5.598  -4.170  29.762  0.00  0.00    +0.210 HD
ENDBRANCH  30  33
BRANCH  31  35
ATOM     35  O   UNL     1       3.397  -3.841  25.991  0.00  0.00    -0.386 OA
ATOM     36  H   UNL     1       3.628  -4.788  25.881  0.00  0.00    +0.210 HD
ENDBRANCH  31  35
BRANCH  32  37
ATOM     37  O   UNL     1       4.286  -1.619  28.838  0.00  0.00    -0.383 OA
ATOM     38  H   UNL     1       5.124  -2.024  29.141  0.00  0.00    +0.210 HD
ENDBRANCH  32  37
BRANCH  29  39
ATOM     39  C   UNL     1       6.500  -5.193  26.497  0.00  0.00    +0.190 C 
BRANCH  39  40
ATOM     40  O   UNL     1       7.719  -5.824  26.892  0.00  0.00    -0.392 OA
ATOM     41  H   UNL     1       7.495  -6.646  27.362  0.00  0.00    +0.210 HD
ENDBRANCH  39  40
ENDBRANCH  29  39
ENDBRANCH  26  27
ENDBRANCH  11  26
TORSDOF 12
ENDMDL
MODEL 7
REMARK VINA RESULT:      -6.7      2.806      7.106
REMARK  Name = 
REMARK  12 active torsions:
REMARK  status: ('A' for Active; 'I' for Inactive)
REMARK    1  A    between atoms: C_3  and  O_38
REMARK    2  A    between atoms: C_4  and  O_37
REMARK    3  A    between atoms: C_6  and  C_7
REMARK    4  A    between atoms: C_8  and  O_20
REMARK    5  A    between atoms: C_12  and  O_19
REMARK    6  A    between atoms: C_14  and  O_18
REMARK    7  A    between atoms: O_20  and  C_21
REMARK    8  A    between atoms: C_23  and  O_36
REMARK    9  A    between atoms: C_25  and  O_35
REMARK   10  A    between atoms: C_27  and  O_34
REMARK   11  A    between atoms: C_29  and  C_32
REMARK   12  A    between atoms: C_32  and  O_33
REMARK                            x       y       z     vdW  Elec       q    Type
REMARK                         _______ _______ _______ _____ _____    ______ ____
ROOT
ATOM      1  C   UNL     1       6.755  -0.729  26.544  0.00  0.00    +0.181 A 
ATOM      2  O   UNL     1       6.017  -1.875  26.871  0.00  0.00    -0.451 OA
ATOM      3  C   UNL     1       6.656  -3.094  26.833  0.00  0.00    +0.147 A 
ATOM      4  C   UNL     1       7.890  -3.260  26.224  0.00  0.00    +0.109 A 
ATOM      5  C   UNL     1       8.511  -4.516  26.158  0.00  0.00    +0.135 A 
ATOM      6  C   UNL     1       7.899  -5.626  26.720  0.00  0.00    +0.091 A 
ATOM      7  C   UNL     1       6.658  -5.460  27.334  0.00  0.00    +0.124 A 
ATOM      8  C   UNL     1       8.528  -2.097  25.639  0.00  0.00    +0.238 A 
ATOM      9  O   UNL     1       9.451  -2.294  24.857  0.00  0.00    -0.283 OA
ATOM     10  C   UNL     1       6.033  -4.210  27.395  0.00  0.00    +0.092 A 
ATOM     11  C   UNL     1       7.998  -0.745  26.006  0.00  0.00    +0.214 A 
ENDROOT
BRANCH   1  13
ATOM     12  C   UNL     1       6.195   1.343  27.883  0.00  0.00    +0.015 A 
ATOM     13  C   UNL     1       5.995   0.544  26.739  0.00  0.00    +0.025 A 
ATOM     14  C   UNL     1       4.991   0.928  25.837  0.00  0.00    +0.060 A 
ATOM     15  C   UNL     1       4.146   1.987  26.138  0.00  0.00    +0.159 A 
ATOM     16  C   UNL     1       4.296   2.718  27.312  0.00  0.00    +0.158 A 
ATOM     17  C   UNL     1       5.345   2.431  28.174  0.00  0.00    +0.050 A 
BRANCH  15  18
ATOM     18  O   UNL     1       3.112   2.271  25.290  0.00  0.00    -0.503 OA
ATOM     19  H   UNL     1       2.713   3.087  25.650  0.00  0.00    +0.292 HD
ENDBRANCH  15  18
BRANCH  16  20
ATOM     20  O   UNL     1       3.373   3.689  27.581  0.00  0.00    -0.503 OA
ATOM     21  H   UNL     1       3.848   4.486  27.875  0.00  0.00    +0.292 HD
ENDBRANCH  16  20
ENDBRANCH   1  13
BRANCH   5  22
ATOM     22  O   UNL     1       9.722  -4.727  25.553  0.00  0.00    -0.506 OA
ATOM     23  H   UNL     1      10.381  -4.927  26.254  0.00  0.00    +0.292 HD
ENDBRANCH   5  22
BRANCH   7  24
ATOM     24  O   UNL     1       6.021  -6.529  27.887  0.00  0.00    -0.507 OA
ATOM     25  H   UNL     1       5.238  -6.211  28.371  0.00  0.00    +0.292 HD
ENDBRANCH   7  24
BRANCH  11  26
ATOM     26  O   UNL     1       8.727   0.420  25.755  0.00  0.00    -0.453 OA
BRANCH  26  27
ATOM     27  C   UNL     1       8.338   1.241  24.636  0.00  0.00    +0.340 C 
ATOM     28  O   UNL     1       7.908   0.426  23.543  0.00  0.00    -0.331 OA
ATOM     29  C   UNL     1       8.654   0.269  22.333  0.00  0.00    +0.179 C 
ATOM     30  C   UNL     1       9.977   1.045  22.179  0.00  0.00    +0.177 C 
ATOM     31  C   UNL     1      10.562   1.442  23.531  0.00  0.00    +0.180 C 
ATOM     32  C   UNL     1       9.488   2.204  24.314  0.00  0.00    +0.214 C 
BRANCH  30  33
ATOM     33  O   UNL     1       9.734   2.209  21.362  0.00  0.00    -0.386 OA
ATOM     34  H   UNL     1       8.860   2.578  21.596  0.00  0.00    +0.210 HD
ENDBRANCH  30  33
BRANCH  31  35
ATOM     35  O   UNL     1      11.086   0.309  24.219  0.00  0.00    -0.386 OA
ATOM     36  H   UNL     1      10.367  -0.181  24.673  0.00  0.00    +0.210 HD
ENDBRANCH  31  35
BRANCH  32  37
ATOM     37  O   UNL     1       9.044   3.347  23.561  0.00  0.00    -0.383 OA
ATOM     38  H   UNL     1       8.085   3.456  23.718  0.00  0.00    +0.210 HD
ENDBRANCH  32  37
BRANCH  29  39
ATOM     39  C   UNL     1       8.874  -1.240  22.117  0.00  0.00    +0.190 C 
BRANCH  39  40
ATOM     40  O   UNL     1      10.247  -1.554  21.872  0.00  0.00    -0.392 OA
ATOM     41  H   UNL     1      10.335  -2.522  21.844  0.00  0.00    +0.210 HD
ENDBRANCH  39  40
ENDBRANCH  29  39
ENDBRANCH  26  27
ENDBRANCH  11  26
TORSDOF 12
ENDMDL
MODEL 8
REMARK VINA RESULT:      -6.6      2.432      7.580
REMARK  Name = 
REMARK  12 active torsions:
REMARK  status: ('A' for Active; 'I' for Inactive)
REMARK    1  A    between atoms: C_3  and  O_38
REMARK    2  A    between atoms: C_4  and  O_37
REMARK    3  A    between atoms: C_6  and  C_7
REMARK    4  A    between atoms: C_8  and  O_20
REMARK    5  A    between atoms: C_12  and  O_19
REMARK    6  A    between atoms: C_14  and  O_18
REMARK    7  A    between atoms: O_20  and  C_21
REMARK    8  A    between atoms: C_23  and  O_36
REMARK    9  A    between atoms: C_25  and  O_35
REMARK   10  A    between atoms: C_27  and  O_34
REMARK   11  A    between atoms: C_29  and  C_32
REMARK   12  A    between atoms: C_32  and  O_33
REMARK                            x       y       z     vdW  Elec       q    Type
REMARK                         _______ _______ _______ _____ _____    ______ ____
ROOT
ATOM      1  C   UNL     1       7.550  -1.207  23.801  0.00  0.00    +0.181 A 
ATOM      2  O   UNL     1       7.725  -2.439  23.157  0.00  0.00    -0.451 OA
ATOM      3  C   UNL     1       6.649  -3.294  23.082  0.00  0.00    +0.147 A 
ATOM      4  C   UNL     1       5.507  -3.111  23.847  0.00  0.00    +0.109 A 
ATOM      5  C   UNL     1       4.435  -4.013  23.789  0.00  0.00    +0.135 A 
ATOM      6  C   UNL     1       4.493  -5.111  22.945  0.00  0.00    +0.091 A 
ATOM      7  C   UNL     1       5.640  -5.296  22.174  0.00  0.00    +0.124 A 
ATOM      8  C   UNL     1       5.450  -1.961  24.728  0.00  0.00    +0.238 A 
ATOM      9  O   UNL     1       4.593  -1.964  25.603  0.00  0.00    -0.283 OA
ATOM     10  C   UNL     1       6.715  -4.402  22.235  0.00  0.00    +0.092 A 
ATOM     11  C   UNL     1       6.455  -0.869  24.525  0.00  0.00    +0.214 A 
ENDROOT
BRANCH   1  13
ATOM     12  C   UNL     1       9.618  -0.156  24.809  0.00  0.00    +0.015 A 
ATOM     13  C   UNL     1       8.745  -0.313  23.714  0.00  0.00    +0.025 A 
ATOM     14  C   UNL     1       8.975   0.469  22.571  0.00  0.00    +0.060 A 
ATOM     15  C   UNL     1       9.954   1.453  22.582  0.00  0.00    +0.159 A 
ATOM     16  C   UNL     1      10.757   1.660  23.699  0.00  0.00    +0.158 A 
ATOM     17  C   UNL     1      10.626   0.832  24.805  0.00  0.00    +0.050 A 
BRANCH  15  18
ATOM     18  O   UNL     1      10.085   2.269  21.492  0.00  0.00    -0.503 OA
ATOM     19  H   UNL     1       9.966   3.173  21.843  0.00  0.00    +0.292 HD
ENDBRANCH  15  18
BRANCH  16  20
ATOM     20  O   UNL     1      11.640   2.702  23.665  0.00  0.00    -0.503 OA
ATOM     21  H   UNL     1      12.540   2.340  23.736  0.00  0.00    +0.292 HD
ENDBRANCH  16  20
ENDBRANCH   1  13
BRANCH   5  22
ATOM     22  O   UNL     1       3.296  -3.878  24.538  0.00  0.00    -0.506 OA
ATOM     23  H   UNL     1       3.208  -2.932  24.790  0.00  0.00    +0.292 HD
ENDBRANCH   5  22
BRANCH   7  24
ATOM     24  O   UNL     1       5.738  -6.369  21.341  0.00  0.00    -0.507 OA
ATOM     25  H   UNL     1       4.945  -6.925  21.451  0.00  0.00    +0.292 HD
ENDBRANCH   7  24
BRANCH  11  26
ATOM     26  O   UNL     1       6.288   0.395  25.097  0.00  0.00    -0.453 OA
BRANCH  26  27
ATOM     27  C   UNL     1       5.608   1.408  24.329  0.00  0.00    +0.340 C 
ATOM     28  O   UNL     1       6.539   2.381  23.850  0.00  0.00    -0.331 OA
ATOM     29  C   UNL     1       6.604   3.723  24.344  0.00  0.00    +0.179 C 
ATOM     30  C   UNL     1       5.596   4.157  25.426  0.00  0.00    +0.177 C 
ATOM     31  C   UNL     1       5.034   2.962  26.190  0.00  0.00    +0.180 C 
ATOM     32  C   UNL     1       4.458   1.970  25.174  0.00  0.00    +0.214 C 
BRANCH  30  33
ATOM     33  O   UNL     1       4.537   4.907  24.793  0.00  0.00    -0.386 OA
ATOM     34  H   UNL     1       4.936   5.540  24.165  0.00  0.00    +0.210 HD
ENDBRANCH  30  33
BRANCH  31  35
ATOM     35  O   UNL     1       6.014   2.398  27.058  0.00  0.00    -0.386 OA
ATOM     36  H   UNL     1       6.879   2.843  26.936  0.00  0.00    +0.210 HD
ENDBRANCH  31  35
BRANCH  32  37
ATOM     37  O   UNL     1       3.456   2.614  24.367  0.00  0.00    -0.383 OA
ATOM     38  H   UNL     1       3.602   2.347  23.437  0.00  0.00    +0.210 HD
ENDBRANCH  32  37
BRANCH  29  39
ATOM     39  C   UNL     1       8.050   3.976  24.807  0.00  0.00    +0.190 C 
BRANCH  39  40
ATOM     40  O   UNL     1       8.110   4.418  26.165  0.00  0.00    -0.392 OA
ATOM     41  H   UNL     1       7.459   5.131  26.279  0.00  0.00    +0.210 HD
ENDBRANCH  39  40
ENDBRANCH  29  39
ENDBRANCH  26  27
ENDBRANCH  11  26
TORSDOF 12
ENDMDL
MODEL 9
REMARK VINA RESULT:      -6.6      3.124      6.019
REMARK  Name = 
REMARK  12 active torsions:
REMARK  status: ('A' for Active; 'I' for Inactive)
REMARK    1  A    between atoms: C_3  and  O_38
REMARK    2  A    between atoms: C_4  and  O_37
REMARK    3  A    between atoms: C_6  and  C_7
REMARK    4  A    between atoms: C_8  and  O_20
REMARK    5  A    between atoms: C_12  and  O_19
REMARK    6  A    between atoms: C_14  and  O_18
REMARK    7  A    between atoms: O_20  and  C_21
REMARK    8  A    between atoms: C_23  and  O_36
REMARK    9  A    between atoms: C_25  and  O_35
REMARK   10  A    between atoms: C_27  and  O_34
REMARK   11  A    between atoms: C_29  and  C_32
REMARK   12  A    between atoms: C_32  and  O_33
REMARK                            x       y       z     vdW  Elec       q    Type
REMARK                         _______ _______ _______ _____ _____    ______ ____
ROOT
ATOM      1  C   UNL     1       9.307   1.586  23.657  0.00  0.00    +0.181 A 
ATOM      2  O   UNL     1      10.599   1.968  23.268  0.00  0.00    -0.451 OA
ATOM      3  C   UNL     1      10.962   3.287  23.422  0.00  0.00    +0.147 A 
ATOM      4  C   UNL     1      10.031   4.283  23.674  0.00  0.00    +0.109 A 
ATOM      5  C   UNL     1      10.411   5.629  23.788  0.00  0.00    +0.135 A 
ATOM      6  C   UNL     1      11.743   5.989  23.664  0.00  0.00    +0.091 A 
ATOM      7  C   UNL     1      12.681   4.989  23.412  0.00  0.00    +0.124 A 
ATOM      8  C   UNL     1       8.638   3.903  23.805  0.00  0.00    +0.238 A 
ATOM      9  O   UNL     1       7.801   4.794  23.727  0.00  0.00    -0.283 OA
ATOM     10  C   UNL     1      12.305   3.646  23.290  0.00  0.00    +0.092 A 
ATOM     11  C   UNL     1       8.321   2.451  23.995  0.00  0.00    +0.214 A 
ENDROOT
BRANCH   1  13
ATOM     12  C   UNL     1       8.635  -0.476  22.357  0.00  0.00    +0.015 A 
ATOM     13  C   UNL     1       9.068   0.114  23.561  0.00  0.00    +0.025 A 
ATOM     14  C   UNL     1       9.174  -0.707  24.695  0.00  0.00    +0.060 A 
ATOM     15  C   UNL     1       8.740  -2.025  24.649  0.00  0.00    +0.159 A 
ATOM     16  C   UNL     1       8.233  -2.577  23.476  0.00  0.00    +0.158 A 
ATOM     17  C   UNL     1       8.214  -1.823  22.311  0.00  0.00    +0.050 A 
BRANCH  15  18
ATOM     18  O   UNL     1       8.758  -2.769  25.796  0.00  0.00    -0.503 OA
ATOM     19  H   UNL     1       9.267  -2.230  26.433  0.00  0.00    +0.292 HD
ENDBRANCH  15  18
BRANCH  16  20
ATOM     20  O   UNL     1       7.746  -3.852  23.531  0.00  0.00    -0.503 OA
ATOM     21  H   UNL     1       8.389  -4.402  24.011  0.00  0.00    +0.292 HD
ENDBRANCH  16  20
ENDBRANCH   1  13
BRANCH   5  22
ATOM     22  O   UNL     1       9.523   6.646  24.021  0.00  0.00    -0.506 OA
ATOM     23  H   UNL     1       9.610   6.915  24.962  0.00  0.00    +0.292 HD
ENDBRANCH   5  22
BRANCH   7  24
ATOM     24  O   UNL     1      13.998   5.305  23.273  0.00  0.00    -0.507 OA
ATOM     25  H   UNL     1      14.536   4.562  23.603  0.00  0.00    +0.292 HD
ENDBRANCH   7  24
BRANCH  11  26
ATOM     26  O   UNL     1       7.066   2.029  24.441  0.00  0.00    -0.453 OA
BRANCH  26  27
ATOM     27  C   UNL     1       6.806   2.041  25.860  0.00  0.00    +0.340 C 
ATOM     28  O   UNL     1       6.611   0.710  26.344  0.00  0.00    -0.331 OA
ATOM     29  C   UNL     1       5.344   0.203  26.775  0.00  0.00    +0.179 C 
ATOM     30  C   UNL     1       4.128   1.149  26.751  0.00  0.00    +0.177 C 
ATOM     31  C   UNL     1       4.329   2.309  25.780  0.00  0.00    +0.180 C 
ATOM     32  C   UNL     1       5.646   3.007  26.134  0.00  0.00    +0.214 C 
BRANCH  30  33
ATOM     33  O   UNL     1       3.897   1.633  28.091  0.00  0.00    -0.386 OA
ATOM     34  H   UNL     1       2.937   1.613  28.269  0.00  0.00    +0.210 HD
ENDBRANCH  30  33
BRANCH  31  35
ATOM     35  O   UNL     1       4.254   1.867  24.427  0.00  0.00    -0.386 OA
ATOM     36  H   UNL     1       4.108   0.898  24.389  0.00  0.00    +0.210 HD
ENDBRANCH  31  35
BRANCH  32  37
ATOM     37  O   UNL     1       5.621   3.447  27.504  0.00  0.00    -0.383 OA
ATOM     38  H   UNL     1       6.417   3.093  27.948  0.00  0.00    +0.210 HD
ENDBRANCH  32  37
BRANCH  29  39
ATOM     39  C   UNL     1       5.060  -1.079  25.970  0.00  0.00    +0.190 C 
BRANCH  39  40
ATOM     40  O   UNL     1       5.335  -0.910  24.577  0.00  0.00    -0.392 OA
ATOM     41  H   UNL     1       4.515  -0.622  24.141  0.00  0.00    +0.210 HD
ENDBRANCH  39  40
ENDBRANCH  29  39
ENDBRANCH  26  27
ENDBRANCH  11  26
TORSDOF 12
ENDMDL
