MODEL 1
REMARK VINA RESULT:      -7.6      0.000      0.000
REMARK  Name = 
REMARK  13 active torsions:
REMARK  status: ('A' for Active; 'I' for Inactive)
REMARK    1  A    between atoms: C_1  and  O_2
REMARK    2  A    between atoms: O_2  and  C_3
REMARK    3  A    between atoms: C_4  and  C_16
REMARK    4  A    between atoms: C_8  and  O_15
REMARK    5  A    between atoms: C_10  and  O_14
REMARK    6  A    between atoms: C_18  and  O_23
REMARK    7  A    between atoms: C_19  and  O_22
REMARK    8  A    between atoms: O_23  and  C_24
REMARK    9  A    between atoms: C_26  and  O_37
REMARK   10  A    between atoms: C_27  and  O_36
REMARK   11  A    between atoms: C_29  and  O_35
REMARK   12  A    between atoms: C_31  and  C_33
REMARK   13  A    between atoms: C_33  and  O_34
REMARK                            x       y       z     vdW  Elec       q    Type
REMARK                         _______ _______ _______ _____ _____    ______ ____
ROOT
ATOM      1  C   UNL     1       8.328  -1.005  23.509  0.00  0.00    +0.025 A 
ATOM      2  C   UNL     1       9.622  -1.096  22.989  0.00  0.00    +0.015 A 
ATOM      3  C   UNL     1      10.174  -0.012  22.302  0.00  0.00    +0.050 A 
ATOM      4  C   UNL     1       9.432   1.159  22.136  0.00  0.00    +0.159 A 
ATOM      5  C   UNL     1       8.128   1.273  22.633  0.00  0.00    +0.166 A 
ATOM      6  C   UNL     1       7.608   0.190  23.354  0.00  0.00    +0.061 A 
ENDROOT
BRANCH   1  17
ATOM      7  C   UNL     1       7.999  -2.565  25.432  0.00  0.00    +0.211 A 
ATOM      8  C   UNL     1       7.324  -3.808  25.932  0.00  0.00    +0.238 A 
ATOM      9  O   UNL     1       7.550  -4.209  27.068  0.00  0.00    -0.283 OA
ATOM     10  C   UNL     1       6.408  -4.514  25.015  0.00  0.00    +0.109 A 
ATOM     11  C   UNL     1       6.191  -3.951  23.757  0.00  0.00    +0.147 A 
ATOM     12  C   UNL     1       5.343  -4.580  22.837  0.00  0.00    +0.092 A 
ATOM     13  C   UNL     1       4.703  -5.764  23.197  0.00  0.00    +0.124 A 
ATOM     14  C   UNL     1       4.895  -6.327  24.451  0.00  0.00    +0.091 A 
ATOM     15  O   UNL     1       6.772  -2.777  23.348  0.00  0.00    -0.451 OA
ATOM     16  C   UNL     1       5.750  -5.704  25.356  0.00  0.00    +0.135 A 
ATOM     17  C   UNL     1       7.673  -2.137  24.190  0.00  0.00    +0.181 A 
BRANCH   7  19
ATOM     18  C   UNL     1       8.701  -0.850  27.030  0.00  0.00    +0.277 C 
ATOM     19  O   UNL     1       8.915  -2.052  26.323  0.00  0.00    -0.488 OA
ENDBRANCH   7  19
BRANCH  13  20
ATOM     20  O   UNL     1       3.860  -6.412  22.343  0.00  0.00    -0.507 OA
ATOM     21  H   UNL     1       3.183  -5.793  22.031  0.00  0.00    +0.292 HD
ENDBRANCH  13  20
BRANCH  16  22
ATOM     22  O   UNL     1       5.929  -6.282  26.582  0.00  0.00    -0.506 OA
ATOM     23  H   UNL     1       5.110  -6.703  26.886  0.00  0.00    +0.292 HD
ENDBRANCH  16  22
ENDBRANCH   1  17
BRANCH   4  24
ATOM     24  O   UNL     1      10.024   2.186  21.457  0.00  0.00    -0.503 OA
ATOM     25  H   UNL     1       9.466   2.354  20.681  0.00  0.00    +0.292 HD
ENDBRANCH   4  24
BRANCH   5  26
ATOM     26  O   UNL     1       7.441   2.440  22.345  0.00  0.00    -0.457 OA
BRANCH  26  27
ATOM     27  C   UNL     1       7.039   3.191  23.512  0.00  0.00    +0.339 C 
ATOM     28  O   UNL     1       5.611   3.315  23.587  0.00  0.00    -0.331 OA
ATOM     29  C   UNL     1       5.059   4.204  22.605  0.00  0.00    +0.179 C 
ATOM     30  C   UNL     1       5.568   5.627  22.888  0.00  0.00    +0.177 C 
ATOM     31  C   UNL     1       7.098   5.658  22.780  0.00  0.00    +0.180 C 
ATOM     32  C   UNL     1       7.734   4.566  23.638  0.00  0.00    +0.214 C 
BRANCH  30  33
ATOM     33  O   UNL     1       4.992   6.585  21.999  0.00  0.00    -0.386 OA
ATOM     34  H   UNL     1       5.151   6.258  21.084  0.00  0.00    +0.210 HD
ENDBRANCH  30  33
BRANCH  31  35
ATOM     35  O   UNL     1       7.511   5.540  21.406  0.00  0.00    -0.386 OA
ATOM     36  H   UNL     1       8.452   5.289  21.378  0.00  0.00    +0.210 HD
ENDBRANCH  31  35
BRANCH  32  37
ATOM     37  O   UNL     1       9.142   4.482  23.404  0.00  0.00    -0.383 OA
ATOM     38  H   UNL     1       9.281   3.799  22.719  0.00  0.00    +0.210 HD
ENDBRANCH  32  37
BRANCH  29  39
ATOM     39  C   UNL     1       3.525   4.127  22.651  0.00  0.00    +0.190 C 
BRANCH  39  40
ATOM     40  O   UNL     1       2.928   4.507  21.415  0.00  0.00    -0.392 OA
ATOM     41  H   UNL     1       2.009   4.164  21.424  0.00  0.00    +0.210 HD
ENDBRANCH  39  40
ENDBRANCH  29  39
ENDBRANCH  26  27
ENDBRANCH   5  26
TORSDOF 12
ENDMDL
MODEL 2
REMARK VINA RESULT:      -7.5      2.346      9.225
REMARK  Name = 
REMARK  13 active torsions:
REMARK  status: ('A' for Active; 'I' for Inactive)
REMARK    1  A    between atoms: C_1  and  O_2
REMARK    2  A    between atoms: O_2  and  C_3
REMARK    3  A    between atoms: C_4  and  C_16
REMARK    4  A    between atoms: C_8  and  O_15
REMARK    5  A    between atoms: C_10  and  O_14
REMARK    6  A    between atoms: C_18  and  O_23
REMARK    7  A    between atoms: C_19  and  O_22
REMARK    8  A    between atoms: O_23  and  C_24
REMARK    9  A    between atoms: C_26  and  O_37
REMARK   10  A    between atoms: C_27  and  O_36
REMARK   11  A    between atoms: C_29  and  O_35
REMARK   12  A    between atoms: C_31  and  C_33
REMARK   13  A    between atoms: C_33  and  O_34
REMARK                            x       y       z     vdW  Elec       q    Type
REMARK                         _______ _______ _______ _____ _____    ______ ____
ROOT
ATOM      1  C   UNL     1       8.601   0.578  23.120  0.00  0.00    +0.025 A 
ATOM      2  C   UNL     1       9.211  -0.088  22.053  0.00  0.00    +0.015 A 
ATOM      3  C   UNL     1       8.919  -1.432  21.812  0.00  0.00    +0.050 A 
ATOM      4  C   UNL     1       8.018  -2.108  22.637  0.00  0.00    +0.159 A 
ATOM      5  C   UNL     1       7.405  -1.471  23.723  0.00  0.00    +0.166 A 
ATOM      6  C   UNL     1       7.680  -0.113  23.922  0.00  0.00    +0.061 A 
ENDROOT
BRANCH   1  17
ATOM      7  C   UNL     1       7.985   2.924  23.715  0.00  0.00    +0.211 A 
ATOM      8  C   UNL     1       8.468   4.330  23.919  0.00  0.00    +0.238 A 
ATOM      9  O   UNL     1       7.667   5.214  24.202  0.00  0.00    -0.283 OA
ATOM     10  C   UNL     1       9.911   4.596  23.757  0.00  0.00    +0.109 A 
ATOM     11  C   UNL     1      10.741   3.511  23.472  0.00  0.00    +0.147 A 
ATOM     12  C   UNL     1      12.117   3.701  23.295  0.00  0.00    +0.092 A 
ATOM     13  C   UNL     1      12.652   4.981  23.423  0.00  0.00    +0.124 A 
ATOM     14  C   UNL     1      11.842   6.067  23.723  0.00  0.00    +0.091 A 
ATOM     15  O   UNL     1      10.282   2.223  23.354  0.00  0.00    -0.451 OA
ATOM     16  C   UNL     1      10.473   5.874  23.885  0.00  0.00    +0.135 A 
ATOM     17  C   UNL     1       8.918   1.978  23.457  0.00  0.00    +0.181 A 
BRANCH   7  19
ATOM     18  C   UNL     1       5.788   2.919  22.639  0.00  0.00    +0.277 C 
ATOM     19  O   UNL     1       6.615   2.810  23.777  0.00  0.00    -0.488 OA
ENDBRANCH   7  19
BRANCH  13  20
ATOM     20  O   UNL     1      13.986   5.219  23.269  0.00  0.00    -0.507 OA
ATOM     21  H   UNL     1      14.446   5.014  24.097  0.00  0.00    +0.292 HD
ENDBRANCH  13  20
BRANCH  16  22
ATOM     22  O   UNL     1       9.695   6.961  24.173  0.00  0.00    -0.506 OA
ATOM     23  H   UNL     1       8.908   6.696  24.675  0.00  0.00    +0.292 HD
ENDBRANCH  16  22
ENDBRANCH   1  17
BRANCH   4  24
ATOM     24  O   UNL     1       7.770  -3.421  22.353  0.00  0.00    -0.503 OA
ATOM     25  H   UNL     1       7.035  -3.425  21.717  0.00  0.00    +0.292 HD
ENDBRANCH   4  24
BRANCH   5  26
ATOM     26  O   UNL     1       6.593  -2.246  24.535  0.00  0.00    -0.457 OA
BRANCH  26  27
ATOM     27  C   UNL     1       6.905  -2.153  25.942  0.00  0.00    +0.339 C 
ATOM     28  O   UNL     1       8.192  -2.720  26.231  0.00  0.00    -0.331 OA
ATOM     29  C   UNL     1       8.223  -4.152  26.136  0.00  0.00    +0.179 C 
ATOM     30  C   UNL     1       7.309  -4.737  27.225  0.00  0.00    +0.177 C 
ATOM     31  C   UNL     1       5.869  -4.257  27.003  0.00  0.00    +0.180 C 
ATOM     32  C   UNL     1       5.809  -2.738  26.864  0.00  0.00    +0.214 C 
BRANCH  30  33
ATOM     33  O   UNL     1       7.355  -6.165  27.248  0.00  0.00    -0.386 OA
ATOM     34  H   UNL     1       6.503  -6.472  27.636  0.00  0.00    +0.210 HD
ENDBRANCH  30  33
BRANCH  31  35
ATOM     35  O   UNL     1       5.292  -4.903  25.854  0.00  0.00    -0.386 OA
ATOM     36  H   UNL     1       5.332  -5.869  25.978  0.00  0.00    +0.210 HD
ENDBRANCH  31  35
BRANCH  32  37
ATOM     37  O   UNL     1       4.500  -2.307  26.484  0.00  0.00    -0.383 OA
ATOM     38  H   UNL     1       3.893  -2.551  27.211  0.00  0.00    +0.210 HD
ENDBRANCH  32  37
BRANCH  29  39
ATOM     39  C   UNL     1       9.672  -4.642  26.282  0.00  0.00    +0.190 C 
BRANCH  39  40
ATOM     40  O   UNL     1       9.885  -5.896  25.641  0.00  0.00    -0.392 OA
ATOM     41  H   UNL     1       9.626  -5.784  24.702  0.00  0.00    +0.210 HD
ENDBRANCH  39  40
ENDBRANCH  29  39
ENDBRANCH  26  27
ENDBRANCH   5  26
TORSDOF 12
ENDMDL
MODEL 3
REMARK VINA RESULT:      -7.3      2.112      2.460
REMARK  Name = 
REMARK  13 active torsions:
REMARK  status: ('A' for Active; 'I' for Inactive)
REMARK    1  A    between atoms: C_1  and  O_2
REMARK    2  A    between atoms: O_2  and  C_3
REMARK    3  A    between atoms: C_4  and  C_16
REMARK    4  A    between atoms: C_8  and  O_15
REMARK    5  A    between atoms: C_10  and  O_14
REMARK    6  A    between atoms: C_18  and  O_23
REMARK    7  A    between atoms: C_19  and  O_22
REMARK    8  A    between atoms: O_23  and  C_24
REMARK    9  A    between atoms: C_26  and  O_37
REMARK   10  A    between atoms: C_27  and  O_36
REMARK   11  A    between atoms: C_29  and  O_35
REMARK   12  A    between atoms: C_31  and  C_33
REMARK   13  A    between atoms: C_33  and  O_34
REMARK                            x       y       z     vdW  Elec       q    Type
REMARK                         _______ _______ _______ _____ _____    ______ ____
ROOT
ATOM      1  C   UNL     1       7.884  -2.033  23.548  0.00  0.00    +0.025 A 
ATOM      2  C   UNL     1       8.535  -2.354  22.354  0.00  0.00    +0.015 A 
ATOM      3  C   UNL     1       9.060  -1.338  21.552  0.00  0.00    +0.050 A 
ATOM      4  C   UNL     1       8.933  -0.005  21.944  0.00  0.00    +0.159 A 
ATOM      5  C   UNL     1       8.272   0.348  23.127  0.00  0.00    +0.166 A 
ATOM      6  C   UNL     1       7.789  -0.688  23.937  0.00  0.00    +0.061 A 
ENDROOT
BRANCH   1  17
ATOM      7  C   UNL     1       7.687  -3.370  25.649  0.00  0.00    +0.211 A 
ATOM      8  C   UNL     1       7.020  -4.524  26.338  0.00  0.00    +0.238 A 
ATOM      9  O   UNL     1       7.340  -4.815  27.486  0.00  0.00    -0.283 OA
ATOM     10  C   UNL     1       5.998  -5.280  25.589  0.00  0.00    +0.109 A 
ATOM     11  C   UNL     1       5.682  -4.841  24.303  0.00  0.00    +0.147 A 
ATOM     12  C   UNL     1       4.729  -5.524  23.537  0.00  0.00    +0.092 A 
ATOM     13  C   UNL     1       4.086  -6.635  24.079  0.00  0.00    +0.124 A 
ATOM     14  C   UNL     1       4.377  -7.073  25.363  0.00  0.00    +0.091 A 
ATOM     15  O   UNL     1       6.261  -3.742  23.720  0.00  0.00    -0.451 OA
ATOM     16  C   UNL     1       5.335  -6.398  26.114  0.00  0.00    +0.135 A 
ATOM     17  C   UNL     1       7.259  -3.059  24.403  0.00  0.00    +0.181 A 
BRANCH   7  19
ATOM     18  C   UNL     1       8.603  -1.524  26.968  0.00  0.00    +0.277 C 
ATOM     19  O   UNL     1       8.700  -2.809  26.393  0.00  0.00    -0.488 OA
ENDBRANCH   7  19
BRANCH  13  20
ATOM     20  O   UNL     1       3.144  -7.331  23.379  0.00  0.00    -0.507 OA
ATOM     21  H   UNL     1       2.623  -6.713  22.843  0.00  0.00    +0.292 HD
ENDBRANCH  13  20
BRANCH  16  22
ATOM     22  O   UNL     1       5.611  -6.854  27.373  0.00  0.00    -0.506 OA
ATOM     23  H   UNL     1       5.996  -6.149  27.917  0.00  0.00    +0.292 HD
ENDBRANCH  16  22
ENDBRANCH   1  17
BRANCH   4  24
ATOM     24  O   UNL     1       9.467   0.946  21.121  0.00  0.00    -0.503 OA
ATOM     25  H   UNL     1      10.277   0.560  20.752  0.00  0.00    +0.292 HD
ENDBRANCH   4  24
BRANCH   5  26
ATOM     26  O   UNL     1       8.121   1.699  23.390  0.00  0.00    -0.457 OA
BRANCH  26  27
ATOM     27  C   UNL     1       9.057   2.221  24.357  0.00  0.00    +0.339 C 
ATOM     28  O   UNL     1       8.395   2.616  25.567  0.00  0.00    -0.331 OA
ATOM     29  C   UNL     1       7.605   3.806  25.426  0.00  0.00    +0.179 C 
ATOM     30  C   UNL     1       8.541   4.986  25.116  0.00  0.00    +0.177 C 
ATOM     31  C   UNL     1       9.281   4.723  23.798  0.00  0.00    +0.180 C 
ATOM     32  C   UNL     1       9.956   3.353  23.807  0.00  0.00    +0.214 C 
BRANCH  30  33
ATOM     33  O   UNL     1       7.833   6.224  25.046  0.00  0.00    -0.386 OA
ATOM     34  H   UNL     1       7.585   6.464  25.968  0.00  0.00    +0.210 HD
ENDBRANCH  30  33
BRANCH  31  35
ATOM     35  O   UNL     1       8.384   4.849  22.680  0.00  0.00    -0.386 OA
ATOM     36  H   UNL     1       8.663   4.234  21.978  0.00  0.00    +0.210 HD
ENDBRANCH  31  35
BRANCH  32  37
ATOM     37  O   UNL     1      10.496   3.037  22.522  0.00  0.00    -0.383 OA
ATOM     38  H   UNL     1      11.385   3.439  22.474  0.00  0.00    +0.210 HD
ENDBRANCH  32  37
BRANCH  29  39
ATOM     39  C   UNL     1       6.799   4.040  26.713  0.00  0.00    +0.190 C 
BRANCH  39  40
ATOM     40  O   UNL     1       7.483   4.883  27.635  0.00  0.00    -0.392 OA
ATOM     41  H   UNL     1       8.435   4.649  27.583  0.00  0.00    +0.210 HD
ENDBRANCH  39  40
ENDBRANCH  29  39
ENDBRANCH  26  27
ENDBRANCH   5  26
TORSDOF 12
ENDMDL
MODEL 4
REMARK VINA RESULT:      -7.0      1.448      2.883
REMARK  Name = 
REMARK  13 active torsions:
REMARK  status: ('A' for Active; 'I' for Inactive)
REMARK    1  A    between atoms: C_1  and  O_2
REMARK    2  A    between atoms: O_2  and  C_3
REMARK    3  A    between atoms: C_4  and  C_16
REMARK    4  A    between atoms: C_8  and  O_15
REMARK    5  A    between atoms: C_10  and  O_14
REMARK    6  A    between atoms: C_18  and  O_23
REMARK    7  A    between atoms: C_19  and  O_22
REMARK    8  A    between atoms: O_23  and  C_24
REMARK    9  A    between atoms: C_26  and  O_37
REMARK   10  A    between atoms: C_27  and  O_36
REMARK   11  A    between atoms: C_29  and  O_35
REMARK   12  A    between atoms: C_31  and  C_33
REMARK   13  A    between atoms: C_33  and  O_34
REMARK                            x       y       z     vdW  Elec       q    Type
REMARK                         _______ _______ _______ _____ _____    ______ ____
ROOT
ATOM      1  C   UNL     1       8.251  -2.241  23.538  0.00  0.00    +0.025 A 
ATOM      2  C   UNL     1       9.607  -2.279  23.200  0.00  0.00    +0.015 A 
ATOM      3  C   UNL     1      10.230  -1.137  22.693  0.00  0.00    +0.050 A 
ATOM      4  C   UNL     1       9.498   0.039  22.524  0.00  0.00    +0.159 A 
ATOM      5  C   UNL     1       8.135   0.102  22.838  0.00  0.00    +0.166 A 
ATOM      6  C   UNL     1       7.539  -1.042  23.384  0.00  0.00    +0.061 A 
ENDROOT
BRANCH   1  17
ATOM      7  C   UNL     1       6.852  -4.286  23.215  0.00  0.00    +0.211 A 
ATOM      8  C   UNL     1       6.066  -5.379  23.876  0.00  0.00    +0.238 A 
ATOM      9  O   UNL     1       5.476  -6.206  23.188  0.00  0.00    -0.283 OA
ATOM     10  C   UNL     1       6.025  -5.407  25.351  0.00  0.00    +0.109 A 
ATOM     11  C   UNL     1       6.763  -4.443  26.037  0.00  0.00    +0.147 A 
ATOM     12  C   UNL     1       6.755  -4.409  27.437  0.00  0.00    +0.092 A 
ATOM     13  C   UNL     1       6.017  -5.361  28.138  0.00  0.00    +0.124 A 
ATOM     14  C   UNL     1       5.292  -6.337  27.470  0.00  0.00    +0.091 A 
ATOM     15  O   UNL     1       7.527  -3.492  25.408  0.00  0.00    -0.451 OA
ATOM     16  C   UNL     1       5.293  -6.357  26.078  0.00  0.00    +0.135 A 
ATOM     17  C   UNL     1       7.527  -3.432  24.020  0.00  0.00    +0.181 A 
BRANCH   7  19
ATOM     18  C   UNL     1       5.776  -3.499  21.164  0.00  0.00    +0.277 C 
ATOM     19  O   UNL     1       6.730  -4.285  21.844  0.00  0.00    -0.488 OA
ENDBRANCH   7  19
BRANCH  13  20
ATOM     20  O   UNL     1       5.982  -5.379  29.502  0.00  0.00    -0.507 OA
ATOM     21  H   UNL     1       6.859  -5.616  29.841  0.00  0.00    +0.292 HD
ENDBRANCH  13  20
BRANCH  16  22
ATOM     22  O   UNL     1       4.565  -7.324  25.443  0.00  0.00    -0.506 OA
ATOM     23  H   UNL     1       4.978  -8.194  25.556  0.00  0.00    +0.292 HD
ENDBRANCH  16  22
ENDBRANCH   1  17
BRANCH   4  24
ATOM     24  O   UNL     1      10.161   1.125  22.025  0.00  0.00    -0.503 OA
ATOM     25  H   UNL     1       9.883   1.209  21.098  0.00  0.00    +0.292 HD
ENDBRANCH   4  24
BRANCH   5  26
ATOM     26  O   UNL     1       7.474   1.286  22.556  0.00  0.00    -0.457 OA
BRANCH  26  27
ATOM     27  C   UNL     1       6.936   1.953  23.719  0.00  0.00    +0.339 C 
ATOM     28  O   UNL     1       5.531   2.203  23.574  0.00  0.00    -0.331 OA
ATOM     29  C   UNL     1       5.226   3.234  22.623  0.00  0.00    +0.179 C 
ATOM     30  C   UNL     1       5.787   4.567  23.143  0.00  0.00    +0.177 C 
ATOM     31  C   UNL     1       7.310   4.463  23.290  0.00  0.00    +0.180 C 
ATOM     32  C   UNL     1       7.703   3.237  24.112  0.00  0.00    +0.214 C 
BRANCH  30  33
ATOM     33  O   UNL     1       5.447   5.659  22.287  0.00  0.00    -0.386 OA
ATOM     34  H   UNL     1       4.688   5.362  21.733  0.00  0.00    +0.210 HD
ENDBRANCH  30  33
BRANCH  31  35
ATOM     35  O   UNL     1       7.943   4.442  21.998  0.00  0.00    -0.386 OA
ATOM     36  H   UNL     1       7.519   5.107  21.426  0.00  0.00    +0.210 HD
ENDBRANCH  31  35
BRANCH  32  37
ATOM     37  O   UNL     1       9.119   3.044  24.102  0.00  0.00    -0.383 OA
ATOM     38  H   UNL     1       9.340   2.559  23.282  0.00  0.00    +0.210 HD
ENDBRANCH  32  37
BRANCH  29  39
ATOM     39  C   UNL     1       3.705   3.297  22.408  0.00  0.00    +0.190 C 
BRANCH  39  40
ATOM     40  O   UNL     1       3.355   4.023  21.233  0.00  0.00    -0.392 OA
ATOM     41  H   UNL     1       2.703   3.476  20.745  0.00  0.00    +0.210 HD
ENDBRANCH  39  40
ENDBRANCH  29  39
ENDBRANCH  26  27
ENDBRANCH   5  26
TORSDOF 12
ENDMDL
MODEL 5
REMARK VINA RESULT:      -6.9      2.251      3.198
REMARK  Name = 
REMARK  13 active torsions:
REMARK  status: ('A' for Active; 'I' for Inactive)
REMARK    1  A    between atoms: C_1  and  O_2
REMARK    2  A    between atoms: O_2  and  C_3
REMARK    3  A    between atoms: C_4  and  C_16
REMARK    4  A    between atoms: C_8  and  O_15
REMARK    5  A    between atoms: C_10  and  O_14
REMARK    6  A    between atoms: C_18  and  O_23
REMARK    7  A    between atoms: C_19  and  O_22
REMARK    8  A    between atoms: O_23  and  C_24
REMARK    9  A    between atoms: C_26  and  O_37
REMARK   10  A    between atoms: C_27  and  O_36
REMARK   11  A    between atoms: C_29  and  O_35
REMARK   12  A    between atoms: C_31  and  C_33
REMARK   13  A    between atoms: C_33  and  O_34
REMARK                            x       y       z     vdW  Elec       q    Type
REMARK                         _______ _______ _______ _____ _____    ______ ____
ROOT
ATOM      1  C   UNL     1       7.877  -2.417  23.671  0.00  0.00    +0.025 A 
ATOM      2  C   UNL     1       8.485  -2.563  22.421  0.00  0.00    +0.015 A 
ATOM      3  C   UNL     1       9.224  -1.509  21.879  0.00  0.00    +0.050 A 
ATOM      4  C   UNL     1       9.354  -0.312  22.585  0.00  0.00    +0.159 A 
ATOM      5  C   UNL     1       8.742  -0.132  23.832  0.00  0.00    +0.166 A 
ATOM      6  C   UNL     1       8.040  -1.215  24.377  0.00  0.00    +0.061 A 
ENDROOT
BRANCH   1  17
ATOM      7  C   UNL     1       7.425  -4.260  25.295  0.00  0.00    +0.211 A 
ATOM      8  C   UNL     1       6.500  -5.370  25.699  0.00  0.00    +0.238 A 
ATOM      9  O   UNL     1       6.784  -6.081  26.657  0.00  0.00    -0.283 OA
ATOM     10  C   UNL     1       5.270  -5.570  24.907  0.00  0.00    +0.109 A 
ATOM     11  C   UNL     1       5.024  -4.681  23.861  0.00  0.00    +0.147 A 
ATOM     12  C   UNL     1       3.881  -4.825  23.065  0.00  0.00    +0.092 A 
ATOM     13  C   UNL     1       2.983  -5.855  23.338  0.00  0.00    +0.124 A 
ATOM     14  C   UNL     1       3.207  -6.737  24.386  0.00  0.00    +0.091 A 
ATOM     15  O   UNL     1       5.854  -3.633  23.552  0.00  0.00    -0.451 OA
ATOM     16  C   UNL     1       4.352  -6.596  25.166  0.00  0.00    +0.135 A 
ATOM     17  C   UNL     1       7.036  -3.473  24.264  0.00  0.00    +0.181 A 
BRANCH   7  19
ATOM     18  C   UNL     1       9.753  -4.930  25.631  0.00  0.00    +0.277 C 
ATOM     19  O   UNL     1       8.590  -4.234  26.026  0.00  0.00    -0.488 OA
ENDBRANCH   7  19
BRANCH  13  20
ATOM     20  O   UNL     1       1.851  -6.035  22.600  0.00  0.00    -0.507 OA
ATOM     21  H   UNL     1       1.925  -5.535  21.773  0.00  0.00    +0.292 HD
ENDBRANCH  13  20
BRANCH  16  22
ATOM     22  O   UNL     1       4.553  -7.483  26.187  0.00  0.00    -0.506 OA
ATOM     23  H   UNL     1       5.437  -7.877  26.129  0.00  0.00    +0.292 HD
ENDBRANCH  16  22
ENDBRANCH   1  17
BRANCH   4  24
ATOM     24  O   UNL     1      10.089   0.683  22.007  0.00  0.00    -0.503 OA
ATOM     25  H   UNL     1       9.783   1.513  22.407  0.00  0.00    +0.292 HD
ENDBRANCH   4  24
BRANCH   5  26
ATOM     26  O   UNL     1       8.855   1.118  24.418  0.00  0.00    -0.457 OA
BRANCH  26  27
ATOM     27  C   UNL     1       8.082   2.148  23.766  0.00  0.00    +0.339 C 
ATOM     28  O   UNL     1       8.920   3.213  23.295  0.00  0.00    -0.331 OA
ATOM     29  C   UNL     1       9.454   4.032  24.346  0.00  0.00    +0.179 C 
ATOM     30  C   UNL     1       8.292   4.758  25.044  0.00  0.00    +0.177 C 
ATOM     31  C   UNL     1       7.333   3.728  25.655  0.00  0.00    +0.180 C 
ATOM     32  C   UNL     1       6.911   2.685  24.622  0.00  0.00    +0.214 C 
BRANCH  30  33
ATOM     33  O   UNL     1       8.755   5.660  26.050  0.00  0.00    -0.386 OA
ATOM     34  H   UNL     1       9.132   5.110  26.775  0.00  0.00    +0.210 HD
ENDBRANCH  30  33
BRANCH  31  35
ATOM     35  O   UNL     1       7.930   3.102  26.805  0.00  0.00    -0.386 OA
ATOM     36  H   UNL     1       8.071   2.157  26.616  0.00  0.00    +0.210 HD
ENDBRANCH  31  35
BRANCH  32  37
ATOM     37  O   UNL     1       6.161   1.632  25.232  0.00  0.00    -0.383 OA
ATOM     38  H   UNL     1       6.428   1.593  26.172  0.00  0.00    +0.210 HD
ENDBRANCH  32  37
BRANCH  29  39
ATOM     39  C   UNL     1      10.474   5.019  23.757  0.00  0.00    +0.190 C 
BRANCH  39  40
ATOM     40  O   UNL     1       9.847   6.105  23.082  0.00  0.00    -0.392 OA
ATOM     41  H   UNL     1       8.929   5.823  22.880  0.00  0.00    +0.210 HD
ENDBRANCH  39  40
ENDBRANCH  29  39
ENDBRANCH  26  27
ENDBRANCH   5  26
TORSDOF 12
ENDMDL
MODEL 6
REMARK VINA RESULT:      -6.8      2.105      8.721
REMARK  Name = 
REMARK  13 active torsions:
REMARK  status: ('A' for Active; 'I' for Inactive)
REMARK    1  A    between atoms: C_1  and  O_2
REMARK    2  A    between atoms: O_2  and  C_3
REMARK    3  A    between atoms: C_4  and  C_16
REMARK    4  A    between atoms: C_8  and  O_15
REMARK    5  A    between atoms: C_10  and  O_14
REMARK    6  A    between atoms: C_18  and  O_23
REMARK    7  A    between atoms: C_19  and  O_22
REMARK    8  A    between atoms: O_23  and  C_24
REMARK    9  A    between atoms: C_26  and  O_37
REMARK   10  A    between atoms: C_27  and  O_36
REMARK   11  A    between atoms: C_29  and  O_35
REMARK   12  A    between atoms: C_31  and  C_33
REMARK   13  A    between atoms: C_33  and  O_34
REMARK                            x       y       z     vdW  Elec       q    Type
REMARK                         _______ _______ _______ _____ _____    ______ ____
ROOT
ATOM      1  C   UNL     1       6.842  -2.840  22.688  0.00  0.00    +0.025 A 
ATOM      2  C   UNL     1       7.197  -3.921  21.877  0.00  0.00    +0.015 A 
ATOM      3  C   UNL     1       6.418  -5.080  21.883  0.00  0.00    +0.050 A 
ATOM      4  C   UNL     1       5.288  -5.157  22.697  0.00  0.00    +0.159 A 
ATOM      5  C   UNL     1       4.917  -4.096  23.532  0.00  0.00    +0.166 A 
ATOM      6  C   UNL     1       5.687  -2.927  23.481  0.00  0.00    +0.061 A 
ENDROOT
BRANCH   1  17
ATOM      7  C   UNL     1       8.932  -1.584  23.230  0.00  0.00    +0.211 A 
ATOM      8  C   UNL     1       9.582  -0.238  23.362  0.00  0.00    +0.238 A 
ATOM      9  O   UNL     1      10.749  -0.160  23.731  0.00  0.00    -0.283 OA
ATOM     10  C   UNL     1       8.773   0.956  23.049  0.00  0.00    +0.109 A 
ATOM     11  C   UNL     1       7.468   0.753  22.601  0.00  0.00    +0.147 A 
ATOM     12  C   UNL     1       6.646   1.845  22.299  0.00  0.00    +0.092 A 
ATOM     13  C   UNL     1       7.151   3.137  22.433  0.00  0.00    +0.124 A 
ATOM     14  C   UNL     1       8.453   3.355  22.861  0.00  0.00    +0.091 A 
ATOM     15  O   UNL     1       6.917  -0.492  22.426  0.00  0.00    -0.451 OA
ATOM     16  C   UNL     1       9.261   2.264  23.172  0.00  0.00    +0.135 A 
ATOM     17  C   UNL     1       7.660  -1.615  22.768  0.00  0.00    +0.181 A 
BRANCH   7  19
ATOM     18  C   UNL     1       9.465  -3.364  24.820  0.00  0.00    +0.277 C 
ATOM     19  O   UNL     1       9.736  -2.617  23.654  0.00  0.00    -0.488 OA
ENDBRANCH   7  19
BRANCH  13  20
ATOM     20  O   UNL     1       6.395   4.236  22.144  0.00  0.00    -0.507 OA
ATOM     21  H   UNL     1       6.743   5.000  22.629  0.00  0.00    +0.292 HD
ENDBRANCH  13  20
BRANCH  16  22
ATOM     22  O   UNL     1      10.537   2.504  23.600  0.00  0.00    -0.506 OA
ATOM     23  H   UNL     1      10.534   3.064  24.392  0.00  0.00    +0.292 HD
ENDBRANCH  16  22
ENDBRANCH   1  17
BRANCH   4  24
ATOM     24  O   UNL     1       4.563  -6.315  22.660  0.00  0.00    -0.503 OA
ATOM     25  H   UNL     1       4.441  -6.527  21.720  0.00  0.00    +0.292 HD
ENDBRANCH   4  24
BRANCH   5  26
ATOM     26  O   UNL     1       3.830  -4.296  24.367  0.00  0.00    -0.457 OA
BRANCH  26  27
ATOM     27  C   UNL     1       4.049  -3.880  25.732  0.00  0.00    +0.339 C 
ATOM     28  O   UNL     1       5.405  -4.116  26.139  0.00  0.00    -0.331 OA
ATOM     29  C   UNL     1       5.714  -5.505  26.326  0.00  0.00    +0.179 C 
ATOM     30  C   UNL     1       4.878  -6.043  27.498  0.00  0.00    +0.177 C 
ATOM     31  C   UNL     1       3.385  -5.908  27.171  0.00  0.00    +0.180 C 
ATOM     32  C   UNL     1       3.042  -4.484  26.738  0.00  0.00    +0.214 C 
BRANCH  30  33
ATOM     33  O   UNL     1       5.195  -7.403  27.799  0.00  0.00    -0.386 OA
ATOM     34  H   UNL     1       5.596  -7.410  28.699  0.00  0.00    +0.210 HD
ENDBRANCH  30  33
BRANCH  31  35
ATOM     35  O   UNL     1       2.999  -6.860  26.163  0.00  0.00    -0.386 OA
ATOM     36  H   UNL     1       3.502  -7.684  26.295  0.00  0.00    +0.210 HD
ENDBRANCH  31  35
BRANCH  32  37
ATOM     37  O   UNL     1       1.694  -4.400  26.268  0.00  0.00    -0.383 OA
ATOM     38  H   UNL     1       1.457  -3.452  26.238  0.00  0.00    +0.210 HD
ENDBRANCH  32  37
BRANCH  29  39
ATOM     39  C   UNL     1       7.222  -5.663  26.579  0.00  0.00    +0.190 C 
BRANCH  39  40
ATOM     40  O   UNL     1       7.509  -6.011  27.930  0.00  0.00    -0.392 OA
ATOM     41  H   UNL     1       8.024  -5.269  28.313  0.00  0.00    +0.210 HD
ENDBRANCH  39  40
ENDBRANCH  29  39
ENDBRANCH  26  27
ENDBRANCH   5  26
TORSDOF 12
ENDMDL
MODEL 7
REMARK VINA RESULT:      -6.7      2.188      4.771
REMARK  Name = 
REMARK  13 active torsions:
REMARK  status: ('A' for Active; 'I' for Inactive)
REMARK    1  A    between atoms: C_1  and  O_2
REMARK    2  A    between atoms: O_2  and  C_3
REMARK    3  A    between atoms: C_4  and  C_16
REMARK    4  A    between atoms: C_8  and  O_15
REMARK    5  A    between atoms: C_10  and  O_14
REMARK    6  A    between atoms: C_18  and  O_23
REMARK    7  A    between atoms: C_19  and  O_22
REMARK    8  A    between atoms: O_23  and  C_24
REMARK    9  A    between atoms: C_26  and  O_37
REMARK   10  A    between atoms: C_27  and  O_36
REMARK   11  A    between atoms: C_29  and  O_35
REMARK   12  A    between atoms: C_31  and  C_33
REMARK   13  A    between atoms: C_33  and  O_34
REMARK                            x       y       z     vdW  Elec       q    Type
REMARK                         _______ _______ _______ _____ _____    ______ ____
ROOT
ATOM      1  C   UNL     1       6.737  -3.191  25.691  0.00  0.00    +0.025 A 
ATOM      2  C   UNL     1       7.891  -3.226  26.479  0.00  0.00    +0.015 A 
ATOM      3  C   UNL     1       8.671  -2.077  26.622  0.00  0.00    +0.050 A 
ATOM      4  C   UNL     1       8.297  -0.896  25.979  0.00  0.00    +0.159 A 
ATOM      5  C   UNL     1       7.156  -0.836  25.170  0.00  0.00    +0.166 A 
ATOM      6  C   UNL     1       6.365  -1.987  25.073  0.00  0.00    +0.061 A 
ENDROOT
BRANCH   1  17
ATOM      7  C   UNL     1       6.091  -5.243  24.421  0.00  0.00    +0.211 A 
ATOM      8  C   UNL     1       5.085  -6.344  24.253  0.00  0.00    +0.238 A 
ATOM      9  O   UNL     1       5.232  -7.171  23.360  0.00  0.00    -0.283 OA
ATOM     10  C   UNL     1       3.936  -6.379  25.179  0.00  0.00    +0.109 A 
ATOM     11  C   UNL     1       3.886  -5.412  26.183  0.00  0.00    +0.147 A 
ATOM     12  C   UNL     1       2.815  -5.385  27.085  0.00  0.00    +0.092 A 
ATOM     13  C   UNL     1       1.809  -6.344  26.981  0.00  0.00    +0.124 A 
ATOM     14  C   UNL     1       1.855  -7.322  25.997  0.00  0.00    +0.091 A 
ATOM     15  O   UNL     1       4.853  -4.454  26.355  0.00  0.00    -0.451 OA
ATOM     16  C   UNL     1       2.915  -7.336  25.095  0.00  0.00    +0.135 A 
ATOM     17  C   UNL     1       5.909  -4.389  25.455  0.00  0.00    +0.181 A 
BRANCH   7  19
ATOM     18  C   UNL     1       6.971  -4.418  22.293  0.00  0.00    +0.277 C 
ATOM     19  O   UNL     1       7.055  -5.237  23.438  0.00  0.00    -0.488 OA
ENDBRANCH   7  19
BRANCH  13  20
ATOM     20  O   UNL     1       0.749  -6.368  27.839  0.00  0.00    -0.507 OA
ATOM     21  H   UNL     1       1.063  -6.196  28.740  0.00  0.00    +0.292 HD
ENDBRANCH  13  20
BRANCH  16  22
ATOM     22  O   UNL     1       2.933  -8.304  24.131  0.00  0.00    -0.506 OA
ATOM     23  H   UNL     1       2.104  -8.807  24.134  0.00  0.00    +0.292 HD
ENDBRANCH  16  22
ENDBRANCH   1  17
BRANCH   4  24
ATOM     24  O   UNL     1       9.098   0.197  26.157  0.00  0.00    -0.503 OA
ATOM     25  H   UNL     1       9.329   0.212  27.100  0.00  0.00    +0.292 HD
ENDBRANCH   4  24
BRANCH   5  26
ATOM     26  O   UNL     1       6.913   0.355  24.505  0.00  0.00    -0.457 OA
BRANCH  26  27
ATOM     27  C   UNL     1       6.831   0.222  23.069  0.00  0.00    +0.339 C 
ATOM     28  O   UNL     1       7.982  -0.453  22.540  0.00  0.00    -0.331 OA
ATOM     29  C   UNL     1       9.179   0.338  22.577  0.00  0.00    +0.179 C 
ATOM     30  C   UNL     1       9.000   1.548  21.646  0.00  0.00    +0.177 C 
ATOM     31  C   UNL     1       7.825   2.405  22.133  0.00  0.00    +0.180 C 
ATOM     32  C   UNL     1       6.570   1.558  22.334  0.00  0.00    +0.214 C 
BRANCH  30  33
ATOM     33  O   UNL     1      10.187   2.338  21.565  0.00  0.00    -0.386 OA
ATOM     34  H   UNL     1       9.925   3.267  21.759  0.00  0.00    +0.210 HD
ENDBRANCH  30  33
BRANCH  31  35
ATOM     35  O   UNL     1       8.175   3.102  23.342  0.00  0.00    -0.386 OA
ATOM     36  H   UNL     1       7.394   3.145  23.922  0.00  0.00    +0.210 HD
ENDBRANCH  31  35
BRANCH  32  37
ATOM     37  O   UNL     1       5.529   2.319  22.951  0.00  0.00    -0.383 OA
ATOM     38  H   UNL     1       5.044   1.715  23.548  0.00  0.00    +0.210 HD
ENDBRANCH  32  37
BRANCH  29  39
ATOM     39  C   UNL     1      10.378  -0.530  22.164  0.00  0.00    +0.190 C 
BRANCH  39  40
ATOM     40  O   UNL     1       9.974  -1.749  21.547  0.00  0.00    -0.392 OA
ATOM     41  H   UNL     1      10.686  -2.403  21.715  0.00  0.00    +0.210 HD
ENDBRANCH  39  40
ENDBRANCH  29  39
ENDBRANCH  26  27
ENDBRANCH   5  26
TORSDOF 12
ENDMDL
MODEL 8
REMARK VINA RESULT:      -6.7      1.998      3.857
REMARK  Name = 
REMARK  13 active torsions:
REMARK  status: ('A' for Active; 'I' for Inactive)
REMARK    1  A    between atoms: C_1  and  O_2
REMARK    2  A    between atoms: O_2  and  C_3
REMARK    3  A    between atoms: C_4  and  C_16
REMARK    4  A    between atoms: C_8  and  O_15
REMARK    5  A    between atoms: C_10  and  O_14
REMARK    6  A    between atoms: C_18  and  O_23
REMARK    7  A    between atoms: C_19  and  O_22
REMARK    8  A    between atoms: O_23  and  C_24
REMARK    9  A    between atoms: C_26  and  O_37
REMARK   10  A    between atoms: C_27  and  O_36
REMARK   11  A    between atoms: C_29  and  O_35
REMARK   12  A    between atoms: C_31  and  C_33
REMARK   13  A    between atoms: C_33  and  O_34
REMARK                            x       y       z     vdW  Elec       q    Type
REMARK                         _______ _______ _______ _____ _____    ______ ____
ROOT
ATOM      1  C   UNL     1       8.246  -2.742  24.469  0.00  0.00    +0.025 A 
ATOM      2  C   UNL     1       9.473  -2.859  23.809  0.00  0.00    +0.015 A 
ATOM      3  C   UNL     1      10.217  -1.714  23.516  0.00  0.00    +0.050 A 
ATOM      4  C   UNL     1       9.735  -0.456  23.882  0.00  0.00    +0.159 A 
ATOM      5  C   UNL     1       8.502  -0.307  24.529  0.00  0.00    +0.166 A 
ATOM      6  C   UNL     1       7.791  -1.470  24.851  0.00  0.00    +0.061 A 
ENDROOT
BRANCH   1  17
ATOM      7  C   UNL     1       6.621  -4.525  23.821  0.00  0.00    +0.211 A 
ATOM      8  C   UNL     1       5.714  -5.621  24.296  0.00  0.00    +0.238 A 
ATOM      9  O   UNL     1       5.032  -6.241  23.487  0.00  0.00    -0.283 OA
ATOM     10  C   UNL     1       5.672  -5.906  25.744  0.00  0.00    +0.109 A 
ATOM     11  C   UNL     1       6.516  -5.168  26.573  0.00  0.00    +0.147 A 
ATOM     12  C   UNL     1       6.514  -5.382  27.957  0.00  0.00    +0.092 A 
ATOM     13  C   UNL     1       5.672  -6.353  28.496  0.00  0.00    +0.124 A 
ATOM     14  C   UNL     1       4.838  -7.107  27.682  0.00  0.00    +0.091 A 
ATOM     15  O   UNL     1       7.385  -4.214  26.105  0.00  0.00    -0.451 OA
ATOM     16  C   UNL     1       4.836  -6.880  26.308  0.00  0.00    +0.135 A 
ATOM     17  C   UNL     1       7.390  -3.909  24.750  0.00  0.00    +0.181 A 
BRANCH   7  19
ATOM     18  C   UNL     1       5.711  -3.211  21.969  0.00  0.00    +0.277 C 
ATOM     19  O   UNL     1       6.498  -4.267  22.475  0.00  0.00    -0.488 OA
ENDBRANCH   7  19
BRANCH  13  20
ATOM     20  O   UNL     1       5.637  -6.608  29.835  0.00  0.00    -0.507 OA
ATOM     21  H   UNL     1       5.305  -7.507  29.981  0.00  0.00    +0.292 HD
ENDBRANCH  13  20
BRANCH  16  22
ATOM     22  O   UNL     1       4.000  -7.630  25.529  0.00  0.00    -0.506 OA
ATOM     23  H   UNL     1       4.489  -8.041  24.799  0.00  0.00    +0.292 HD
ENDBRANCH  16  22
ENDBRANCH   1  17
BRANCH   4  24
ATOM     24  O   UNL     1      10.507   0.628  23.571  0.00  0.00    -0.503 OA
ATOM     25  H   UNL     1      11.423   0.372  23.768  0.00  0.00    +0.292 HD
ENDBRANCH   4  24
BRANCH   5  26
ATOM     26  O   UNL     1       8.068   0.984  24.776  0.00  0.00    -0.457 OA
BRANCH  26  27
ATOM     27  C   UNL     1       7.553   1.667  23.612  0.00  0.00    +0.339 C 
ATOM     28  O   UNL     1       8.401   2.759  23.228  0.00  0.00    -0.331 OA
ATOM     29  C   UNL     1       8.341   3.875  24.128  0.00  0.00    +0.179 C 
ATOM     30  C   UNL     1       6.925   4.472  24.080  0.00  0.00    +0.177 C 
ATOM     31  C   UNL     1       5.906   3.418  24.530  0.00  0.00    +0.180 C 
ATOM     32  C   UNL     1       6.080   2.115  23.753  0.00  0.00    +0.214 C 
BRANCH  30  33
ATOM     33  O   UNL     1       6.813   5.644  24.889  0.00  0.00    -0.386 OA
ATOM     34  H   UNL     1       5.852   5.793  25.044  0.00  0.00    +0.210 HD
ENDBRANCH  30  33
BRANCH  31  35
ATOM     35  O   UNL     1       6.006   3.191  25.947  0.00  0.00    -0.386 OA
ATOM     36  H   UNL     1       6.790   2.641  26.126  0.00  0.00    +0.210 HD
ENDBRANCH  31  35
BRANCH  32  37
ATOM     37  O   UNL     1       5.250   1.082  24.289  0.00  0.00    -0.383 OA
ATOM     38  H   UNL     1       4.554   1.516  24.820  0.00  0.00    +0.210 HD
ENDBRANCH  32  37
BRANCH  29  39
ATOM     39  C   UNL     1       9.411   4.907  23.734  0.00  0.00    +0.190 C 
BRANCH  39  40
ATOM     40  O   UNL     1       8.922   5.861  22.797  0.00  0.00    -0.392 OA
ATOM     41  H   UNL     1       8.084   5.501  22.434  0.00  0.00    +0.210 HD
ENDBRANCH  39  40
ENDBRANCH  29  39
ENDBRANCH  26  27
ENDBRANCH   5  26
TORSDOF 12
ENDMDL
MODEL 9
REMARK VINA RESULT:      -6.6      2.028      8.390
REMARK  Name = 
REMARK  13 active torsions:
REMARK  status: ('A' for Active; 'I' for Inactive)
REMARK    1  A    between atoms: C_1  and  O_2
REMARK    2  A    between atoms: O_2  and  C_3
REMARK    3  A    between atoms: C_4  and  C_16
REMARK    4  A    between atoms: C_8  and  O_15
REMARK    5  A    between atoms: C_10  and  O_14
REMARK    6  A    between atoms: C_18  and  O_23
REMARK    7  A    between atoms: C_19  and  O_22
REMARK    8  A    between atoms: O_23  and  C_24
REMARK    9  A    between atoms: C_26  and  O_37
REMARK   10  A    between atoms: C_27  and  O_36
REMARK   11  A    between atoms: C_29  and  O_35
REMARK   12  A    between atoms: C_31  and  C_33
REMARK   13  A    between atoms: C_33  and  O_34
REMARK                            x       y       z     vdW  Elec       q    Type
REMARK                         _______ _______ _______ _____ _____    ______ ____
ROOT
ATOM      1  C   UNL     1       8.728   0.809  23.124  0.00  0.00    +0.025 A 
ATOM      2  C   UNL     1       9.738   0.467  22.219  0.00  0.00    +0.015 A 
ATOM      3  C   UNL     1      10.330  -0.796  22.283  0.00  0.00    +0.050 A 
ATOM      4  C   UNL     1       9.912  -1.714  23.249  0.00  0.00    +0.159 A 
ATOM      5  C   UNL     1       8.915  -1.393  24.177  0.00  0.00    +0.166 A 
ATOM      6  C   UNL     1       8.305  -0.136  24.070  0.00  0.00    +0.061 A 
ENDROOT
BRANCH   1  17
ATOM      7  C   UNL     1       8.721   3.257  23.622  0.00  0.00    +0.211 A 
ATOM      8  C   UNL     1       7.910   4.517  23.683  0.00  0.00    +0.238 A 
ATOM      9  O   UNL     1       8.432   5.559  24.066  0.00  0.00    -0.283 OA
ATOM     10  C   UNL     1       6.491   4.447  23.282  0.00  0.00    +0.109 A 
ATOM     11  C   UNL     1       6.008   3.221  22.826  0.00  0.00    +0.147 A 
ATOM     12  C   UNL     1       4.668   3.087  22.443  0.00  0.00    +0.092 A 
ATOM     13  C   UNL     1       3.826   4.196  22.505  0.00  0.00    +0.124 A 
ATOM     14  C   UNL     1       4.296   5.426  22.941  0.00  0.00    +0.091 A 
ATOM     15  O   UNL     1       6.789   2.098  22.719  0.00  0.00    -0.451 OA
ATOM     16  C   UNL     1       5.626   5.550  23.333  0.00  0.00    +0.135 A 
ATOM     17  C   UNL     1       8.111   2.148  23.142  0.00  0.00    +0.181 A 
BRANCH   7  19
ATOM     18  C   UNL     1      11.114   3.654  23.301  0.00  0.00    +0.277 C 
ATOM     19  O   UNL     1       9.994   3.409  24.124  0.00  0.00    -0.488 OA
ENDBRANCH   7  19
BRANCH  13  20
ATOM     20  O   UNL     1       2.515   4.122  22.136  0.00  0.00    -0.507 OA
ATOM     21  H   UNL     1       2.447   4.226  21.175  0.00  0.00    +0.292 HD
ENDBRANCH  13  20
BRANCH  16  22
ATOM     22  O   UNL     1       6.064   6.770  23.767  0.00  0.00    -0.506 OA
ATOM     23  H   UNL     1       7.031   6.821  23.728  0.00  0.00    +0.292 HD
ENDBRANCH  16  22
ENDBRANCH   1  17
BRANCH   4  24
ATOM     24  O   UNL     1      10.526  -2.935  23.262  0.00  0.00    -0.503 OA
ATOM     25  H   UNL     1      10.991  -3.012  22.413  0.00  0.00    +0.292 HD
ENDBRANCH   4  24
BRANCH   5  26
ATOM     26  O   UNL     1       8.628  -2.336  25.150  0.00  0.00    -0.457 OA
BRANCH  26  27
ATOM     27  C   UNL     1       7.567  -3.249  24.793  0.00  0.00    +0.339 C 
ATOM     28  O   UNL     1       6.355  -2.942  25.497  0.00  0.00    -0.331 OA
ATOM     29  C   UNL     1       6.405  -3.267  26.895  0.00  0.00    +0.179 C 
ATOM     30  C   UNL     1       6.543  -4.791  27.042  0.00  0.00    +0.177 C 
ATOM     31  C   UNL     1       7.844  -5.257  26.379  0.00  0.00    +0.180 C 
ATOM     32  C   UNL     1       7.950  -4.739  24.946  0.00  0.00    +0.214 C 
BRANCH  30  33
ATOM     33  O   UNL     1       6.513  -5.198  28.411  0.00  0.00    -0.386 OA
ATOM     34  H   UNL     1       6.447  -6.181  28.415  0.00  0.00    +0.210 HD
ENDBRANCH  30  33
BRANCH  31  35
ATOM     35  O   UNL     1       8.983  -4.852  27.159  0.00  0.00    -0.386 OA
ATOM     36  H   UNL     1       8.966  -5.319  28.013  0.00  0.00    +0.210 HD
ENDBRANCH  31  35
BRANCH  32  37
ATOM     37  O   UNL     1       9.235  -5.026  24.389  0.00  0.00    -0.383 OA
ATOM     38  H   UNL     1       9.564  -5.838  24.822  0.00  0.00    +0.210 HD
ENDBRANCH  32  37
BRANCH  29  39
ATOM     39  C   UNL     1       5.140  -2.737  27.587  0.00  0.00    +0.190 C 
BRANCH  39  40
ATOM     40  O   UNL     1       4.081  -3.690  27.581  0.00  0.00    -0.392 OA
ATOM     41  H   UNL     1       3.248  -3.192  27.726  0.00  0.00    +0.210 HD
ENDBRANCH  39  40
ENDBRANCH  29  39
ENDBRANCH  26  27
ENDBRANCH   5  26
TORSDOF 12
ENDMDL
