MODEL 1
REMARK VINA RESULT:      -8.1      0.000      0.000
REMARK  Name = 
REMARK  10 active torsions:
REMARK  status: ('A' for Active; 'I' for Inactive)
REMARK    1  A    between atoms: C_2  and  O_35
REMARK    2  A    between atoms: C_4  and  O_34
REMARK    3  A    between atoms: C_6  and  O_33
REMARK    4  A    between atoms: C_8  and  O_11
REMARK    5  A    between atoms: O_11  and  C_12
REMARK    6  A    between atoms: C_13  and  C_25
REMARK    7  A    between atoms: C_17  and  O_24
REMARK    8  A    between atoms: C_19  and  O_23
REMARK    9  A    between atoms: C_27  and  O_32
REMARK   10  A    between atoms: C_28  and  O_31
REMARK                            x       y       z     vdW  Elec       q    Type
REMARK                         _______ _______ _______ _____ _____    ______ ____
ROOT
ATOM      1  C   UNL     1       7.976  -2.752  24.989  0.00  0.00    +0.214 A 
ATOM      2  C   UNL     1       8.802  -1.573  25.406  0.00  0.00    +0.238 A 
ATOM      3  O   UNL     1       9.179  -1.456  26.566  0.00  0.00    -0.283 OA
ATOM      4  C   UNL     1       9.113  -0.567  24.372  0.00  0.00    +0.109 A 
ATOM      5  C   UNL     1       8.431  -0.662  23.162  0.00  0.00    +0.147 A 
ATOM      6  C   UNL     1       8.685   0.246  22.128  0.00  0.00    +0.092 A 
ATOM      7  C   UNL     1       9.615   1.262  22.325  0.00  0.00    +0.124 A 
ATOM      8  C   UNL     1      10.296   1.378  23.527  0.00  0.00    +0.091 A 
ATOM      9  O   UNL     1       7.468  -1.608  22.916  0.00  0.00    -0.451 OA
ATOM     10  C   UNL     1      10.048   0.465  24.552  0.00  0.00    +0.135 A 
ATOM     11  C   UNL     1       7.285  -2.641  23.829  0.00  0.00    +0.181 A 
ENDROOT
BRANCH  11  12
ATOM     12  C   UNL     1       6.217  -3.581  23.385  0.00  0.00    +0.025 A 
ATOM     13  C   UNL     1       4.888  -3.431  23.841  0.00  0.00    +0.015 A 
ATOM     14  C   UNL     1       3.911  -4.387  23.551  0.00  0.00    +0.050 A 
ATOM     15  C   UNL     1       4.238  -5.457  22.738  0.00  0.00    +0.158 A 
ATOM     16  C   UNL     1       5.524  -5.591  22.222  0.00  0.00    +0.159 A 
ATOM     17  C   UNL     1       6.519  -4.667  22.543  0.00  0.00    +0.060 A 
BRANCH  15  18
ATOM     18  O   UNL     1       3.281  -6.385  22.446  0.00  0.00    -0.503 OA
ATOM     19  H   UNL     1       3.077  -6.244  21.500  0.00  0.00    +0.292 HD
ENDBRANCH  15  18
BRANCH  16  20
ATOM     20  O   UNL     1       5.766  -6.666  21.412  0.00  0.00    -0.503 OA
ATOM     21  H   UNL     1       5.185  -6.599  20.628  0.00  0.00    +0.292 HD
ENDBRANCH  16  20
ENDBRANCH  11  12
BRANCH   7  22
ATOM     22  O   UNL     1       9.894   2.174  21.354  0.00  0.00    -0.507 OA
ATOM     23  H   UNL     1       9.167   2.192  20.709  0.00  0.00    +0.292 HD
ENDBRANCH   7  22
BRANCH  10  24
ATOM     24  O   UNL     1      10.747   0.588  25.719  0.00  0.00    -0.506 OA
ATOM     25  H   UNL     1      10.817   1.520  25.977  0.00  0.00    +0.292 HD
ENDBRANCH  10  24
BRANCH   1  26
ATOM     26  O   UNL     1       7.947  -3.781  25.909  0.00  0.00    -0.453 OA
BRANCH  26  29
ATOM     27  C   UNL     1       4.966  -3.643  27.925  0.00  0.00    +0.198 C 
ATOM     28  O   UNL     1       6.295  -3.379  27.498  0.00  0.00    -0.337 OA
ATOM     29  C   UNL     1       6.693  -4.235  26.413  0.00  0.00    +0.339 C 
ATOM     30  C   UNL     1       6.695  -5.719  26.833  0.00  0.00    +0.214 C 
ATOM     31  C   UNL     1       5.275  -6.055  27.307  0.00  0.00    +0.180 C 
ATOM     32  C   UNL     1       4.815  -5.084  28.408  0.00  0.00    +0.171 C 
BRANCH  30  33
ATOM     33  O   UNL     1       7.620  -6.005  27.888  0.00  0.00    -0.383 OA
ATOM     34  H   UNL     1       8.308  -5.314  27.817  0.00  0.00    +0.210 HD
ENDBRANCH  30  33
BRANCH  31  35
ATOM     35  O   UNL     1       5.233  -7.402  27.800  0.00  0.00    -0.386 OA
ATOM     36  H   UNL     1       6.168  -7.629  27.982  0.00  0.00    +0.210 HD
ENDBRANCH  31  35
BRANCH  32  37
ATOM     37  O   UNL     1       3.453  -5.380  28.731  0.00  0.00    -0.387 OA
ATOM     38  H   UNL     1       3.021  -5.670  27.905  0.00  0.00    +0.210 HD
ENDBRANCH  32  37
ENDBRANCH  26  29
ENDBRANCH   1  26
TORSDOF 10
ENDMDL
MODEL 2
REMARK VINA RESULT:      -8.0      1.812      4.645
REMARK  Name = 
REMARK  10 active torsions:
REMARK  status: ('A' for Active; 'I' for Inactive)
REMARK    1  A    between atoms: C_2  and  O_35
REMARK    2  A    between atoms: C_4  and  O_34
REMARK    3  A    between atoms: C_6  and  O_33
REMARK    4  A    between atoms: C_8  and  O_11
REMARK    5  A    between atoms: O_11  and  C_12
REMARK    6  A    between atoms: C_13  and  C_25
REMARK    7  A    between atoms: C_17  and  O_24
REMARK    8  A    between atoms: C_19  and  O_23
REMARK    9  A    between atoms: C_27  and  O_32
REMARK   10  A    between atoms: C_28  and  O_31
REMARK                            x       y       z     vdW  Elec       q    Type
REMARK                         _______ _______ _______ _____ _____    ______ ____
ROOT
ATOM      1  C   UNL     1       8.306  -1.678  23.252  0.00  0.00    +0.214 A 
ATOM      2  C   UNL     1       8.758  -0.465  22.495  0.00  0.00    +0.238 A 
ATOM      3  O   UNL     1       9.156  -0.564  21.341  0.00  0.00    -0.283 OA
ATOM      4  C   UNL     1       8.721   0.827  23.208  0.00  0.00    +0.109 A 
ATOM      5  C   UNL     1       8.497   0.794  24.581  0.00  0.00    +0.147 A 
ATOM      6  C   UNL     1       8.431   1.979  25.321  0.00  0.00    +0.092 A 
ATOM      7  C   UNL     1       8.611   3.198  24.674  0.00  0.00    +0.124 A 
ATOM      8  C   UNL     1       8.846   3.250  23.309  0.00  0.00    +0.091 A 
ATOM      9  O   UNL     1       8.357  -0.372  25.290  0.00  0.00    -0.451 OA
ATOM     10  C   UNL     1       8.900   2.066  22.572  0.00  0.00    +0.135 A 
ATOM     11  C   UNL     1       8.243  -1.575  24.601  0.00  0.00    +0.181 A 
ENDROOT
BRANCH  11  12
ATOM     12  C   UNL     1       8.077  -2.726  25.532  0.00  0.00    +0.025 A 
ATOM     13  C   UNL     1       9.073  -3.723  25.632  0.00  0.00    +0.015 A 
ATOM     14  C   UNL     1       8.865  -4.880  26.388  0.00  0.00    +0.050 A 
ATOM     15  C   UNL     1       7.694  -5.009  27.112  0.00  0.00    +0.158 A 
ATOM     16  C   UNL     1       6.727  -4.009  27.082  0.00  0.00    +0.159 A 
ATOM     17  C   UNL     1       6.902  -2.872  26.294  0.00  0.00    +0.060 A 
BRANCH  15  18
ATOM     18  O   UNL     1       7.497  -6.134  27.860  0.00  0.00    -0.503 OA
ATOM     19  H   UNL     1       7.812  -5.897  28.755  0.00  0.00    +0.292 HD
ENDBRANCH  15  18
BRANCH  16  20
ATOM     20  O   UNL     1       5.603  -4.201  27.838  0.00  0.00    -0.503 OA
ATOM     21  H   UNL     1       5.411  -3.374  28.323  0.00  0.00    +0.292 HD
ENDBRANCH  16  20
ENDBRANCH  11  12
BRANCH   7  22
ATOM     22  O   UNL     1       8.564   4.380  25.349  0.00  0.00    -0.507 OA
ATOM     23  H   UNL     1       9.435   4.808  25.312  0.00  0.00    +0.292 HD
ENDBRANCH   7  22
BRANCH  10  24
ATOM     24  O   UNL     1       9.111   2.145  21.225  0.00  0.00    -0.506 OA
ATOM     25  H   UNL     1       9.570   1.352  20.906  0.00  0.00    +0.292 HD
ENDBRANCH  10  24
BRANCH   1  26
ATOM     26  O   UNL     1       8.103  -2.796  22.467  0.00  0.00    -0.453 OA
BRANCH  26  29
ATOM     27  C   UNL     1       6.950  -6.181  22.889  0.00  0.00    +0.198 C 
ATOM     28  O   UNL     1       7.639  -5.072  22.328  0.00  0.00    -0.337 OA
ATOM     29  C   UNL     1       7.236  -3.828  22.929  0.00  0.00    +0.339 C 
ATOM     30  C   UNL     1       5.742  -3.538  22.683  0.00  0.00    +0.214 C 
ATOM     31  C   UNL     1       4.951  -4.714  23.270  0.00  0.00    +0.180 C 
ATOM     32  C   UNL     1       5.441  -6.053  22.694  0.00  0.00    +0.171 C 
BRANCH  30  33
ATOM     33  O   UNL     1       5.414  -3.402  21.295  0.00  0.00    -0.383 OA
ATOM     34  H   UNL     1       6.212  -3.701  20.816  0.00  0.00    +0.210 HD
ENDBRANCH  30  33
BRANCH  31  35
ATOM     35  O   UNL     1       3.553  -4.548  22.992  0.00  0.00    -0.386 OA
ATOM     36  H   UNL     1       3.525  -4.060  22.144  0.00  0.00    +0.210 HD
ENDBRANCH  31  35
BRANCH  32  37
ATOM     37  O   UNL     1       4.743  -7.113  23.355  0.00  0.00    -0.387 OA
ATOM     38  H   UNL     1       5.027  -7.946  22.934  0.00  0.00    +0.210 HD
ENDBRANCH  32  37
ENDBRANCH  26  29
ENDBRANCH   1  26
TORSDOF 10
ENDMDL
MODEL 3
REMARK VINA RESULT:      -7.2      2.320      4.511
REMARK  Name = 
REMARK  10 active torsions:
REMARK  status: ('A' for Active; 'I' for Inactive)
REMARK    1  A    between atoms: C_2  and  O_35
REMARK    2  A    between atoms: C_4  and  O_34
REMARK    3  A    between atoms: C_6  and  O_33
REMARK    4  A    between atoms: C_8  and  O_11
REMARK    5  A    between atoms: O_11  and  C_12
REMARK    6  A    between atoms: C_13  and  C_25
REMARK    7  A    between atoms: C_17  and  O_24
REMARK    8  A    between atoms: C_19  and  O_23
REMARK    9  A    between atoms: C_27  and  O_32
REMARK   10  A    between atoms: C_28  and  O_31
REMARK                            x       y       z     vdW  Elec       q    Type
REMARK                         _______ _______ _______ _____ _____    ______ ____
ROOT
ATOM      1  C   UNL     1       7.394  -2.460  25.150  0.00  0.00    +0.214 A 
ATOM      2  C   UNL     1       8.607  -2.329  24.279  0.00  0.00    +0.238 A 
ATOM      3  O   UNL     1       9.459  -3.209  24.262  0.00  0.00    -0.283 OA
ATOM      4  C   UNL     1       8.729  -1.097  23.475  0.00  0.00    +0.109 A 
ATOM      5  C   UNL     1       7.846  -0.059  23.757  0.00  0.00    +0.147 A 
ATOM      6  C   UNL     1       7.891   1.133  23.025  0.00  0.00    +0.092 A 
ATOM      7  C   UNL     1       8.843   1.281  22.021  0.00  0.00    +0.124 A 
ATOM      8  C   UNL     1       9.738   0.262  21.734  0.00  0.00    +0.091 A 
ATOM      9  O   UNL     1       6.914  -0.119  24.762  0.00  0.00    -0.451 OA
ATOM     10  C   UNL     1       9.683  -0.929  22.458  0.00  0.00    +0.135 A 
ATOM     11  C   UNL     1       6.699  -1.328  25.415  0.00  0.00    +0.181 A 
ENDROOT
BRANCH  11  12
ATOM     12  C   UNL     1       5.640  -1.206  26.456  0.00  0.00    +0.025 A 
ATOM     13  C   UNL     1       4.364  -1.779  26.256  0.00  0.00    +0.015 A 
ATOM     14  C   UNL     1       3.318  -1.548  27.154  0.00  0.00    +0.050 A 
ATOM     15  C   UNL     1       3.564  -0.808  28.297  0.00  0.00    +0.158 A 
ATOM     16  C   UNL     1       4.831  -0.290  28.548  0.00  0.00    +0.159 A 
ATOM     17  C   UNL     1       5.870  -0.475  27.636  0.00  0.00    +0.060 A 
BRANCH  15  18
ATOM     18  O   UNL     1       2.545  -0.593  29.179  0.00  0.00    -0.503 OA
ATOM     19  H   UNL     1       2.468  -1.429  29.681  0.00  0.00    +0.292 HD
ENDBRANCH  15  18
BRANCH  16  20
ATOM     20  O   UNL     1       5.001   0.416  29.707  0.00  0.00    -0.503 OA
ATOM     21  H   UNL     1       4.265   0.197  30.313  0.00  0.00    +0.292 HD
ENDBRANCH  16  20
ENDBRANCH  11  12
BRANCH   7  22
ATOM     22  O   UNL     1       8.934   2.423  21.285  0.00  0.00    -0.507 OA
ATOM     23  H   UNL     1       8.057   2.651  20.933  0.00  0.00    +0.292 HD
ENDBRANCH   7  22
BRANCH  10  24
ATOM     24  O   UNL     1      10.562  -1.926  22.143  0.00  0.00    -0.506 OA
ATOM     25  H   UNL     1      10.389  -2.715  22.680  0.00  0.00    +0.292 HD
ENDBRANCH  10  24
BRANCH   1  26
ATOM     26  O   UNL     1       7.194  -3.727  25.660  0.00  0.00    -0.453 OA
BRANCH  26  29
ATOM     27  C   UNL     1       4.918  -6.518  25.590  0.00  0.00    +0.198 C 
ATOM     28  O   UNL     1       6.074  -5.753  25.903  0.00  0.00    -0.337 OA
ATOM     29  C   UNL     1       6.128  -4.528  25.152  0.00  0.00    +0.339 C 
ATOM     30  C   UNL     1       6.223  -4.795  23.637  0.00  0.00    +0.214 C 
ATOM     31  C   UNL     1       4.993  -5.624  23.247  0.00  0.00    +0.180 C 
ATOM     32  C   UNL     1       4.885  -6.893  24.110  0.00  0.00    +0.171 C 
BRANCH  30  33
ATOM     33  O   UNL     1       7.406  -5.510  23.263  0.00  0.00    -0.383 OA
ATOM     34  H   UNL     1       7.153  -6.023  22.470  0.00  0.00    +0.210 HD
ENDBRANCH  30  33
BRANCH  31  35
ATOM     35  O   UNL     1       5.068  -5.985  21.860  0.00  0.00    -0.386 OA
ATOM     36  H   UNL     1       4.346  -6.634  21.734  0.00  0.00    +0.210 HD
ENDBRANCH  31  35
BRANCH  32  37
ATOM     37  O   UNL     1       3.667  -7.566  23.775  0.00  0.00    -0.387 OA
ATOM     38  H   UNL     1       2.950  -7.111  24.257  0.00  0.00    +0.210 HD
ENDBRANCH  32  37
ENDBRANCH  26  29
ENDBRANCH   1  26
TORSDOF 10
ENDMDL
MODEL 4
REMARK VINA RESULT:      -7.2      2.512      6.505
REMARK  Name = 
REMARK  10 active torsions:
REMARK  status: ('A' for Active; 'I' for Inactive)
REMARK    1  A    between atoms: C_2  and  O_35
REMARK    2  A    between atoms: C_4  and  O_34
REMARK    3  A    between atoms: C_6  and  O_33
REMARK    4  A    between atoms: C_8  and  O_11
REMARK    5  A    between atoms: O_11  and  C_12
REMARK    6  A    between atoms: C_13  and  C_25
REMARK    7  A    between atoms: C_17  and  O_24
REMARK    8  A    between atoms: C_19  and  O_23
REMARK    9  A    between atoms: C_27  and  O_32
REMARK   10  A    between atoms: C_28  and  O_31
REMARK                            x       y       z     vdW  Elec       q    Type
REMARK                         _______ _______ _______ _____ _____    ______ ____
ROOT
ATOM      1  C   UNL     1       7.904  -1.954  25.275  0.00  0.00    +0.214 A 
ATOM      2  C   UNL     1       7.407  -3.354  25.479  0.00  0.00    +0.238 A 
ATOM      3  O   UNL     1       7.394  -3.853  26.598  0.00  0.00    -0.283 OA
ATOM      4  C   UNL     1       6.965  -4.093  24.281  0.00  0.00    +0.109 A 
ATOM      5  C   UNL     1       7.257  -3.534  23.040  0.00  0.00    +0.147 A 
ATOM      6  C   UNL     1       6.854  -4.169  21.860  0.00  0.00    +0.092 A 
ATOM      7  C   UNL     1       6.173  -5.380  21.935  0.00  0.00    +0.124 A 
ATOM      8  C   UNL     1       5.883  -5.958  23.162  0.00  0.00    +0.091 A 
ATOM      9  O   UNL     1       7.964  -2.368  22.890  0.00  0.00    -0.451 OA
ATOM     10  C   UNL     1       6.277  -5.316  24.337  0.00  0.00    +0.135 A 
ATOM     11  C   UNL     1       8.248  -1.599  24.015  0.00  0.00    +0.181 A 
ENDROOT
BRANCH  11  12
ATOM     12  C   UNL     1       9.000  -0.364  23.656  0.00  0.00    +0.025 A 
ATOM     13  C   UNL     1      10.193  -0.024  24.333  0.00  0.00    +0.015 A 
ATOM     14  C   UNL     1      10.827   1.201  24.110  0.00  0.00    +0.050 A 
ATOM     15  C   UNL     1      10.316   2.059  23.152  0.00  0.00    +0.158 A 
ATOM     16  C   UNL     1       9.180   1.716  22.426  0.00  0.00    +0.159 A 
ATOM     17  C   UNL     1       8.512   0.517  22.673  0.00  0.00    +0.060 A 
BRANCH  15  18
ATOM     18  O   UNL     1      10.943   3.250  22.927  0.00  0.00    -0.503 OA
ATOM     19  H   UNL     1      11.202   3.568  23.815  0.00  0.00    +0.292 HD
ENDBRANCH  15  18
BRANCH  16  20
ATOM     20  O   UNL     1       8.745   2.608  21.485  0.00  0.00    -0.503 OA
ATOM     21  H   UNL     1       8.189   3.279  21.928  0.00  0.00    +0.292 HD
ENDBRANCH  16  20
ENDBRANCH  11  12
BRANCH   7  22
ATOM     22  O   UNL     1       5.766  -6.042  20.817  0.00  0.00    -0.507 OA
ATOM     23  H   UNL     1       5.776  -6.998  20.986  0.00  0.00    +0.292 HD
ENDBRANCH   7  22
BRANCH  10  24
ATOM     24  O   UNL     1       5.961  -5.894  25.533  0.00  0.00    -0.506 OA
ATOM     25  H   UNL     1       5.722  -6.826  25.408  0.00  0.00    +0.292 HD
ENDBRANCH  10  24
BRANCH   1  26
ATOM     26  O   UNL     1       8.043  -1.225  26.439  0.00  0.00    -0.453 OA
BRANCH  26  29
ATOM     27  C   UNL     1       6.692   1.557  28.286  0.00  0.00    +0.198 C 
ATOM     28  O   UNL     1       7.408   0.358  28.023  0.00  0.00    -0.337 OA
ATOM     29  C   UNL     1       7.146  -0.147  26.702  0.00  0.00    +0.339 C 
ATOM     30  C   UNL     1       5.661  -0.519  26.521  0.00  0.00    +0.214 C 
ATOM     31  C   UNL     1       4.842   0.748  26.798  0.00  0.00    +0.180 C 
ATOM     32  C   UNL     1       5.185   1.339  28.175  0.00  0.00    +0.171 C 
BRANCH  30  33
ATOM     33  O   UNL     1       5.228  -1.558  27.407  0.00  0.00    -0.383 OA
ATOM     34  H   UNL     1       5.798  -1.472  28.197  0.00  0.00    +0.210 HD
ENDBRANCH  30  33
BRANCH  31  35
ATOM     35  O   UNL     1       3.441   0.445  26.735  0.00  0.00    -0.386 OA
ATOM     36  H   UNL     1       3.343  -0.385  27.245  0.00  0.00    +0.210 HD
ENDBRANCH  31  35
BRANCH  32  37
ATOM     37  O   UNL     1       4.473   2.570  28.330  0.00  0.00    -0.387 OA
ATOM     38  H   UNL     1       4.802   3.177  27.640  0.00  0.00    +0.210 HD
ENDBRANCH  32  37
ENDBRANCH  26  29
ENDBRANCH   1  26
TORSDOF 10
ENDMDL
MODEL 5
REMARK VINA RESULT:      -7.2      2.484      7.836
REMARK  Name = 
REMARK  10 active torsions:
REMARK  status: ('A' for Active; 'I' for Inactive)
REMARK    1  A    between atoms: C_2  and  O_35
REMARK    2  A    between atoms: C_4  and  O_34
REMARK    3  A    between atoms: C_6  and  O_33
REMARK    4  A    between atoms: C_8  and  O_11
REMARK    5  A    between atoms: O_11  and  C_12
REMARK    6  A    between atoms: C_13  and  C_25
REMARK    7  A    between atoms: C_17  and  O_24
REMARK    8  A    between atoms: C_19  and  O_23
REMARK    9  A    between atoms: C_27  and  O_32
REMARK   10  A    between atoms: C_28  and  O_31
REMARK                            x       y       z     vdW  Elec       q    Type
REMARK                         _______ _______ _______ _____ _____    ______ ____
ROOT
ATOM      1  C   UNL     1       6.757  -2.590  24.029  0.00  0.00    +0.214 A 
ATOM      2  C   UNL     1       6.195  -3.625  23.101  0.00  0.00    +0.238 A 
ATOM      3  O   UNL     1       6.788  -3.924  22.071  0.00  0.00    -0.283 OA
ATOM      4  C   UNL     1       4.905  -4.235  23.474  0.00  0.00    +0.109 A 
ATOM      5  C   UNL     1       4.198  -3.649  24.520  0.00  0.00    +0.147 A 
ATOM      6  C   UNL     1       2.975  -4.183  24.941  0.00  0.00    +0.092 A 
ATOM      7  C   UNL     1       2.458  -5.299  24.291  0.00  0.00    +0.124 A 
ATOM      8  C   UNL     1       3.142  -5.890  23.240  0.00  0.00    +0.091 A 
ATOM      9  O   UNL     1       4.625  -2.521  25.174  0.00  0.00    -0.451 OA
ATOM     10  C   UNL     1       4.367  -5.361  22.830  0.00  0.00    +0.135 A 
ATOM     11  C   UNL     1       5.905  -2.037  24.925  0.00  0.00    +0.181 A 
ENDROOT
BRANCH  11  12
ATOM     12  C   UNL     1       6.200  -0.825  25.740  0.00  0.00    +0.025 A 
ATOM     13  C   UNL     1       5.621   0.422  25.412  0.00  0.00    +0.015 A 
ATOM     14  C   UNL     1       6.002   1.592  26.074  0.00  0.00    +0.050 A 
ATOM     15  C   UNL     1       6.904   1.510  27.120  0.00  0.00    +0.158 A 
ATOM     16  C   UNL     1       7.437   0.284  27.504  0.00  0.00    +0.159 A 
ATOM     17  C   UNL     1       7.100  -0.884  26.820  0.00  0.00    +0.060 A 
BRANCH  15  18
ATOM     18  O   UNL     1       7.266   2.653  27.774  0.00  0.00    -0.503 OA
ATOM     19  H   UNL     1       7.729   3.190  27.101  0.00  0.00    +0.292 HD
ENDBRANCH  15  18
BRANCH  16  20
ATOM     20  O   UNL     1       8.309   0.281  28.557  0.00  0.00    -0.503 OA
ATOM     21  H   UNL     1       7.792   0.309  29.387  0.00  0.00    +0.292 HD
ENDBRANCH  16  20
ENDBRANCH  11  12
BRANCH   7  22
ATOM     22  O   UNL     1       1.269  -5.853  24.657  0.00  0.00    -0.507 OA
ATOM     23  H   UNL     1       0.924  -5.390  25.438  0.00  0.00    +0.292 HD
ENDBRANCH   7  22
BRANCH  10  24
ATOM     24  O   UNL     1       5.032  -5.974  21.806  0.00  0.00    -0.506 OA
ATOM     25  H   UNL     1       5.350  -6.848  22.082  0.00  0.00    +0.292 HD
ENDBRANCH  10  24
BRANCH   1  26
ATOM     26  O   UNL     1       8.074  -2.257  23.780  0.00  0.00    -0.453 OA
BRANCH  26  29
ATOM     27  C   UNL     1       9.303   0.019  21.274  0.00  0.00    +0.198 C 
ATOM     28  O   UNL     1       9.130  -1.188  22.003  0.00  0.00    -0.337 OA
ATOM     29  C   UNL     1       8.379  -0.985  23.212  0.00  0.00    +0.339 C 
ATOM     30  C   UNL     1       9.111  -0.034  24.181  0.00  0.00    +0.214 C 
ATOM     31  C   UNL     1       9.325   1.290  23.437  0.00  0.00    +0.180 C 
ATOM     32  C   UNL     1      10.051   1.063  22.101  0.00  0.00    +0.171 C 
BRANCH  30  33
ATOM     33  O   UNL     1      10.380  -0.537  24.614  0.00  0.00    -0.383 OA
ATOM     34  H   UNL     1      10.410  -0.358  25.575  0.00  0.00    +0.210 HD
ENDBRANCH  30  33
BRANCH  31  35
ATOM     35  O   UNL     1      10.085   2.191  24.256  0.00  0.00    -0.386 OA
ATOM     36  H   UNL     1      10.285   1.680  25.067  0.00  0.00    +0.210 HD
ENDBRANCH  31  35
BRANCH  32  37
ATOM     37  O   UNL     1      10.126   2.313  21.408  0.00  0.00    -0.387 OA
ATOM     38  H   UNL     1      10.969   2.316  20.917  0.00  0.00    +0.210 HD
ENDBRANCH  32  37
ENDBRANCH  26  29
ENDBRANCH   1  26
TORSDOF 10
ENDMDL
MODEL 6
REMARK VINA RESULT:      -7.1      2.405      7.661
REMARK  Name = 
REMARK  10 active torsions:
REMARK  status: ('A' for Active; 'I' for Inactive)
REMARK    1  A    between atoms: C_2  and  O_35
REMARK    2  A    between atoms: C_4  and  O_34
REMARK    3  A    between atoms: C_6  and  O_33
REMARK    4  A    between atoms: C_8  and  O_11
REMARK    5  A    between atoms: O_11  and  C_12
REMARK    6  A    between atoms: C_13  and  C_25
REMARK    7  A    between atoms: C_17  and  O_24
REMARK    8  A    between atoms: C_19  and  O_23
REMARK    9  A    between atoms: C_27  and  O_32
REMARK   10  A    between atoms: C_28  and  O_31
REMARK                            x       y       z     vdW  Elec       q    Type
REMARK                         _______ _______ _______ _____ _____    ______ ____
ROOT
ATOM      1  C   UNL     1       7.682  -2.197  24.342  0.00  0.00    +0.214 A 
ATOM      2  C   UNL     1       7.617  -3.196  23.226  0.00  0.00    +0.238 A 
ATOM      3  O   UNL     1       8.315  -3.058  22.227  0.00  0.00    -0.283 OA
ATOM      4  C   UNL     1       6.672  -4.317  23.379  0.00  0.00    +0.109 A 
ATOM      5  C   UNL     1       5.753  -4.243  24.422  0.00  0.00    +0.147 A 
ATOM      6  C   UNL     1       4.837  -5.277  24.639  0.00  0.00    +0.092 A 
ATOM      7  C   UNL     1       4.837  -6.379  23.790  0.00  0.00    +0.124 A 
ATOM      8  C   UNL     1       5.737  -6.466  22.738  0.00  0.00    +0.091 A 
ATOM      9  O   UNL     1       5.666  -3.167  25.268  0.00  0.00    -0.451 OA
ATOM     10  C   UNL     1       6.656  -5.438  22.531  0.00  0.00    +0.135 A 
ATOM     11  C   UNL     1       6.650  -2.184  25.218  0.00  0.00    +0.181 A 
ENDROOT
BRANCH  11  12
ATOM     12  C   UNL     1       6.402  -1.111  26.222  0.00  0.00    +0.025 A 
ATOM     13  C   UNL     1       5.160  -0.439  26.267  0.00  0.00    +0.015 A 
ATOM     14  C   UNL     1       4.964   0.665  27.101  0.00  0.00    +0.050 A 
ATOM     15  C   UNL     1       5.984   1.054  27.952  0.00  0.00    +0.158 A 
ATOM     16  C   UNL     1       7.193   0.366  27.973  0.00  0.00    +0.159 A 
ATOM     17  C   UNL     1       7.415  -0.708  27.111  0.00  0.00    +0.060 A 
BRANCH  15  18
ATOM     18  O   UNL     1       5.788   2.126  28.775  0.00  0.00    -0.503 OA
ATOM     19  H   UNL     1       5.115   1.827  29.418  0.00  0.00    +0.292 HD
ENDBRANCH  15  18
BRANCH  16  20
ATOM     20  O   UNL     1       8.146   0.799  28.853  0.00  0.00    -0.503 OA
ATOM     21  H   UNL     1       8.974   0.958  28.358  0.00  0.00    +0.292 HD
ENDBRANCH  16  20
ENDBRANCH  11  12
BRANCH   7  22
ATOM     22  O   UNL     1       3.961  -7.409  23.954  0.00  0.00    -0.507 OA
ATOM     23  H   UNL     1       4.308  -8.202  23.513  0.00  0.00    +0.292 HD
ENDBRANCH   7  22
BRANCH  10  24
ATOM     24  O   UNL     1       7.547  -5.556  21.502  0.00  0.00    -0.506 OA
ATOM     25  H   UNL     1       8.091  -4.756  21.429  0.00  0.00    +0.292 HD
ENDBRANCH  10  24
BRANCH   1  26
ATOM     26  O   UNL     1       8.760  -1.336  24.275  0.00  0.00    -0.453 OA
BRANCH  26  29
ATOM     27  C   UNL     1       6.933   1.396  22.801  0.00  0.00    +0.198 C 
ATOM     28  O   UNL     1       7.285   0.061  23.139  0.00  0.00    -0.337 OA
ATOM     29  C   UNL     1       8.567  -0.010  23.788  0.00  0.00    +0.339 C 
ATOM     30  C   UNL     1       9.699   0.480  22.863  0.00  0.00    +0.214 C 
ATOM     31  C   UNL     1       9.363   1.923  22.465  0.00  0.00    +0.180 C 
ATOM     32  C   UNL     1       7.956   2.015  21.851  0.00  0.00    +0.171 C 
BRANCH  30  33
ATOM     33  O   UNL     1       9.840  -0.310  21.677  0.00  0.00    -0.383 OA
ATOM     34  H   UNL     1       9.828  -1.237  21.986  0.00  0.00    +0.210 HD
ENDBRANCH  30  33
BRANCH  31  35
ATOM     35  O   UNL     1      10.334   2.409  21.527  0.00  0.00    -0.386 OA
ATOM     36  H   UNL     1      11.003   2.866  22.077  0.00  0.00    +0.210 HD
ENDBRANCH  31  35
BRANCH  32  37
ATOM     37  O   UNL     1       7.659   3.392  21.601  0.00  0.00    -0.387 OA
ATOM     38  H   UNL     1       7.370   3.456  20.671  0.00  0.00    +0.210 HD
ENDBRANCH  32  37
ENDBRANCH  26  29
ENDBRANCH   1  26
TORSDOF 10
ENDMDL
MODEL 7
REMARK VINA RESULT:      -6.9      2.760      7.828
REMARK  Name = 
REMARK  10 active torsions:
REMARK  status: ('A' for Active; 'I' for Inactive)
REMARK    1  A    between atoms: C_2  and  O_35
REMARK    2  A    between atoms: C_4  and  O_34
REMARK    3  A    between atoms: C_6  and  O_33
REMARK    4  A    between atoms: C_8  and  O_11
REMARK    5  A    between atoms: O_11  and  C_12
REMARK    6  A    between atoms: C_13  and  C_25
REMARK    7  A    between atoms: C_17  and  O_24
REMARK    8  A    between atoms: C_19  and  O_23
REMARK    9  A    between atoms: C_27  and  O_32
REMARK   10  A    between atoms: C_28  and  O_31
REMARK                            x       y       z     vdW  Elec       q    Type
REMARK                         _______ _______ _______ _____ _____    ______ ____
ROOT
ATOM      1  C   UNL     1       6.150  -0.992  24.354  0.00  0.00    +0.214 A 
ATOM      2  C   UNL     1       5.230  -2.156  24.572  0.00  0.00    +0.238 A 
ATOM      3  O   UNL     1       4.313  -2.081  25.381  0.00  0.00    -0.283 OA
ATOM      4  C   UNL     1       5.497  -3.381  23.794  0.00  0.00    +0.109 A 
ATOM      5  C   UNL     1       6.702  -3.449  23.100  0.00  0.00    +0.147 A 
ATOM      6  C   UNL     1       7.017  -4.571  22.327  0.00  0.00    +0.092 A 
ATOM      7  C   UNL     1       6.120  -5.634  22.271  0.00  0.00    +0.124 A 
ATOM      8  C   UNL     1       4.921  -5.589  22.964  0.00  0.00    +0.091 A 
ATOM      9  O   UNL     1       7.652  -2.460  23.148  0.00  0.00    -0.451 OA
ATOM     10  C   UNL     1       4.605  -4.464  23.725  0.00  0.00    +0.135 A 
ATOM     11  C   UNL     1       7.338  -1.248  23.756  0.00  0.00    +0.181 A 
ENDROOT
BRANCH  11  12
ATOM     12  C   UNL     1       8.479  -0.292  23.692  0.00  0.00    +0.025 A 
ATOM     13  C   UNL     1       9.319  -0.096  24.811  0.00  0.00    +0.015 A 
ATOM     14  C   UNL     1      10.299   0.901  24.814  0.00  0.00    +0.050 A 
ATOM     15  C   UNL     1      10.496   1.654  23.670  0.00  0.00    +0.158 A 
ATOM     16  C   UNL     1       9.724   1.434  22.533  0.00  0.00    +0.159 A 
ATOM     17  C   UNL     1       8.713   0.473  22.534  0.00  0.00    +0.060 A 
BRANCH  15  18
ATOM     18  O   UNL     1      11.461   2.620  23.671  0.00  0.00    -0.503 OA
ATOM     19  H   UNL     1      10.968   3.465  23.661  0.00  0.00    +0.292 HD
ENDBRANCH  15  18
BRANCH  16  20
ATOM     20  O   UNL     1       9.990   2.206  21.437  0.00  0.00    -0.503 OA
ATOM     21  H   UNL     1       9.446   1.882  20.691  0.00  0.00    +0.292 HD
ENDBRANCH  16  20
ENDBRANCH  11  12
BRANCH   7  22
ATOM     22  O   UNL     1       6.382  -6.752  21.539  0.00  0.00    -0.507 OA
ATOM     23  H   UNL     1       5.739  -7.444  21.764  0.00  0.00    +0.292 HD
ENDBRANCH   7  22
BRANCH  10  24
ATOM     24  O   UNL     1       3.408  -4.434  24.381  0.00  0.00    -0.506 OA
ATOM     25  H   UNL     1       2.694  -4.742  23.801  0.00  0.00    +0.292 HD
ENDBRANCH  10  24
BRANCH   1  26
ATOM     26  O   UNL     1       5.699   0.198  24.891  0.00  0.00    -0.453 OA
BRANCH  26  29
ATOM     27  C   UNL     1       7.152   3.490  25.045  0.00  0.00    +0.198 C 
ATOM     28  O   UNL     1       6.476   2.314  25.469  0.00  0.00    -0.337 OA
ATOM     29  C   UNL     1       6.189   1.431  24.370  0.00  0.00    +0.339 C 
ATOM     30  C   UNL     1       5.243   2.090  23.346  0.00  0.00    +0.214 C 
ATOM     31  C   UNL     1       5.930   3.372  22.857  0.00  0.00    +0.180 C 
ATOM     32  C   UNL     1       6.316   4.277  24.038  0.00  0.00    +0.171 C 
BRANCH  30  33
ATOM     33  O   UNL     1       3.964   2.426  23.895  0.00  0.00    -0.383 OA
ATOM     34  H   UNL     1       3.778   3.329  23.570  0.00  0.00    +0.210 HD
ENDBRANCH  30  33
BRANCH  31  35
ATOM     35  O   UNL     1       5.057   4.082  21.966  0.00  0.00    -0.386 OA
ATOM     36  H   UNL     1       5.582   4.853  21.668  0.00  0.00    +0.210 HD
ENDBRANCH  31  35
BRANCH  32  37
ATOM     37  O   UNL     1       7.044   5.400  23.529  0.00  0.00    -0.387 OA
ATOM     38  H   UNL     1       7.209   5.226  22.583  0.00  0.00    +0.210 HD
ENDBRANCH  32  37
ENDBRANCH  26  29
ENDBRANCH   1  26
TORSDOF 10
ENDMDL
MODEL 8
REMARK VINA RESULT:      -6.9      2.814      7.288
REMARK  Name = 
REMARK  10 active torsions:
REMARK  status: ('A' for Active; 'I' for Inactive)
REMARK    1  A    between atoms: C_2  and  O_35
REMARK    2  A    between atoms: C_4  and  O_34
REMARK    3  A    between atoms: C_6  and  O_33
REMARK    4  A    between atoms: C_8  and  O_11
REMARK    5  A    between atoms: O_11  and  C_12
REMARK    6  A    between atoms: C_13  and  C_25
REMARK    7  A    between atoms: C_17  and  O_24
REMARK    8  A    between atoms: C_19  and  O_23
REMARK    9  A    between atoms: C_27  and  O_32
REMARK   10  A    between atoms: C_28  and  O_31
REMARK                            x       y       z     vdW  Elec       q    Type
REMARK                         _______ _______ _______ _____ _____    ______ ____
ROOT
ATOM      1  C   UNL     1       6.068  -1.133  24.381  0.00  0.00    +0.214 A 
ATOM      2  C   UNL     1       5.170  -2.304  24.649  0.00  0.00    +0.238 A 
ATOM      3  O   UNL     1       4.244  -2.207  25.446  0.00  0.00    -0.283 OA
ATOM      4  C   UNL     1       5.469  -3.560  23.936  0.00  0.00    +0.109 A 
ATOM      5  C   UNL     1       6.682  -3.637  23.256  0.00  0.00    +0.147 A 
ATOM      6  C   UNL     1       7.026  -4.791  22.543  0.00  0.00    +0.092 A 
ATOM      7  C   UNL     1       6.152  -5.873  22.533  0.00  0.00    +0.124 A 
ATOM      8  C   UNL     1       4.945  -5.818  23.213  0.00  0.00    +0.091 A 
ATOM      9  O   UNL     1       7.610  -2.628  23.262  0.00  0.00    -0.451 OA
ATOM     10  C   UNL     1       4.600  -4.663  23.914  0.00  0.00    +0.135 A 
ATOM     11  C   UNL     1       7.266  -1.394  23.806  0.00  0.00    +0.181 A 
ENDROOT
BRANCH  11  12
ATOM     12  C   UNL     1       8.388  -0.419  23.703  0.00  0.00    +0.025 A 
ATOM     13  C   UNL     1       9.320  -0.278  24.756  0.00  0.00    +0.015 A 
ATOM     14  C   UNL     1      10.286   0.731  24.737  0.00  0.00    +0.050 A 
ATOM     15  C   UNL     1      10.377   1.555  23.629  0.00  0.00    +0.158 A 
ATOM     16  C   UNL     1       9.513   1.392  22.551  0.00  0.00    +0.159 A 
ATOM     17  C   UNL     1       8.514   0.418  22.579  0.00  0.00    +0.060 A 
BRANCH  15  18
ATOM     18  O   UNL     1      11.329   2.533  23.606  0.00  0.00    -0.503 OA
ATOM     19  H   UNL     1      12.069   2.173  24.134  0.00  0.00    +0.292 HD
ENDBRANCH  15  18
BRANCH  16  20
ATOM     20  O   UNL     1       9.675   2.233  21.485  0.00  0.00    -0.503 OA
ATOM     21  H   UNL     1      10.424   1.908  20.946  0.00  0.00    +0.292 HD
ENDBRANCH  16  20
ENDBRANCH  11  12
BRANCH   7  22
ATOM     22  O   UNL     1       6.443  -7.021  21.860  0.00  0.00    -0.507 OA
ATOM     23  H   UNL     1       6.381  -7.776  22.467  0.00  0.00    +0.292 HD
ENDBRANCH   7  22
BRANCH  10  24
ATOM     24  O   UNL     1       3.396  -4.625  24.558  0.00  0.00    -0.506 OA
ATOM     25  H   UNL     1       3.197  -3.724  24.855  0.00  0.00    +0.292 HD
ENDBRANCH  10  24
BRANCH   1  26
ATOM     26  O   UNL     1       5.589   0.072  24.854  0.00  0.00    -0.453 OA
BRANCH  26  29
ATOM     27  C   UNL     1       6.505   0.994  28.213  0.00  0.00    +0.198 C 
ATOM     28  O   UNL     1       5.719   0.496  27.139  0.00  0.00    -0.337 OA
ATOM     29  C   UNL     1       6.319   0.770  25.860  0.00  0.00    +0.339 C 
ATOM     30  C   UNL     1       6.436   2.286  25.602  0.00  0.00    +0.214 C 
ATOM     31  C   UNL     1       7.278   2.874  26.742  0.00  0.00    +0.180 C 
ATOM     32  C   UNL     1       6.686   2.508  28.113  0.00  0.00    +0.171 C 
BRANCH  30  33
ATOM     33  O   UNL     1       5.169   2.951  25.566  0.00  0.00    -0.383 OA
ATOM     34  H   UNL     1       4.907   2.949  24.624  0.00  0.00    +0.210 HD
ENDBRANCH  30  33
BRANCH  31  35
ATOM     35  O   UNL     1       7.348   4.301  26.609  0.00  0.00    -0.386 OA
ATOM     36  H   UNL     1       6.646   4.640  27.202  0.00  0.00    +0.210 HD
ENDBRANCH  31  35
BRANCH  32  37
ATOM     37  O   UNL     1       7.568   2.990  29.131  0.00  0.00    -0.387 OA
ATOM     38  H   UNL     1       7.829   2.219  29.669  0.00  0.00    +0.210 HD
ENDBRANCH  32  37
ENDBRANCH  26  29
ENDBRANCH   1  26
TORSDOF 10
ENDMDL
MODEL 9
REMARK VINA RESULT:      -6.7      2.913      6.702
REMARK  Name = 
REMARK  10 active torsions:
REMARK  status: ('A' for Active; 'I' for Inactive)
REMARK    1  A    between atoms: C_2  and  O_35
REMARK    2  A    between atoms: C_4  and  O_34
REMARK    3  A    between atoms: C_6  and  O_33
REMARK    4  A    between atoms: C_8  and  O_11
REMARK    5  A    between atoms: O_11  and  C_12
REMARK    6  A    between atoms: C_13  and  C_25
REMARK    7  A    between atoms: C_17  and  O_24
REMARK    8  A    between atoms: C_19  and  O_23
REMARK    9  A    between atoms: C_27  and  O_32
REMARK   10  A    between atoms: C_28  and  O_31
REMARK                            x       y       z     vdW  Elec       q    Type
REMARK                         _______ _______ _______ _____ _____    ______ ____
ROOT
ATOM      1  C   UNL     1       7.949  -1.114  24.655  0.00  0.00    +0.214 A 
ATOM      2  C   UNL     1       8.093  -2.588  24.885  0.00  0.00    +0.238 A 
ATOM      3  O   UNL     1       8.761  -3.009  25.822  0.00  0.00    -0.283 OA
ATOM      4  C   UNL     1       7.422  -3.489  23.928  0.00  0.00    +0.109 A 
ATOM      5  C   UNL     1       6.908  -2.920  22.767  0.00  0.00    +0.147 A 
ATOM      6  C   UNL     1       6.243  -3.709  21.821  0.00  0.00    +0.092 A 
ATOM      7  C   UNL     1       6.115  -5.076  22.043  0.00  0.00    +0.124 A 
ATOM      8  C   UNL     1       6.630  -5.662  23.189  0.00  0.00    +0.091 A 
ATOM      9  O   UNL     1       7.039  -1.589  22.462  0.00  0.00    -0.451 OA
ATOM     10  C   UNL     1       7.283  -4.871  24.134  0.00  0.00    +0.135 A 
ATOM     11  C   UNL     1       7.536  -0.719  23.427  0.00  0.00    +0.181 A 
ENDROOT
BRANCH  11  12
ATOM     12  C   UNL     1       7.585   0.684  22.926  0.00  0.00    +0.025 A 
ATOM     13  C   UNL     1       8.822   1.336  22.726  0.00  0.00    +0.015 A 
ATOM     14  C   UNL     1       8.880   2.693  22.399  0.00  0.00    +0.050 A 
ATOM     15  C   UNL     1       7.701   3.386  22.193  0.00  0.00    +0.158 A 
ATOM     16  C   UNL     1       6.471   2.748  22.319  0.00  0.00    +0.159 A 
ATOM     17  C   UNL     1       6.400   1.406  22.691  0.00  0.00    +0.060 A 
BRANCH  15  18
ATOM     18  O   UNL     1       7.759   4.709  21.862  0.00  0.00    -0.503 OA
ATOM     19  H   UNL     1       8.500   4.776  21.227  0.00  0.00    +0.292 HD
ENDBRANCH  15  18
BRANCH  16  20
ATOM     20  O   UNL     1       5.350   3.496  22.083  0.00  0.00    -0.503 OA
ATOM     21  H   UNL     1       5.625   4.355  21.705  0.00  0.00    +0.292 HD
ENDBRANCH  16  20
ENDBRANCH  11  12
BRANCH   7  22
ATOM     22  O   UNL     1       5.483  -5.889  21.151  0.00  0.00    -0.507 OA
ATOM     23  H   UNL     1       4.878  -5.360  20.605  0.00  0.00    +0.292 HD
ENDBRANCH   7  22
BRANCH  10  24
ATOM     24  O   UNL     1       7.763  -5.468  25.265  0.00  0.00    -0.506 OA
ATOM     25  H   UNL     1       7.060  -5.967  25.711  0.00  0.00    +0.292 HD
ENDBRANCH  10  24
BRANCH   1  26
ATOM     26  O   UNL     1       8.358  -0.329  25.715  0.00  0.00    -0.453 OA
BRANCH  26  29
ATOM     27  C   UNL     1       6.889   2.857  26.531  0.00  0.00    +0.198 C 
ATOM     28  O   UNL     1       7.865   1.909  26.118  0.00  0.00    -0.337 OA
ATOM     29  C   UNL     1       7.426   0.556  26.332  0.00  0.00    +0.339 C 
ATOM     30  C   UNL     1       7.193   0.266  27.829  0.00  0.00    +0.214 C 
ATOM     31  C   UNL     1       6.145   1.269  28.325  0.00  0.00    +0.180 C 
ATOM     32  C   UNL     1       6.572   2.714  28.018  0.00  0.00    +0.171 C 
BRANCH  30  33
ATOM     33  O   UNL     1       8.379   0.400  28.620  0.00  0.00    -0.383 OA
ATOM     34  H   UNL     1       8.110   0.934  29.393  0.00  0.00    +0.210 HD
ENDBRANCH  30  33
BRANCH  31  35
ATOM     35  O   UNL     1       5.950   1.111  29.738  0.00  0.00    -0.386 OA
ATOM     36  H   UNL     1       6.508   0.343  29.981  0.00  0.00    +0.210 HD
ENDBRANCH  31  35
BRANCH  32  37
ATOM     37  O   UNL     1       5.511   3.592  28.406  0.00  0.00    -0.387 OA
ATOM     38  H   UNL     1       5.889   4.491  28.450  0.00  0.00    +0.210 HD
ENDBRANCH  32  37
ENDBRANCH  26  29
ENDBRANCH   1  26
TORSDOF 10
ENDMDL
