MODEL 1
REMARK VINA RESULT:      -7.6      0.000      0.000
REMARK  Name = 
REMARK  19 active torsions:
REMARK  status: ('A' for Active; 'I' for Inactive)
REMARK    1  A    between atoms: C_1  and  O_2
REMARK    2  A    between atoms: O_2  and  C_3
REMARK    3  A    between atoms: C_4  and  O_50
REMARK    4  A    between atoms: C_6  and  C_9
REMARK    5  A    between atoms: C_10  and  O_48
REMARK    6  A    between atoms: C_14  and  O_47
REMARK    7  A    between atoms: C_16  and  O_20
REMARK    8  A    between atoms: O_20  and  C_21
REMARK    9  A    between atoms: C_23  and  O_46
REMARK   10  A    between atoms: C_24  and  O_45
REMARK   11  A    between atoms: C_26  and  O_44
REMARK   12  A    between atoms: C_28  and  C_30
REMARK   13  A    between atoms: C_30  and  O_31
REMARK   14  A    between atoms: O_31  and  C_32
REMARK   15  A    between atoms: C_34  and  O_43
REMARK   16  A    between atoms: C_36  and  O_42
REMARK   17  A    between atoms: C_37  and  C_40
REMARK   18  A    between atoms: C_40  and  O_41
REMARK   19  A    between atoms: O_48  and  C_49
REMARK                            x       y       z     vdW  Elec       q    Type
REMARK                         _______ _______ _______ _____ _____    ______ ____
ROOT
ATOM      1  O   UNL     1       6.806  -5.030  28.201  0.00  0.00    -0.461 OA
ENDROOT
BRANCH   1   8
ATOM      2  C   UNL     1       8.065  -0.542  24.299  0.00  0.00    +0.181 A 
ATOM      3  O   UNL     1       7.347  -1.256  25.288  0.00  0.00    -0.451 OA
ATOM      4  C   UNL     1       7.742  -2.518  25.664  0.00  0.00    +0.147 A 
ATOM      5  C   UNL     1       8.810  -3.154  25.059  0.00  0.00    +0.109 A 
ATOM      6  C   UNL     1       9.187  -4.445  25.444  0.00  0.00    +0.135 A 
ATOM      7  C   UNL     1       8.503  -5.114  26.450  0.00  0.00    +0.092 A 
ATOM      8  C   UNL     1       7.472  -4.467  27.132  0.00  0.00    +0.131 A 
ATOM      9  C   UNL     1       9.546  -2.444  24.031  0.00  0.00    +0.238 A 
ATOM     10  O   UNL     1      10.509  -3.000  23.517  0.00  0.00    -0.283 OA
ATOM     11  C   UNL     1       7.066  -3.187  26.704  0.00  0.00    +0.093 A 
ATOM     12  C   UNL     1       9.130  -1.068  23.637  0.00  0.00    +0.211 A 
BRANCH   2  16
ATOM     13  C   UNL     1       6.660   3.537  23.819  0.00  0.00    +0.161 A 
ATOM     14  C   UNL     1       7.762   3.247  24.606  0.00  0.00    +0.050 A 
ATOM     15  C   UNL     1       8.140   1.916  24.814  0.00  0.00    +0.015 A 
ATOM     16  C   UNL     1       7.534   0.847  24.140  0.00  0.00    +0.025 A 
ATOM     17  C   UNL     1       6.371   1.143  23.406  0.00  0.00    +0.060 A 
ATOM     18  C   UNL     1       5.933   2.472  23.282  0.00  0.00    +0.159 A 
BRANCH  18  19
ATOM     19  O   UNL     1       4.758   2.719  22.621  0.00  0.00    -0.503 OA
ATOM     20  H   UNL     1       4.625   3.686  22.687  0.00  0.00    +0.292 HD
ENDBRANCH  18  19
BRANCH  13  22
ATOM     21  C   UNL     1       6.908   5.529  22.586  0.00  0.00    +0.277 C 
ATOM     22  O   UNL     1       6.184   4.799  23.578  0.00  0.00    -0.491 OA
ENDBRANCH  13  22
ENDBRANCH   2  16
BRANCH  12  23
ATOM     23  O   UNL     1       9.972  -0.608  22.662  0.00  0.00    -0.488 OA
ATOM     24  C   UNL     1       9.746   0.129  21.485  0.00  0.00    +0.277 C 
ENDBRANCH  12  23
BRANCH   6  25
ATOM     25  O   UNL     1      10.245  -5.115  24.885  0.00  0.00    -0.506 OA
ATOM     26  H   UNL     1      10.013  -5.319  23.948  0.00  0.00    +0.292 HD
ENDBRANCH   6  25
ENDBRANCH   1   8
BRANCH   1  27
ATOM     27  C   UNL     1       6.360  -6.402  28.037  0.00  0.00    +0.339 C 
ATOM     28  O   UNL     1       5.596  -6.575  26.832  0.00  0.00    -0.331 OA
ATOM     29  C   UNL     1       4.315  -5.923  26.811  0.00  0.00    +0.179 C 
ATOM     30  C   UNL     1       3.431  -6.242  28.043  0.00  0.00    +0.177 C 
ATOM     31  C   UNL     1       4.226  -6.069  29.340  0.00  0.00    +0.180 C 
ATOM     32  C   UNL     1       5.525  -6.889  29.242  0.00  0.00    +0.214 C 
BRANCH  32  33
ATOM     33  O   UNL     1       6.231  -6.857  30.485  0.00  0.00    -0.383 OA
ATOM     34  H   UNL     1       7.183  -6.928  30.294  0.00  0.00    +0.210 HD
ENDBRANCH  32  33
BRANCH  31  35
ATOM     35  O   UNL     1       4.438  -4.675  29.591  0.00  0.00    -0.386 OA
ATOM     36  H   UNL     1       4.837  -4.277  28.795  0.00  0.00    +0.210 HD
ENDBRANCH  31  35
BRANCH  30  37
ATOM     37  O   UNL     1       2.932  -7.586  27.983  0.00  0.00    -0.386 OA
ATOM     38  H   UNL     1       2.042  -7.544  27.587  0.00  0.00    +0.210 HD
ENDBRANCH  30  37
BRANCH  29  39
ATOM     39  C   UNL     1       3.606  -6.349  25.516  0.00  0.00    +0.197 C 
BRANCH  39  40
ATOM     40  O   UNL     1       3.229  -5.198  24.751  0.00  0.00    -0.346 OA
BRANCH  40  41
ATOM     41  C   UNL     1       4.058  -5.070  23.598  0.00  0.00    +0.282 C 
ATOM     42  O   UNL     1       5.284  -5.794  23.734  0.00  0.00    -0.341 OA
ATOM     43  C   UNL     1       6.362  -4.966  23.251  0.00  0.00    +0.178 C 
ATOM     44  C   UNL     1       5.725  -3.731  22.596  0.00  0.00    +0.179 C 
ATOM     45  C   UNL     1       4.428  -3.598  23.374  0.00  0.00    +0.201 C 
BRANCH  45  46
ATOM     46  O   UNL     1       4.668  -2.922  24.615  0.00  0.00    -0.384 OA
ATOM     47  H   UNL     1       5.210  -2.141  24.381  0.00  0.00    +0.210 HD
ENDBRANCH  45  46
BRANCH  44  48
ATOM     48  O   UNL     1       5.460  -3.905  21.201  0.00  0.00    -0.386 OA
ATOM     49  H   UNL     1       5.046  -4.767  21.046  0.00  0.00    +0.210 HD
ENDBRANCH  44  48
BRANCH  43  50
ATOM     50  C   UNL     1       7.244  -5.798  22.313  0.00  0.00    +0.190 C 
BRANCH  50  51
ATOM     51  O   UNL     1       6.481  -6.741  21.556  0.00  0.00    -0.392 OA
ATOM     52  H   UNL     1       5.972  -6.256  20.886  0.00  0.00    +0.210 HD
ENDBRANCH  50  51
ENDBRANCH  43  50
ENDBRANCH  40  41
ENDBRANCH  39  40
ENDBRANCH  29  39
ENDBRANCH   1  27
TORSDOF 17
ENDMDL
MODEL 2
REMARK VINA RESULT:      -7.1      1.174      2.030
REMARK  Name = 
REMARK  19 active torsions:
REMARK  status: ('A' for Active; 'I' for Inactive)
REMARK    1  A    between atoms: C_1  and  O_2
REMARK    2  A    between atoms: O_2  and  C_3
REMARK    3  A    between atoms: C_4  and  O_50
REMARK    4  A    between atoms: C_6  and  C_9
REMARK    5  A    between atoms: C_10  and  O_48
REMARK    6  A    between atoms: C_14  and  O_47
REMARK    7  A    between atoms: C_16  and  O_20
REMARK    8  A    between atoms: O_20  and  C_21
REMARK    9  A    between atoms: C_23  and  O_46
REMARK   10  A    between atoms: C_24  and  O_45
REMARK   11  A    between atoms: C_26  and  O_44
REMARK   12  A    between atoms: C_28  and  C_30
REMARK   13  A    between atoms: C_30  and  O_31
REMARK   14  A    between atoms: O_31  and  C_32
REMARK   15  A    between atoms: C_34  and  O_43
REMARK   16  A    between atoms: C_36  and  O_42
REMARK   17  A    between atoms: C_37  and  C_40
REMARK   18  A    between atoms: C_40  and  O_41
REMARK   19  A    between atoms: O_48  and  C_49
REMARK                            x       y       z     vdW  Elec       q    Type
REMARK                         _______ _______ _______ _____ _____    ______ ____
ROOT
ATOM      1  O   UNL     1       6.507  -5.195  28.115  0.00  0.00    -0.461 OA
ENDROOT
BRANCH   1   8
ATOM      2  C   UNL     1       8.160  -0.392  24.776  0.00  0.00    +0.181 A 
ATOM      3  O   UNL     1       7.375  -1.160  25.669  0.00  0.00    -0.451 OA
ATOM      4  C   UNL     1       7.668  -2.483  25.897  0.00  0.00    +0.147 A 
ATOM      5  C   UNL     1       8.696  -3.123  25.230  0.00  0.00    +0.109 A 
ATOM      6  C   UNL     1       8.969  -4.476  25.463  0.00  0.00    +0.135 A 
ATOM      7  C   UNL     1       8.221  -5.203  26.379  0.00  0.00    +0.092 A 
ATOM      8  C   UNL     1       7.230  -4.564  27.124  0.00  0.00    +0.131 A 
ATOM      9  C   UNL     1       9.499  -2.356  24.298  0.00  0.00    +0.238 A 
ATOM     10  O   UNL     1      10.426  -2.920  23.729  0.00  0.00    -0.283 OA
ATOM     11  C   UNL     1       6.928  -3.215  26.846  0.00  0.00    +0.093 A 
ATOM     12  C   UNL     1       9.194  -0.916  24.064  0.00  0.00    +0.211 A 
BRANCH   2  16
ATOM     13  C   UNL     1       6.821   3.737  24.862  0.00  0.00    +0.161 A 
ATOM     14  C   UNL     1       5.925   2.697  24.674  0.00  0.00    +0.050 A 
ATOM     15  C   UNL     1       6.394   1.383  24.563  0.00  0.00    +0.015 A 
ATOM     16  C   UNL     1       7.737   1.043  24.777  0.00  0.00    +0.025 A 
ATOM     17  C   UNL     1       8.647   2.110  24.889  0.00  0.00    +0.060 A 
ATOM     18  C   UNL     1       8.184   3.436  24.898  0.00  0.00    +0.159 A 
BRANCH  18  19
ATOM     19  O   UNL     1       9.101   4.453  24.937  0.00  0.00    -0.503 OA
ATOM     20  H   UNL     1       8.645   5.193  25.388  0.00  0.00    +0.292 HD
ENDBRANCH  18  19
BRANCH  13  22
ATOM     21  C   UNL     1       5.905   5.443  26.204  0.00  0.00    +0.277 C 
ATOM     22  O   UNL     1       6.472   5.059  24.950  0.00  0.00    -0.491 OA
ENDBRANCH  13  22
ENDBRANCH   2  16
BRANCH  12  23
ATOM     23  O   UNL     1      10.083  -0.412  23.157  0.00  0.00    -0.488 OA
ATOM     24  C   UNL     1       9.913   0.174  21.888  0.00  0.00    +0.277 C 
ENDBRANCH  12  23
BRANCH   6  25
ATOM     25  O   UNL     1       9.983  -5.154  24.837  0.00  0.00    -0.506 OA
ATOM     26  H   UNL     1      10.379  -4.553  24.163  0.00  0.00    +0.292 HD
ENDBRANCH   6  25
ENDBRANCH   1   8
BRANCH   1  27
ATOM     27  C   UNL     1       5.982  -6.510  27.796  0.00  0.00    +0.339 C 
ATOM     28  O   UNL     1       5.474  -6.572  26.453  0.00  0.00    -0.331 OA
ATOM     29  C   UNL     1       4.290  -5.796  26.202  0.00  0.00    +0.179 C 
ATOM     30  C   UNL     1       3.143  -6.062  27.210  0.00  0.00    +0.177 C 
ATOM     31  C   UNL     1       3.662  -6.007  28.648  0.00  0.00    +0.180 C 
ATOM     32  C   UNL     1       4.873  -6.948  28.778  0.00  0.00    +0.214 C 
BRANCH  32  33
ATOM     33  O   UNL     1       5.305  -7.022  30.140  0.00  0.00    -0.383 OA
ATOM     34  H   UNL     1       4.543  -6.813  30.710  0.00  0.00    +0.210 HD
ENDBRANCH  32  33
BRANCH  31  35
ATOM     35  O   UNL     1       3.943  -4.649  29.006  0.00  0.00    -0.386 OA
ATOM     36  H   UNL     1       4.852  -4.604  29.355  0.00  0.00    +0.210 HD
ENDBRANCH  31  35
BRANCH  30  37
ATOM     37  O   UNL     1       2.547  -7.347  26.982  0.00  0.00    -0.386 OA
ATOM     38  H   UNL     1       2.142  -7.628  27.823  0.00  0.00    +0.210 HD
ENDBRANCH  30  37
BRANCH  29  39
ATOM     39  C   UNL     1       3.831  -6.111  24.770  0.00  0.00    +0.197 C 
BRANCH  39  40
ATOM     40  O   UNL     1       4.917  -6.643  24.002  0.00  0.00    -0.346 OA
BRANCH  40  41
ATOM     41  C   UNL     1       5.788  -5.596  23.578  0.00  0.00    +0.282 C 
ATOM     42  O   UNL     1       5.130  -4.327  23.546  0.00  0.00    -0.341 OA
ATOM     43  C   UNL     1       5.506  -3.645  22.331  0.00  0.00    +0.178 C 
ATOM     44  C   UNL     1       6.622  -4.473  21.675  0.00  0.00    +0.179 C 
ATOM     45  C   UNL     1       6.296  -5.875  22.156  0.00  0.00    +0.201 C 
BRANCH  45  46
ATOM     46  O   UNL     1       5.269  -6.448  21.336  0.00  0.00    -0.384 OA
ATOM     47  H   UNL     1       4.795  -5.684  20.948  0.00  0.00    +0.210 HD
ENDBRANCH  45  46
BRANCH  44  48
ATOM     48  O   UNL     1       7.933  -4.088  22.097  0.00  0.00    -0.386 OA
ATOM     49  H   UNL     1       8.297  -3.427  21.490  0.00  0.00    +0.210 HD
ENDBRANCH  44  48
BRANCH  43  50
ATOM     50  C   UNL     1       5.903  -2.205  22.676  0.00  0.00    +0.190 C 
BRANCH  50  51
ATOM     51  O   UNL     1       5.199  -1.712  23.818  0.00  0.00    -0.392 OA
ATOM     52  H   UNL     1       5.758  -1.051  24.260  0.00  0.00    +0.210 HD
ENDBRANCH  50  51
ENDBRANCH  43  50
ENDBRANCH  40  41
ENDBRANCH  39  40
ENDBRANCH  29  39
ENDBRANCH   1  27
TORSDOF 17
ENDMDL
MODEL 3
REMARK VINA RESULT:      -6.9      2.412      8.459
REMARK  Name = 
REMARK  19 active torsions:
REMARK  status: ('A' for Active; 'I' for Inactive)
REMARK    1  A    between atoms: C_1  and  O_2
REMARK    2  A    between atoms: O_2  and  C_3
REMARK    3  A    between atoms: C_4  and  O_50
REMARK    4  A    between atoms: C_6  and  C_9
REMARK    5  A    between atoms: C_10  and  O_48
REMARK    6  A    between atoms: C_14  and  O_47
REMARK    7  A    between atoms: C_16  and  O_20
REMARK    8  A    between atoms: O_20  and  C_21
REMARK    9  A    between atoms: C_23  and  O_46
REMARK   10  A    between atoms: C_24  and  O_45
REMARK   11  A    between atoms: C_26  and  O_44
REMARK   12  A    between atoms: C_28  and  C_30
REMARK   13  A    between atoms: C_30  and  O_31
REMARK   14  A    between atoms: O_31  and  C_32
REMARK   15  A    between atoms: C_34  and  O_43
REMARK   16  A    between atoms: C_36  and  O_42
REMARK   17  A    between atoms: C_37  and  C_40
REMARK   18  A    between atoms: C_40  and  O_41
REMARK   19  A    between atoms: O_48  and  C_49
REMARK                            x       y       z     vdW  Elec       q    Type
REMARK                         _______ _______ _______ _____ _____    ______ ____
ROOT
ATOM      1  O   UNL     1       6.008   3.041  25.549  0.00  0.00    -0.461 OA
ENDROOT
BRANCH   1   8
ATOM      2  C   UNL     1       5.028  -2.954  25.327  0.00  0.00    +0.181 A 
ATOM      3  O   UNL     1       4.732  -1.573  25.234  0.00  0.00    -0.451 OA
ATOM      4  C   UNL     1       5.656  -0.632  25.621  0.00  0.00    +0.147 A 
ATOM      5  C   UNL     1       6.876  -0.994  26.162  0.00  0.00    +0.109 A 
ATOM      6  C   UNL     1       7.797  -0.022  26.566  0.00  0.00    +0.135 A 
ATOM      7  C   UNL     1       7.512   1.330  26.424  0.00  0.00    +0.092 A 
ATOM      8  C   UNL     1       6.323   1.723  25.809  0.00  0.00    +0.131 A 
ATOM      9  C   UNL     1       7.189  -2.405  26.281  0.00  0.00    +0.238 A 
ATOM     10  O   UNL     1       8.282  -2.721  26.735  0.00  0.00    -0.283 OA
ATOM     11  C   UNL     1       5.379   0.739  25.452  0.00  0.00    +0.093 A 
ATOM     12  C   UNL     1       6.195  -3.425  25.843  0.00  0.00    +0.211 A 
BRANCH   2  16
ATOM     13  C   UNL     1       1.762  -5.251  23.625  0.00  0.00    +0.161 A 
ATOM     14  C   UNL     1       1.553  -4.391  24.690  0.00  0.00    +0.050 A 
ATOM     15  C   UNL     1       2.638  -3.729  25.275  0.00  0.00    +0.015 A 
ATOM     16  C   UNL     1       3.932  -3.785  24.739  0.00  0.00    +0.025 A 
ATOM     17  C   UNL     1       4.148  -4.720  23.710  0.00  0.00    +0.060 A 
ATOM     18  C   UNL     1       3.072  -5.459  23.190  0.00  0.00    +0.159 A 
BRANCH  18  19
ATOM     19  O   UNL     1       3.327  -6.411  22.237  0.00  0.00    -0.503 OA
ATOM     20  H   UNL     1       4.273  -6.637  22.347  0.00  0.00    +0.292 HD
ENDBRANCH  18  19
BRANCH  13  22
ATOM     21  C   UNL     1       0.446  -7.205  23.643  0.00  0.00    +0.277 C 
ATOM     22  O   UNL     1       0.778  -5.973  23.001  0.00  0.00    -0.491 OA
ENDBRANCH  13  22
ENDBRANCH   2  16
BRANCH  12  23
ATOM     23  O   UNL     1       6.715  -4.673  26.048  0.00  0.00    -0.488 OA
ATOM     24  C   UNL     1       6.420  -5.682  26.984  0.00  0.00    +0.277 C 
ENDBRANCH  12  23
BRANCH   6  25
ATOM     25  O   UNL     1       9.024  -0.327  27.097  0.00  0.00    -0.506 OA
ATOM     26  H   UNL     1       8.877  -0.867  27.909  0.00  0.00    +0.292 HD
ENDBRANCH   6  25
ENDBRANCH   1   8
BRANCH   1  27
ATOM     27  C   UNL     1       5.559   3.345  24.202  0.00  0.00    +0.339 C 
ATOM     28  O   UNL     1       6.357   2.681  23.209  0.00  0.00    -0.331 OA
ATOM     29  C   UNL     1       7.716   3.139  23.097  0.00  0.00    +0.179 C 
ATOM     30  C   UNL     1       7.844   4.675  22.933  0.00  0.00    +0.177 C 
ATOM     31  C   UNL     1       6.997   5.405  23.978  0.00  0.00    +0.180 C 
ATOM     32  C   UNL     1       5.557   4.864  23.919  0.00  0.00    +0.214 C 
BRANCH  32  33
ATOM     33  O   UNL     1       4.706   5.613  24.791  0.00  0.00    -0.383 OA
ATOM     34  H   UNL     1       5.137   6.467  24.974  0.00  0.00    +0.210 HD
ENDBRANCH  32  33
BRANCH  31  35
ATOM     35  O   UNL     1       7.611   5.280  25.266  0.00  0.00    -0.386 OA
ATOM     36  H   UNL     1       7.794   4.336  25.430  0.00  0.00    +0.210 HD
ENDBRANCH  31  35
BRANCH  30  37
ATOM     37  O   UNL     1       7.423   5.089  21.626  0.00  0.00    -0.386 OA
ATOM     38  H   UNL     1       7.827   4.474  20.986  0.00  0.00    +0.210 HD
ENDBRANCH  30  37
BRANCH  29  39
ATOM     39  C   UNL     1       8.345   2.416  21.897  0.00  0.00    +0.197 C 
BRANCH  39  40
ATOM     40  O   UNL     1       9.671   1.979  22.216  0.00  0.00    -0.346 OA
BRANCH  40  41
ATOM     41  C   UNL     1       9.754   0.556  22.168  0.00  0.00    +0.282 C 
ATOM     42  O   UNL     1       8.467  -0.061  22.238  0.00  0.00    -0.341 OA
ATOM     43  C   UNL     1       8.542  -1.181  23.145  0.00  0.00    +0.178 C 
ATOM     44  C   UNL     1      10.024  -1.376  23.499  0.00  0.00    +0.179 C 
ATOM     45  C   UNL     1      10.568   0.034  23.361  0.00  0.00    +0.201 C 
BRANCH  45  46
ATOM     46  O   UNL     1      10.292   0.784  24.552  0.00  0.00    -0.384 OA
ATOM     47  H   UNL     1      11.078   1.353  24.683  0.00  0.00    +0.210 HD
ENDBRANCH  45  46
BRANCH  44  48
ATOM     48  O   UNL     1      10.704  -2.267  22.610  0.00  0.00    -0.386 OA
ATOM     49  H   UNL     1      10.548  -3.185  22.875  0.00  0.00    +0.210 HD
ENDBRANCH  44  48
BRANCH  43  50
ATOM     50  C   UNL     1       7.881  -2.397  22.485  0.00  0.00    +0.190 C 
BRANCH  50  51
ATOM     51  O   UNL     1       8.268  -3.623  23.109  0.00  0.00    -0.392 OA
ATOM     52  H   UNL     1       8.117  -3.540  24.066  0.00  0.00    +0.210 HD
ENDBRANCH  50  51
ENDBRANCH  43  50
ENDBRANCH  40  41
ENDBRANCH  39  40
ENDBRANCH  29  39
ENDBRANCH   1  27
TORSDOF 17
ENDMDL
MODEL 4
REMARK VINA RESULT:      -6.8      2.428      8.448
REMARK  Name = 
REMARK  19 active torsions:
REMARK  status: ('A' for Active; 'I' for Inactive)
REMARK    1  A    between atoms: C_1  and  O_2
REMARK    2  A    between atoms: O_2  and  C_3
REMARK    3  A    between atoms: C_4  and  O_50
REMARK    4  A    between atoms: C_6  and  C_9
REMARK    5  A    between atoms: C_10  and  O_48
REMARK    6  A    between atoms: C_14  and  O_47
REMARK    7  A    between atoms: C_16  and  O_20
REMARK    8  A    between atoms: O_20  and  C_21
REMARK    9  A    between atoms: C_23  and  O_46
REMARK   10  A    between atoms: C_24  and  O_45
REMARK   11  A    between atoms: C_26  and  O_44
REMARK   12  A    between atoms: C_28  and  C_30
REMARK   13  A    between atoms: C_30  and  O_31
REMARK   14  A    between atoms: O_31  and  C_32
REMARK   15  A    between atoms: C_34  and  O_43
REMARK   16  A    between atoms: C_36  and  O_42
REMARK   17  A    between atoms: C_37  and  C_40
REMARK   18  A    between atoms: C_40  and  O_41
REMARK   19  A    between atoms: O_48  and  C_49
REMARK                            x       y       z     vdW  Elec       q    Type
REMARK                         _______ _______ _______ _____ _____    ______ ____
ROOT
ATOM      1  O   UNL     1       7.049   1.955  25.042  0.00  0.00    -0.461 OA
ENDROOT
BRANCH   1   8
ATOM      2  C   UNL     1       3.746  -3.055  26.014  0.00  0.00    +0.181 A 
ATOM      3  O   UNL     1       4.401  -2.039  25.278  0.00  0.00    -0.451 OA
ATOM      4  C   UNL     1       4.970  -0.965  25.920  0.00  0.00    +0.147 A 
ATOM      5  C   UNL     1       4.878  -0.809  27.291  0.00  0.00    +0.109 A 
ATOM      6  C   UNL     1       5.450   0.299  27.925  0.00  0.00    +0.135 A 
ATOM      7  C   UNL     1       6.131   1.263  27.194  0.00  0.00    +0.092 A 
ATOM      8  C   UNL     1       6.308   1.091  25.821  0.00  0.00    +0.131 A 
ATOM      9  C   UNL     1       4.195  -1.831  28.059  0.00  0.00    +0.238 A 
ATOM     10  O   UNL     1       4.140  -1.703  29.276  0.00  0.00    -0.283 OA
ATOM     11  C   UNL     1       5.686  -0.002  25.183  0.00  0.00    +0.093 A 
ATOM     12  C   UNL     1       3.595  -3.005  27.365  0.00  0.00    +0.211 A 
BRANCH   2  16
ATOM     13  C   UNL     1       2.436  -6.217  23.344  0.00  0.00    +0.161 A 
ATOM     14  C   UNL     1       1.607  -5.150  23.653  0.00  0.00    +0.050 A 
ATOM     15  C   UNL     1       2.022  -4.192  24.583  0.00  0.00    +0.015 A 
ATOM     16  C   UNL     1       3.314  -4.177  25.125  0.00  0.00    +0.025 A 
ATOM     17  C   UNL     1       4.118  -5.303  24.868  0.00  0.00    +0.060 A 
ATOM     18  C   UNL     1       3.659  -6.317  24.011  0.00  0.00    +0.159 A 
BRANCH  18  19
ATOM     19  O   UNL     1       4.436  -7.432  23.836  0.00  0.00    -0.503 OA
ATOM     20  H   UNL     1       4.737  -7.679  24.734  0.00  0.00    +0.292 HD
ENDBRANCH  18  19
BRANCH  13  22
ATOM     21  C   UNL     1       1.076  -8.095  22.928  0.00  0.00    +0.277 C 
ATOM     22  O   UNL     1       2.116  -7.226  22.475  0.00  0.00    -0.491 OA
ENDBRANCH  13  22
ENDBRANCH   2  16
BRANCH  12  23
ATOM     23  O   UNL     1       3.016  -3.826  28.292  0.00  0.00    -0.488 OA
ATOM     24  C   UNL     1       3.338  -5.118  28.748  0.00  0.00    +0.277 C 
ENDBRANCH  12  23
BRANCH   6  25
ATOM     25  O   UNL     1       5.398   0.496  29.281  0.00  0.00    -0.506 OA
ATOM     26  H   UNL     1       4.476   0.308  29.580  0.00  0.00    +0.292 HD
ENDBRANCH   6  25
ENDBRANCH   1   8
BRANCH   1  27
ATOM     27  C   UNL     1       7.136   1.638  23.627  0.00  0.00    +0.339 C 
ATOM     28  O   UNL     1       8.054   0.562  23.376  0.00  0.00    -0.331 OA
ATOM     29  C   UNL     1       9.440   0.858  23.620  0.00  0.00    +0.179 C 
ATOM     30  C   UNL     1       9.936   2.147  22.916  0.00  0.00    +0.177 C 
ATOM     31  C   UNL     1       8.969   3.308  23.166  0.00  0.00    +0.180 C 
ATOM     32  C   UNL     1       7.546   2.864  22.782  0.00  0.00    +0.214 C 
BRANCH  32  33
ATOM     33  O   UNL     1       6.637   3.963  22.878  0.00  0.00    -0.383 OA
ATOM     34  H   UNL     1       6.504   4.325  21.984  0.00  0.00    +0.210 HD
ENDBRANCH  32  33
BRANCH  31  35
ATOM     35  O   UNL     1       9.091   3.750  24.523  0.00  0.00    -0.386 OA
ATOM     36  H   UNL     1       8.401   3.311  25.053  0.00  0.00    +0.210 HD
ENDBRANCH  31  35
BRANCH  30  37
ATOM     37  O   UNL     1      10.059   1.945  21.501  0.00  0.00    -0.386 OA
ATOM     38  H   UNL     1      10.776   1.299  21.365  0.00  0.00    +0.210 HD
ENDBRANCH  30  37
BRANCH  29  39
ATOM     39  C   UNL     1      10.257  -0.356  23.156  0.00  0.00    +0.197 C 
BRANCH  39  40
ATOM     40  O   UNL     1       9.386  -1.421  22.755  0.00  0.00    -0.346 OA
BRANCH  40  41
ATOM     41  C   UNL     1       8.955  -2.168  23.891  0.00  0.00    +0.282 C 
ATOM     42  O   UNL     1       9.835  -3.256  24.185  0.00  0.00    -0.341 OA
ATOM     43  C   UNL     1       9.040  -4.421  24.487  0.00  0.00    +0.178 C 
ATOM     44  C   UNL     1       7.577  -3.959  24.574  0.00  0.00    +0.179 C 
ATOM     45  C   UNL     1       7.567  -2.770  23.631  0.00  0.00    +0.201 C 
BRANCH  45  46
ATOM     46  O   UNL     1       7.436  -3.220  22.276  0.00  0.00    -0.384 OA
ATOM     47  H   UNL     1       6.508  -3.027  22.031  0.00  0.00    +0.210 HD
ENDBRANCH  45  46
BRANCH  44  48
ATOM     48  O   UNL     1       7.188  -3.561  25.891  0.00  0.00    -0.386 OA
ATOM     49  H   UNL     1       7.061  -2.601  25.925  0.00  0.00    +0.210 HD
ENDBRANCH  44  48
BRANCH  43  50
ATOM     50  C   UNL     1       9.578  -5.069  25.768  0.00  0.00    +0.190 C 
BRANCH  50  51
ATOM     51  O   UNL     1       8.601  -5.898  26.402  0.00  0.00    -0.392 OA
ATOM     52  H   UNL     1       8.986  -6.782  26.530  0.00  0.00    +0.210 HD
ENDBRANCH  50  51
ENDBRANCH  43  50
ENDBRANCH  40  41
ENDBRANCH  39  40
ENDBRANCH  29  39
ENDBRANCH   1  27
TORSDOF 17
ENDMDL
MODEL 5
REMARK VINA RESULT:      -6.8      2.889      8.966
REMARK  Name = 
REMARK  19 active torsions:
REMARK  status: ('A' for Active; 'I' for Inactive)
REMARK    1  A    between atoms: C_1  and  O_2
REMARK    2  A    between atoms: O_2  and  C_3
REMARK    3  A    between atoms: C_4  and  O_50
REMARK    4  A    between atoms: C_6  and  C_9
REMARK    5  A    between atoms: C_10  and  O_48
REMARK    6  A    between atoms: C_14  and  O_47
REMARK    7  A    between atoms: C_16  and  O_20
REMARK    8  A    between atoms: O_20  and  C_21
REMARK    9  A    between atoms: C_23  and  O_46
REMARK   10  A    between atoms: C_24  and  O_45
REMARK   11  A    between atoms: C_26  and  O_44
REMARK   12  A    between atoms: C_28  and  C_30
REMARK   13  A    between atoms: C_30  and  O_31
REMARK   14  A    between atoms: O_31  and  C_32
REMARK   15  A    between atoms: C_34  and  O_43
REMARK   16  A    between atoms: C_36  and  O_42
REMARK   17  A    between atoms: C_37  and  C_40
REMARK   18  A    between atoms: C_40  and  O_41
REMARK   19  A    between atoms: O_48  and  C_49
REMARK                            x       y       z     vdW  Elec       q    Type
REMARK                         _______ _______ _______ _____ _____    ______ ____
ROOT
ATOM      1  O   UNL     1       7.294   3.464  22.323  0.00  0.00    -0.461 OA
ENDROOT
BRANCH   1   8
ATOM      2  C   UNL     1       6.550  -2.424  23.638  0.00  0.00    +0.181 A 
ATOM      3  O   UNL     1       6.192  -1.067  23.449  0.00  0.00    -0.451 OA
ATOM      4  C   UNL     1       7.154  -0.119  23.196  0.00  0.00    +0.147 A 
ATOM      5  C   UNL     1       8.499  -0.439  23.172  0.00  0.00    +0.109 A 
ATOM      6  C   UNL     1       9.465   0.544  22.929  0.00  0.00    +0.135 A 
ATOM      7  C   UNL     1       9.095   1.862  22.698  0.00  0.00    +0.092 A 
ATOM      8  C   UNL     1       7.743   2.198  22.638  0.00  0.00    +0.131 A 
ATOM      9  C   UNL     1       8.885  -1.821  23.381  0.00  0.00    +0.238 A 
ATOM     10  O   UNL     1      10.076  -2.105  23.332  0.00  0.00    -0.283 OA
ATOM     11  C   UNL     1       6.778   1.213  22.933  0.00  0.00    +0.093 A 
ATOM     12  C   UNL     1       7.841  -2.853  23.636  0.00  0.00    +0.211 A 
BRANCH   2  16
ATOM     13  C   UNL     1       2.957  -4.823  24.057  0.00  0.00    +0.161 A 
ATOM     14  C   UNL     1       3.221  -3.772  24.919  0.00  0.00    +0.050 A 
ATOM     15  C   UNL     1       4.427  -3.071  24.816  0.00  0.00    +0.015 A 
ATOM     16  C   UNL     1       5.340  -3.291  23.775  0.00  0.00    +0.025 A 
ATOM     17  C   UNL     1       5.101  -4.409  22.955  0.00  0.00    +0.060 A 
ATOM     18  C   UNL     1       3.936  -5.175  23.125  0.00  0.00    +0.159 A 
BRANCH  18  19
ATOM     19  O   UNL     1       3.768  -6.297  22.357  0.00  0.00    -0.503 OA
ATOM     20  H   UNL     1       2.915  -6.167  21.895  0.00  0.00    +0.292 HD
ENDBRANCH  18  19
BRANCH  13  22
ATOM     21  C   UNL     1       1.692  -6.401  25.264  0.00  0.00    +0.277 C 
ATOM     22  O   UNL     1       1.826  -5.595  24.092  0.00  0.00    -0.491 OA
ENDBRANCH  13  22
ENDBRANCH   2  16
BRANCH  12  23
ATOM     23  O   UNL     1       8.444  -4.069  23.796  0.00  0.00    -0.488 OA
ATOM     24  C   UNL     1       8.539  -4.944  24.895  0.00  0.00    +0.277 C 
ENDBRANCH  12  23
BRANCH   6  25
ATOM     25  O   UNL     1      10.809   0.277  22.883  0.00  0.00    -0.506 OA
ATOM     26  H   UNL     1      11.147   0.574  22.005  0.00  0.00    +0.292 HD
ENDBRANCH   6  25
ENDBRANCH   1   8
BRANCH   1  27
ATOM     27  C   UNL     1       7.951   4.570  22.996  0.00  0.00    +0.339 C 
ATOM     28  O   UNL     1       7.832   4.473  24.425  0.00  0.00    -0.331 OA
ATOM     29  C   UNL     1       6.506   4.652  24.951  0.00  0.00    +0.179 C 
ATOM     30  C   UNL     1       5.805   5.941  24.452  0.00  0.00    +0.177 C 
ATOM     31  C   UNL     1       5.924   6.069  22.931  0.00  0.00    +0.180 C 
ATOM     32  C   UNL     1       7.405   5.939  22.533  0.00  0.00    +0.214 C 
BRANCH  32  33
ATOM     33  O   UNL     1       7.570   6.184  21.134  0.00  0.00    -0.383 OA
ATOM     34  H   UNL     1       6.951   5.607  20.651  0.00  0.00    +0.210 HD
ENDBRANCH  32  33
BRANCH  31  35
ATOM     35  O   UNL     1       5.068   5.110  22.301  0.00  0.00    -0.386 OA
ATOM     36  H   UNL     1       4.162   5.471  22.281  0.00  0.00    +0.210 HD
ENDBRANCH  31  35
BRANCH  30  37
ATOM     37  O   UNL     1       6.381   7.107  25.060  0.00  0.00    -0.386 OA
ATOM     38  H   UNL     1       5.711   7.813  25.017  0.00  0.00    +0.210 HD
ENDBRANCH  30  37
BRANCH  29  39
ATOM     39  C   UNL     1       6.617   4.659  26.483  0.00  0.00    +0.197 C 
BRANCH  39  40
ATOM     40  O   UNL     1       5.929   3.533  27.039  0.00  0.00    -0.346 OA
BRANCH  40  41
ATOM     41  C   UNL     1       6.859   2.538  27.463  0.00  0.00    +0.282 C 
ATOM     42  O   UNL     1       6.877   1.410  26.585  0.00  0.00    -0.341 OA
ATOM     43  C   UNL     1       6.902   0.207  27.382  0.00  0.00    +0.178 C 
ATOM     44  C   UNL     1       7.110   0.638  28.842  0.00  0.00    +0.179 C 
ATOM     45  C   UNL     1       6.477   2.017  28.856  0.00  0.00    +0.201 C 
BRANCH  45  46
ATOM     46  O   UNL     1       5.056   1.903  29.001  0.00  0.00    -0.384 OA
ATOM     47  H   UNL     1       4.752   1.440  28.194  0.00  0.00    +0.210 HD
ENDBRANCH  45  46
BRANCH  44  48
ATOM     48  O   UNL     1       8.489   0.713  29.217  0.00  0.00    -0.386 OA
ATOM     49  H   UNL     1       8.591   0.487  30.154  0.00  0.00    +0.210 HD
ENDBRANCH  44  48
BRANCH  43  50
ATOM     50  C   UNL     1       7.987  -0.727  26.835  0.00  0.00    +0.190 C 
BRANCH  50  51
ATOM     51  O   UNL     1       9.203  -0.030  26.553  0.00  0.00    -0.392 OA
ATOM     52  H   UNL     1       9.190   0.243  25.620  0.00  0.00    +0.210 HD
ENDBRANCH  50  51
ENDBRANCH  43  50
ENDBRANCH  40  41
ENDBRANCH  39  40
ENDBRANCH  29  39
ENDBRANCH   1  27
TORSDOF 17
ENDMDL
MODEL 6
REMARK VINA RESULT:      -6.8      2.612      7.919
REMARK  Name = 
REMARK  19 active torsions:
REMARK  status: ('A' for Active; 'I' for Inactive)
REMARK    1  A    between atoms: C_1  and  O_2
REMARK    2  A    between atoms: O_2  and  C_3
REMARK    3  A    between atoms: C_4  and  O_50
REMARK    4  A    between atoms: C_6  and  C_9
REMARK    5  A    between atoms: C_10  and  O_48
REMARK    6  A    between atoms: C_14  and  O_47
REMARK    7  A    between atoms: C_16  and  O_20
REMARK    8  A    between atoms: O_20  and  C_21
REMARK    9  A    between atoms: C_23  and  O_46
REMARK   10  A    between atoms: C_24  and  O_45
REMARK   11  A    between atoms: C_26  and  O_44
REMARK   12  A    between atoms: C_28  and  C_30
REMARK   13  A    between atoms: C_30  and  O_31
REMARK   14  A    between atoms: O_31  and  C_32
REMARK   15  A    between atoms: C_34  and  O_43
REMARK   16  A    between atoms: C_36  and  O_42
REMARK   17  A    between atoms: C_37  and  C_40
REMARK   18  A    between atoms: C_40  and  O_41
REMARK   19  A    between atoms: O_48  and  C_49
REMARK                            x       y       z     vdW  Elec       q    Type
REMARK                         _______ _______ _______ _____ _____    ______ ____
ROOT
ATOM      1  O   UNL     1       6.630   0.307  27.867  0.00  0.00    -0.461 OA
ENDROOT
BRANCH   1   8
ATOM      2  C   UNL     1       5.754  -4.632  24.433  0.00  0.00    +0.181 A 
ATOM      3  O   UNL     1       5.488  -3.667  25.434  0.00  0.00    -0.451 OA
ATOM      4  C   UNL     1       6.416  -2.700  25.738  0.00  0.00    +0.147 A 
ATOM      5  C   UNL     1       7.654  -2.666  25.124  0.00  0.00    +0.109 A 
ATOM      6  C   UNL     1       8.593  -1.683  25.459  0.00  0.00    +0.135 A 
ATOM      7  C   UNL     1       8.298  -0.714  26.408  0.00  0.00    +0.092 A 
ATOM      8  C   UNL     1       7.029  -0.677  26.986  0.00  0.00    +0.131 A 
ATOM      9  C   UNL     1       7.951  -3.657  24.110  0.00  0.00    +0.238 A 
ATOM     10  O   UNL     1       9.039  -3.607  23.548  0.00  0.00    -0.283 OA
ATOM     11  C   UNL     1       6.108  -1.699  26.680  0.00  0.00    +0.093 A 
ATOM     12  C   UNL     1       6.937  -4.694  23.765  0.00  0.00    +0.211 A 
BRANCH   2  16
ATOM     13  C   UNL     1       2.306  -7.127  23.577  0.00  0.00    +0.161 A 
ATOM     14  C   UNL     1       2.446  -5.876  22.999  0.00  0.00    +0.050 A 
ATOM     15  C   UNL     1       3.522  -5.058  23.360  0.00  0.00    +0.015 A 
ATOM     16  C   UNL     1       4.563  -5.502  24.187  0.00  0.00    +0.025 A 
ATOM     17  C   UNL     1       4.372  -6.740  24.828  0.00  0.00    +0.060 A 
ATOM     18  C   UNL     1       3.239  -7.517  24.541  0.00  0.00    +0.159 A 
BRANCH  18  19
ATOM     19  O   UNL     1       3.047  -8.684  25.235  0.00  0.00    -0.503 OA
ATOM     20  H   UNL     1       2.083  -8.734  25.392  0.00  0.00    +0.292 HD
ENDBRANCH  18  19
BRANCH  13  22
ATOM     21  C   UNL     1       1.139  -8.367  21.950  0.00  0.00    +0.277 C 
ATOM     22  O   UNL     1       1.276  -7.992  23.322  0.00  0.00    -0.491 OA
ENDBRANCH  13  22
ENDBRANCH   2  16
BRANCH  12  23
ATOM     23  O   UNL     1       7.441  -5.505  22.787  0.00  0.00    -0.488 OA
ATOM     24  C   UNL     1       6.999  -5.808  21.485  0.00  0.00    +0.277 C 
ENDBRANCH  12  23
BRANCH   6  25
ATOM     25  O   UNL     1       9.829  -1.598  24.873  0.00  0.00    -0.506 OA
ATOM     26  H   UNL     1      10.025  -0.644  24.715  0.00  0.00    +0.292 HD
ENDBRANCH   6  25
ENDBRANCH   1   8
BRANCH   1  27
ATOM     27  C   UNL     1       5.369   0.965  27.574  0.00  0.00    +0.339 C 
ATOM     28  O   UNL     1       5.261   1.319  26.185  0.00  0.00    -0.331 OA
ATOM     29  C   UNL     1       6.156   2.350  25.736  0.00  0.00    +0.179 C 
ATOM     30  C   UNL     1       6.122   3.631  26.608  0.00  0.00    +0.177 C 
ATOM     31  C   UNL     1       6.231   3.278  28.094  0.00  0.00    +0.180 C 
ATOM     32  C   UNL     1       5.159   2.229  28.437  0.00  0.00    +0.214 C 
BRANCH  32  33
ATOM     33  O   UNL     1       5.144   1.971  29.844  0.00  0.00    -0.383 OA
ATOM     34  H   UNL     1       5.814   2.541  30.263  0.00  0.00    +0.210 HD
ENDBRANCH  32  33
BRANCH  31  35
ATOM     35  O   UNL     1       7.568   2.858  28.391  0.00  0.00    -0.386 OA
ATOM     36  H   UNL     1       8.167   3.245  27.726  0.00  0.00    +0.210 HD
ENDBRANCH  31  35
BRANCH  30  37
ATOM     37  O   UNL     1       4.908   4.365  26.396  0.00  0.00    -0.386 OA
ATOM     38  H   UNL     1       4.389   4.306  27.219  0.00  0.00    +0.210 HD
ENDBRANCH  30  37
BRANCH  29  39
ATOM     39  C   UNL     1       5.783   2.680  24.283  0.00  0.00    +0.197 C 
BRANCH  39  40
ATOM     40  O   UNL     1       6.709   3.623  23.730  0.00  0.00    -0.346 OA
BRANCH  40  41
ATOM     41  C   UNL     1       7.648   2.963  22.883  0.00  0.00    +0.282 C 
ATOM     42  O   UNL     1       7.438   1.550  22.843  0.00  0.00    -0.341 OA
ATOM     43  C   UNL     1       8.718   0.892  22.937  0.00  0.00    +0.178 C 
ATOM     44  C   UNL     1       9.795   1.982  22.830  0.00  0.00    +0.179 C 
ATOM     45  C   UNL     1       9.076   3.191  23.400  0.00  0.00    +0.201 C 
BRANCH  45  46
ATOM     46  O   UNL     1       9.126   3.160  24.832  0.00  0.00    -0.384 OA
ATOM     47  H   UNL     1       8.233   3.434  25.125  0.00  0.00    +0.210 HD
ENDBRANCH  45  46
BRANCH  44  48
ATOM     48  O   UNL     1      10.213   2.233  21.485  0.00  0.00    -0.386 OA
ATOM     49  H   UNL     1      11.023   2.764  21.481  0.00  0.00    +0.210 HD
ENDBRANCH  44  48
BRANCH  43  50
ATOM     50  C   UNL     1       8.800  -0.190  21.854  0.00  0.00    +0.190 C 
BRANCH  50  51
ATOM     51  O   UNL     1       9.962  -1.009  21.999  0.00  0.00    -0.392 OA
ATOM     52  H   UNL     1      10.626  -0.716  21.353  0.00  0.00    +0.210 HD
ENDBRANCH  50  51
ENDBRANCH  43  50
ENDBRANCH  40  41
ENDBRANCH  39  40
ENDBRANCH  29  39
ENDBRANCH   1  27
TORSDOF 17
ENDMDL
MODEL 7
REMARK VINA RESULT:      -6.6      2.412      8.486
REMARK  Name = 
REMARK  19 active torsions:
REMARK  status: ('A' for Active; 'I' for Inactive)
REMARK    1  A    between atoms: C_1  and  O_2
REMARK    2  A    between atoms: O_2  and  C_3
REMARK    3  A    between atoms: C_4  and  O_50
REMARK    4  A    between atoms: C_6  and  C_9
REMARK    5  A    between atoms: C_10  and  O_48
REMARK    6  A    between atoms: C_14  and  O_47
REMARK    7  A    between atoms: C_16  and  O_20
REMARK    8  A    between atoms: O_20  and  C_21
REMARK    9  A    between atoms: C_23  and  O_46
REMARK   10  A    between atoms: C_24  and  O_45
REMARK   11  A    between atoms: C_26  and  O_44
REMARK   12  A    between atoms: C_28  and  C_30
REMARK   13  A    between atoms: C_30  and  O_31
REMARK   14  A    between atoms: O_31  and  C_32
REMARK   15  A    between atoms: C_34  and  O_43
REMARK   16  A    between atoms: C_36  and  O_42
REMARK   17  A    between atoms: C_37  and  C_40
REMARK   18  A    between atoms: C_40  and  O_41
REMARK   19  A    between atoms: O_48  and  C_49
REMARK                            x       y       z     vdW  Elec       q    Type
REMARK                         _______ _______ _______ _____ _____    ______ ____
ROOT
ATOM      1  O   UNL     1       6.645   2.233  22.771  0.00  0.00    -0.461 OA
ENDROOT
BRANCH   1   8
ATOM      2  C   UNL     1       7.059  -3.670  24.164  0.00  0.00    +0.181 A 
ATOM      3  O   UNL     1       6.449  -2.406  23.979  0.00  0.00    -0.451 OA
ATOM      4  C   UNL     1       7.207  -1.300  23.679  0.00  0.00    +0.147 A 
ATOM      5  C   UNL     1       8.586  -1.366  23.602  0.00  0.00    +0.109 A 
ATOM      6  C   UNL     1       9.343  -0.225  23.311  0.00  0.00    +0.135 A 
ATOM      7  C   UNL     1       8.725   0.998  23.084  0.00  0.00    +0.092 A 
ATOM      8  C   UNL     1       7.333   1.077  23.077  0.00  0.00    +0.131 A 
ATOM      9  C   UNL     1       9.230  -2.648  23.806  0.00  0.00    +0.238 A 
ATOM     10  O   UNL     1      10.450  -2.708  23.710  0.00  0.00    -0.283 OA
ATOM     11  C   UNL     1       6.580  -0.065  23.420  0.00  0.00    +0.093 A 
ATOM     12  C   UNL     1       8.407  -3.852  24.112  0.00  0.00    +0.211 A 
BRANCH   2  16
ATOM     13  C   UNL     1       4.110  -6.826  24.590  0.00  0.00    +0.161 A 
ATOM     14  C   UNL     1       4.113  -5.992  23.483  0.00  0.00    +0.050 A 
ATOM     15  C   UNL     1       5.019  -4.929  23.413  0.00  0.00    +0.015 A 
ATOM     16  C   UNL     1       6.037  -4.744  24.358  0.00  0.00    +0.025 A 
ATOM     17  C   UNL     1       5.977  -5.544  25.514  0.00  0.00    +0.060 A 
ATOM     18  C   UNL     1       5.001  -6.548  25.628  0.00  0.00    +0.159 A 
BRANCH  18  19
ATOM     19  O   UNL     1       4.925  -7.262  26.795  0.00  0.00    -0.503 OA
ATOM     20  H   UNL     1       3.986  -7.526  26.874  0.00  0.00    +0.292 HD
ENDBRANCH  18  19
BRANCH  13  22
ATOM     21  C   UNL     1       1.874  -7.496  24.908  0.00  0.00    +0.277 C 
ATOM     22  O   UNL     1       3.246  -7.873  24.775  0.00  0.00    -0.491 OA
ENDBRANCH  13  22
ENDBRANCH   2  16
BRANCH  12  23
ATOM     23  O   UNL     1       9.231  -4.933  24.257  0.00  0.00    -0.488 OA
ATOM     24  C   UNL     1       9.597  -5.703  25.377  0.00  0.00    +0.277 C 
ENDBRANCH  12  23
BRANCH   6  25
ATOM     25  O   UNL     1      10.710  -0.239  23.212  0.00  0.00    -0.506 OA
ATOM     26  H   UNL     1      11.012   0.687  23.049  0.00  0.00    +0.292 HD
ENDBRANCH   6  25
ENDBRANCH   1   8
BRANCH   1  27
ATOM     27  C   UNL     1       6.891   3.379  23.628  0.00  0.00    +0.339 C 
ATOM     28  O   UNL     1       6.219   3.255  24.892  0.00  0.00    -0.331 OA
ATOM     29  C   UNL     1       4.783   3.322  24.841  0.00  0.00    +0.179 C 
ATOM     30  C   UNL     1       4.243   4.558  24.078  0.00  0.00    +0.177 C 
ATOM     31  C   UNL     1       4.948   4.713  22.728  0.00  0.00    +0.180 C 
ATOM     32  C   UNL     1       6.470   4.706  22.958  0.00  0.00    +0.214 C 
BRANCH  32  33
ATOM     33  O   UNL     1       7.161   4.980  21.735  0.00  0.00    -0.383 OA
ATOM     34  H   UNL     1       6.728   5.739  21.307  0.00  0.00    +0.210 HD
ENDBRANCH  32  33
BRANCH  31  35
ATOM     35  O   UNL     1       4.493   3.697  21.828  0.00  0.00    -0.386 OA
ATOM     36  H   UNL     1       4.474   2.848  22.307  0.00  0.00    +0.210 HD
ENDBRANCH  31  35
BRANCH  30  37
ATOM     37  O   UNL     1       4.436   5.758  24.841  0.00  0.00    -0.386 OA
ATOM     38  H   UNL     1       4.795   5.492  25.707  0.00  0.00    +0.210 HD
ENDBRANCH  30  37
BRANCH  29  39
ATOM     39  C   UNL     1       4.273   3.319  26.290  0.00  0.00    +0.197 C 
BRANCH  39  40
ATOM     40  O   UNL     1       4.849   2.230  27.020  0.00  0.00    -0.346 OA
BRANCH  40  41
ATOM     41  C   UNL     1       4.322   0.987  26.562  0.00  0.00    +0.282 C 
ATOM     42  O   UNL     1       3.105   0.640  27.226  0.00  0.00    -0.341 OA
ATOM     43  C   UNL     1       3.152  -0.760  27.572  0.00  0.00    +0.178 C 
ATOM     44  C   UNL     1       4.401  -1.349  26.898  0.00  0.00    +0.179 C 
ATOM     45  C   UNL     1       5.322  -0.145  26.837  0.00  0.00    +0.201 C 
BRANCH  45  46
ATOM     46  O   UNL     1       5.980   0.033  28.099  0.00  0.00    -0.384 OA
ATOM     47  H   UNL     1       6.615   0.765  27.956  0.00  0.00    +0.210 HD
ENDBRANCH  45  46
BRANCH  44  48
ATOM     48  O   UNL     1       4.148  -1.856  25.585  0.00  0.00    -0.386 OA
ATOM     49  H   UNL     1       4.219  -2.822  25.581  0.00  0.00    +0.210 HD
ENDBRANCH  44  48
BRANCH  43  50
ATOM     50  C   UNL     1       1.834  -1.419  27.151  0.00  0.00    +0.190 C 
BRANCH  50  51
ATOM     51  O   UNL     1       0.991  -0.519  26.427  0.00  0.00    -0.392 OA
ATOM     52  H   UNL     1       0.469  -1.035  25.789  0.00  0.00    +0.210 HD
ENDBRANCH  50  51
ENDBRANCH  43  50
ENDBRANCH  40  41
ENDBRANCH  39  40
ENDBRANCH  29  39
ENDBRANCH   1  27
TORSDOF 17
ENDMDL
MODEL 8
REMARK VINA RESULT:      -6.6      2.626      4.937
REMARK  Name = 
REMARK  19 active torsions:
REMARK  status: ('A' for Active; 'I' for Inactive)
REMARK    1  A    between atoms: C_1  and  O_2
REMARK    2  A    between atoms: O_2  and  C_3
REMARK    3  A    between atoms: C_4  and  O_50
REMARK    4  A    between atoms: C_6  and  C_9
REMARK    5  A    between atoms: C_10  and  O_48
REMARK    6  A    between atoms: C_14  and  O_47
REMARK    7  A    between atoms: C_16  and  O_20
REMARK    8  A    between atoms: O_20  and  C_21
REMARK    9  A    between atoms: C_23  and  O_46
REMARK   10  A    between atoms: C_24  and  O_45
REMARK   11  A    between atoms: C_26  and  O_44
REMARK   12  A    between atoms: C_28  and  C_30
REMARK   13  A    between atoms: C_30  and  O_31
REMARK   14  A    between atoms: O_31  and  C_32
REMARK   15  A    between atoms: C_34  and  O_43
REMARK   16  A    between atoms: C_36  and  O_42
REMARK   17  A    between atoms: C_37  and  C_40
REMARK   18  A    between atoms: C_40  and  O_41
REMARK   19  A    between atoms: O_48  and  C_49
REMARK                            x       y       z     vdW  Elec       q    Type
REMARK                         _______ _______ _______ _____ _____    ______ ____
ROOT
ATOM      1  O   UNL     1       2.760  -3.738  25.891  0.00  0.00    -0.461 OA
ENDROOT
BRANCH   1   8
ATOM      2  C   UNL     1       6.945   0.611  26.616  0.00  0.00    +0.181 A 
ATOM      3  O   UNL     1       6.288  -0.488  26.014  0.00  0.00    -0.451 OA
ATOM      4  C   UNL     1       5.234  -1.104  26.645  0.00  0.00    +0.147 A 
ATOM      5  C   UNL     1       4.814  -0.714  27.903  0.00  0.00    +0.109 A 
ATOM      6  C   UNL     1       3.749  -1.364  28.537  0.00  0.00    +0.135 A 
ATOM      7  C   UNL     1       3.083  -2.410  27.912  0.00  0.00    +0.092 A 
ATOM      8  C   UNL     1       3.433  -2.773  26.612  0.00  0.00    +0.131 A 
ATOM      9  C   UNL     1       5.487   0.399  28.543  0.00  0.00    +0.238 A 
ATOM     10  O   UNL     1       5.095   0.759  29.646  0.00  0.00    -0.283 OA
ATOM     11  C   UNL     1       4.539  -2.147  26.001  0.00  0.00    +0.093 A 
ATOM     12  C   UNL     1       6.618   1.080  27.851  0.00  0.00    +0.211 A 
BRANCH   2  16
ATOM     13  C   UNL     1       9.940   2.425  24.050  0.00  0.00    +0.161 A 
ATOM     14  C   UNL     1       8.892   3.170  24.566  0.00  0.00    +0.050 A 
ATOM     15  C   UNL     1       7.894   2.542  25.318  0.00  0.00    +0.015 A 
ATOM     16  C   UNL     1       7.974   1.196  25.702  0.00  0.00    +0.025 A 
ATOM     17  C   UNL     1       8.996   0.432  25.110  0.00  0.00    +0.060 A 
ATOM     18  C   UNL     1       9.942   1.046  24.272  0.00  0.00    +0.159 A 
BRANCH  18  19
ATOM     19  O   UNL     1      10.882   0.262  23.655  0.00  0.00    -0.503 OA
ATOM     20  H   UNL     1      11.501   0.890  23.231  0.00  0.00    +0.292 HD
ENDBRANCH  18  19
BRANCH  13  22
ATOM     21  C   UNL     1      11.215   4.321  23.477  0.00  0.00    +0.277 C 
ATOM     22  O   UNL     1      10.949   2.932  23.275  0.00  0.00    -0.491 OA
ENDBRANCH  13  22
ENDBRANCH   2  16
BRANCH  12  23
ATOM     23  O   UNL     1       7.083   2.092  28.643  0.00  0.00    -0.488 OA
ATOM     24  C   UNL     1       6.852   3.481  28.641  0.00  0.00    +0.277 C 
ENDBRANCH  12  23
BRANCH   6  25
ATOM     25  O   UNL     1       3.286  -1.009  29.778  0.00  0.00    -0.506 OA
ATOM     26  H   UNL     1       2.639  -0.274  29.661  0.00  0.00    +0.292 HD
ENDBRANCH   6  25
ENDBRANCH   1   8
BRANCH   1  27
ATOM     27  C   UNL     1       3.167  -5.113  26.114  0.00  0.00    +0.339 C 
ATOM     28  O   UNL     1       4.369  -5.439  25.396  0.00  0.00    -0.331 OA
ATOM     29  C   UNL     1       4.245  -5.476  23.964  0.00  0.00    +0.179 C 
ATOM     30  C   UNL     1       3.076  -6.361  23.461  0.00  0.00    +0.177 C 
ATOM     31  C   UNL     1       1.785  -6.035  24.216  0.00  0.00    +0.180 C 
ATOM     32  C   UNL     1       2.058  -6.117  25.729  0.00  0.00    +0.214 C 
BRANCH  32  33
ATOM     33  O   UNL     1       0.844  -5.947  26.466  0.00  0.00    -0.383 OA
ATOM     34  H   UNL     1       0.551  -5.025  26.356  0.00  0.00    +0.210 HD
ENDBRANCH  32  33
BRANCH  31  35
ATOM     35  O   UNL     1       1.285  -4.765  23.786  0.00  0.00    -0.386 OA
ATOM     36  H   UNL     1       0.311  -4.812  23.755  0.00  0.00    +0.210 HD
ENDBRANCH  31  35
BRANCH  30  37
ATOM     37  O   UNL     1       3.375  -7.754  23.636  0.00  0.00    -0.386 OA
ATOM     38  H   UNL     1       2.641  -8.257  23.237  0.00  0.00    +0.210 HD
ENDBRANCH  30  37
BRANCH  29  39
ATOM     39  C   UNL     1       5.582  -5.980  23.402  0.00  0.00    +0.197 C 
BRANCH  39  40
ATOM     40  O   UNL     1       6.269  -4.924  22.721  0.00  0.00    -0.346 OA
BRANCH  40  41
ATOM     41  C   UNL     1       7.535  -4.677  23.330  0.00  0.00    +0.282 C 
ATOM     42  O   UNL     1       7.557  -5.067  24.704  0.00  0.00    -0.341 OA
ATOM     43  C   UNL     1       8.221  -4.036  25.465  0.00  0.00    +0.178 C 
ATOM     44  C   UNL     1       8.816  -3.043  24.454  0.00  0.00    +0.179 C 
ATOM     45  C   UNL     1       7.861  -3.178  23.283  0.00  0.00    +0.201 C 
BRANCH  45  46
ATOM     46  O   UNL     1       6.692  -2.380  23.509  0.00  0.00    -0.384 OA
ATOM     47  H   UNL     1       6.938  -1.763  24.228  0.00  0.00    +0.210 HD
ENDBRANCH  45  46
BRANCH  44  48
ATOM     48  O   UNL     1      10.150  -3.374  24.057  0.00  0.00    -0.386 OA
ATOM     49  H   UNL     1      10.744  -3.338  24.822  0.00  0.00    +0.210 HD
ENDBRANCH  44  48
BRANCH  43  50
ATOM     50  C   UNL     1       9.250  -4.691  26.393  0.00  0.00    +0.190 C 
BRANCH  50  51
ATOM     51  O   UNL     1      10.085  -5.620  25.699  0.00  0.00    -0.392 OA
ATOM     52  H   UNL     1      10.538  -5.147  24.981  0.00  0.00    +0.210 HD
ENDBRANCH  50  51
ENDBRANCH  43  50
ENDBRANCH  40  41
ENDBRANCH  39  40
ENDBRANCH  29  39
ENDBRANCH   1  27
TORSDOF 17
ENDMDL
MODEL 9
REMARK VINA RESULT:      -6.6      2.629      5.931
REMARK  Name = 
REMARK  19 active torsions:
REMARK  status: ('A' for Active; 'I' for Inactive)
REMARK    1  A    between atoms: C_1  and  O_2
REMARK    2  A    between atoms: O_2  and  C_3
REMARK    3  A    between atoms: C_4  and  O_50
REMARK    4  A    between atoms: C_6  and  C_9
REMARK    5  A    between atoms: C_10  and  O_48
REMARK    6  A    between atoms: C_14  and  O_47
REMARK    7  A    between atoms: C_16  and  O_20
REMARK    8  A    between atoms: O_20  and  C_21
REMARK    9  A    between atoms: C_23  and  O_46
REMARK   10  A    between atoms: C_24  and  O_45
REMARK   11  A    between atoms: C_26  and  O_44
REMARK   12  A    between atoms: C_28  and  C_30
REMARK   13  A    between atoms: C_30  and  O_31
REMARK   14  A    between atoms: O_31  and  C_32
REMARK   15  A    between atoms: C_34  and  O_43
REMARK   16  A    between atoms: C_36  and  O_42
REMARK   17  A    between atoms: C_37  and  C_40
REMARK   18  A    between atoms: C_40  and  O_41
REMARK   19  A    between atoms: O_48  and  C_49
REMARK                            x       y       z     vdW  Elec       q    Type
REMARK                         _______ _______ _______ _____ _____    ______ ____
ROOT
ATOM      1  O   UNL     1       6.142  -3.344  26.190  0.00  0.00    -0.461 OA
ENDROOT
BRANCH   1   8
ATOM      2  C   UNL     1       5.917   2.718  25.795  0.00  0.00    +0.181 A 
ATOM      3  O   UNL     1       6.482   1.421  25.748  0.00  0.00    -0.451 OA
ATOM      4  C   UNL     1       5.757   0.327  26.154  0.00  0.00    +0.147 A 
ATOM      5  C   UNL     1       4.481   0.453  26.670  0.00  0.00    +0.109 A 
ATOM      6  C   UNL     1       3.764  -0.671  27.093  0.00  0.00    +0.135 A 
ATOM      7  C   UNL     1       4.315  -1.942  26.996  0.00  0.00    +0.092 A 
ATOM      8  C   UNL     1       5.568  -2.108  26.406  0.00  0.00    +0.131 A 
ATOM      9  C   UNL     1       3.892   1.776  26.742  0.00  0.00    +0.238 A 
ATOM     10  O   UNL     1       2.751   1.881  27.174  0.00  0.00    -0.283 OA
ATOM     11  C   UNL     1       6.304  -0.966  26.029  0.00  0.00    +0.093 A 
ATOM     12  C   UNL     1       4.671   2.962  26.284  0.00  0.00    +0.211 A 
BRANCH   2  16
ATOM     13  C   UNL     1       8.688   5.618  24.136  0.00  0.00    +0.161 A 
ATOM     14  C   UNL     1       8.626   5.385  25.500  0.00  0.00    +0.050 A 
ATOM     15  C   UNL     1       7.664   4.510  26.015  0.00  0.00    +0.015 A 
ATOM     16  C   UNL     1       6.835   3.734  25.194  0.00  0.00    +0.025 A 
ATOM     17  C   UNL     1       6.851   4.034  23.820  0.00  0.00    +0.060 A 
ATOM     18  C   UNL     1       7.750   4.988  23.315  0.00  0.00    +0.159 A 
BRANCH  18  19
ATOM     19  O   UNL     1       7.692   5.309  21.984  0.00  0.00    -0.503 OA
ATOM     20  H   UNL     1       7.045   6.041  21.924  0.00  0.00    +0.292 HD
ENDBRANCH  18  19
BRANCH  13  22
ATOM     21  C   UNL     1      10.937   6.085  23.614  0.00  0.00    +0.277 C 
ATOM     22  O   UNL     1       9.566   6.479  23.531  0.00  0.00    -0.491 OA
ENDBRANCH  13  22
ENDBRANCH   2  16
BRANCH  12  23
ATOM     23  O   UNL     1       3.910   4.086  26.444  0.00  0.00    -0.488 OA
ATOM     24  C   UNL     1       3.348   4.990  25.523  0.00  0.00    +0.277 C 
ENDBRANCH  12  23
BRANCH   6  25
ATOM     25  O   UNL     1       2.492  -0.602  27.601  0.00  0.00    -0.506 OA
ATOM     26  H   UNL     1       2.507  -0.987  28.509  0.00  0.00    +0.292 HD
ENDBRANCH   6  25
ENDBRANCH   1   8
BRANCH   1  27
ATOM     27  C   UNL     1       7.468  -3.547  26.746  0.00  0.00    +0.339 C 
ATOM     28  O   UNL     1       8.475  -2.847  25.997  0.00  0.00    -0.331 OA
ATOM     29  C   UNL     1       8.715  -3.341  24.668  0.00  0.00    +0.179 C 
ATOM     30  C   UNL     1       8.982  -4.866  24.607  0.00  0.00    +0.177 C 
ATOM     31  C   UNL     1       7.923  -5.633  25.404  0.00  0.00    +0.180 C 
ATOM     32  C   UNL     1       7.843  -5.044  26.823  0.00  0.00    +0.214 C 
BRANCH  32  33
ATOM     33  O   UNL     1       6.958  -5.819  27.637  0.00  0.00    -0.383 OA
ATOM     34  H   UNL     1       7.342  -6.709  27.738  0.00  0.00    +0.210 HD
ENDBRANCH  32  33
BRANCH  31  35
ATOM     35  O   UNL     1       6.679  -5.611  24.695  0.00  0.00    -0.386 OA
ATOM     36  H   UNL     1       6.218  -4.779  24.911  0.00  0.00    +0.210 HD
ENDBRANCH  31  35
BRANCH  30  37
ATOM     37  O   UNL     1      10.278  -5.182  25.136  0.00  0.00    -0.386 OA
ATOM     38  H   UNL     1      10.137  -5.633  25.989  0.00  0.00    +0.210 HD
ENDBRANCH  30  37
BRANCH  29  39
ATOM     39  C   UNL     1       9.912  -2.563  24.100  0.00  0.00    +0.197 C 
BRANCH  39  40
ATOM     40  O   UNL     1       9.671  -2.201  22.735  0.00  0.00    -0.346 OA
BRANCH  40  41
ATOM     41  C   UNL     1       9.804  -0.792  22.560  0.00  0.00    +0.282 C 
ATOM     42  O   UNL     1      10.070  -0.119  23.793  0.00  0.00    -0.341 OA
ATOM     43  C   UNL     1       9.255   1.071  23.853  0.00  0.00    +0.178 C 
ATOM     44  C   UNL     1       8.595   1.235  22.475  0.00  0.00    +0.179 C 
ATOM     45  C   UNL     1       8.503  -0.203  21.999  0.00  0.00    +0.201 C 
BRANCH  45  46
ATOM     46  O   UNL     1       7.351  -0.836  22.571  0.00  0.00    -0.384 OA
ATOM     47  H   UNL     1       6.821  -1.144  21.808  0.00  0.00    +0.210 HD
ENDBRANCH  45  46
BRANCH  44  48
ATOM     48  O   UNL     1       9.374   2.017  21.566  0.00  0.00    -0.386 OA
ATOM     49  H   UNL     1       9.738   2.792  22.020  0.00  0.00    +0.210 HD
ENDBRANCH  44  48
BRANCH  43  50
ATOM     50  C   UNL     1      10.135   2.251  24.280  0.00  0.00    +0.190 C 
BRANCH  50  51
ATOM     51  O   UNL     1      11.285   2.395  23.443  0.00  0.00    -0.392 OA
ATOM     52  H   UNL     1      11.014   2.848  22.627  0.00  0.00    +0.210 HD
ENDBRANCH  50  51
ENDBRANCH  43  50
ENDBRANCH  40  41
ENDBRANCH  39  40
ENDBRANCH  29  39
ENDBRANCH   1  27
TORSDOF 17
ENDMDL
