MODEL 1
REMARK VINA RESULT:      -7.7      0.000      0.000
REMARK  Name = 
REMARK  12 active torsions:
REMARK  status: ('A' for Active; 'I' for Inactive)
REMARK    1  A    between atoms: C_2  and  O_37
REMARK    2  A    between atoms: C_3  and  O_36
REMARK    3  A    between atoms: C_5  and  O_35
REMARK    4  A    between atoms: C_6  and  O_9
REMARK    5  A    between atoms: O_9  and  C_10
REMARK    6  A    between atoms: C_12  and  O_34
REMARK    7  A    between atoms: C_17  and  C_26
REMARK    8  A    between atoms: C_18  and  O_21
REMARK    9  A    between atoms: O_21  and  S_22
REMARK   10  A    between atoms: S_22  and  O_25
REMARK   11  A    between atoms: C_28  and  O_33
REMARK   12  A    between atoms: C_29  and  O_32
REMARK                            x       y       z     vdW  Elec       q    Type
REMARK                         _______ _______ _______ _____ _____    ______ ____
ROOT
ATOM      1  C   UNL     1       9.714   0.034  24.359  0.00  0.00    +0.131 A 
ATOM      2  C   UNL     1       9.003  -0.694  25.313  0.00  0.00    +0.093 A 
ATOM      3  C   UNL     1       8.397  -1.908  24.955  0.00  0.00    +0.147 A 
ATOM      4  O   UNL     1       7.694  -2.566  25.935  0.00  0.00    -0.451 OA
ATOM      5  C   UNL     1       7.065  -3.763  25.623  0.00  0.00    +0.184 A 
ATOM      6  C   UNL     1       7.062  -4.340  24.405  0.00  0.00    +0.248 A 
ATOM      7  C   UNL     1       7.762  -3.620  23.304  0.00  0.00    +0.241 A 
ATOM      8  O   UNL     1       7.650  -4.009  22.145  0.00  0.00    -0.283 OA
ATOM      9  C   UNL     1       8.498  -2.391  23.650  0.00  0.00    +0.109 A 
ATOM     10  C   UNL     1       9.232  -1.663  22.705  0.00  0.00    +0.135 A 
ATOM     11  C   UNL     1       9.825  -0.453  23.057  0.00  0.00    +0.092 A 
ENDROOT
BRANCH   5  12
ATOM     12  C   UNL     1       6.385  -4.365  26.786  0.00  0.00    +0.025 A 
ATOM     13  C   UNL     1       5.155  -3.844  27.228  0.00  0.00    +0.015 A 
ATOM     14  C   UNL     1       4.463  -4.443  28.286  0.00  0.00    +0.050 A 
ATOM     15  C   UNL     1       5.002  -5.562  28.902  0.00  0.00    +0.158 A 
ATOM     16  C   UNL     1       6.225  -6.081  28.486  0.00  0.00    +0.159 A 
ATOM     17  C   UNL     1       6.926  -5.489  27.435  0.00  0.00    +0.060 A 
BRANCH  15  18
ATOM     18  O   UNL     1       4.311  -6.162  29.917  0.00  0.00    -0.503 OA
ATOM     19  H   UNL     1       3.504  -6.517  29.494  0.00  0.00    +0.292 HD
ENDBRANCH  15  18
BRANCH  16  20
ATOM     20  O   UNL     1       6.688  -7.190  29.141  0.00  0.00    -0.503 OA
ATOM     21  H   UNL     1       7.142  -6.904  29.952  0.00  0.00    +0.292 HD
ENDBRANCH  16  20
ENDBRANCH   5  12
BRANCH  10  22
ATOM     22  O   UNL     1       9.378  -2.117  21.425  0.00  0.00    -0.506 OA
ATOM     23  H   UNL     1       9.498  -3.081  21.418  0.00  0.00    +0.292 HD
ENDBRANCH  10  22
BRANCH   1  24
ATOM     24  O   UNL     1      10.287   1.259  24.541  0.00  0.00    -0.461 OA
BRANCH  24  27
ATOM     25  C   UNL     1       7.318   3.224  23.797  0.00  0.00    +0.198 C 
ATOM     26  O   UNL     1       8.200   2.102  23.858  0.00  0.00    -0.337 OA
ATOM     27  C   UNL     1       9.435   2.407  24.523  0.00  0.00    +0.339 C 
ATOM     28  C   UNL     1      10.181   3.510  23.729  0.00  0.00    +0.214 C 
ATOM     29  C   UNL     1       9.290   4.757  23.676  0.00  0.00    +0.180 C 
ATOM     30  C   UNL     1       7.936   4.406  23.044  0.00  0.00    +0.171 C 
BRANCH  28  31
ATOM     31  O   UNL     1      10.474   3.061  22.387  0.00  0.00    -0.383 OA
ATOM     32  H   UNL     1      11.441   3.095  22.271  0.00  0.00    +0.210 HD
ENDBRANCH  28  31
BRANCH  29  33
ATOM     33  O   UNL     1       9.918   5.826  22.964  0.00  0.00    -0.386 OA
ATOM     34  H   UNL     1       9.229   6.251  22.419  0.00  0.00    +0.210 HD
ENDBRANCH  29  33
BRANCH  30  35
ATOM     35  O   UNL     1       7.080   5.552  23.063  0.00  0.00    -0.387 OA
ATOM     36  H   UNL     1       6.203   5.301  22.727  0.00  0.00    +0.210 HD
ENDBRANCH  30  35
ENDBRANCH  24  27
ENDBRANCH   1  24
BRANCH   6  37
ATOM     37  O   UNL     1       6.365  -5.516  24.152  0.00  0.00    -0.317 OA
BRANCH  37  38
ATOM     38  S   UNL     1       4.888  -5.575  23.450  0.00  0.00    +0.252 S 
ATOM     39  O   UNL     1       4.323  -4.245  23.516  0.00  0.00    -0.108 OA
ATOM     40  O   UNL     1       4.165  -6.709  23.987  0.00  0.00    -0.108 OA
BRANCH  38  41
ATOM     41  O   UNL     1       5.182  -5.881  21.891  0.00  0.00    -0.222 OA
ATOM     42  H   UNL     1       5.035  -6.852  21.752  0.00  0.00    +0.248 HD
ENDBRANCH  38  41
ENDBRANCH  37  38
ENDBRANCH   6  37
TORSDOF 12
ENDMDL
MODEL 2
REMARK VINA RESULT:      -7.4      1.056      1.767
REMARK  Name = 
REMARK  12 active torsions:
REMARK  status: ('A' for Active; 'I' for Inactive)
REMARK    1  A    between atoms: C_2  and  O_37
REMARK    2  A    between atoms: C_3  and  O_36
REMARK    3  A    between atoms: C_5  and  O_35
REMARK    4  A    between atoms: C_6  and  O_9
REMARK    5  A    between atoms: O_9  and  C_10
REMARK    6  A    between atoms: C_12  and  O_34
REMARK    7  A    between atoms: C_17  and  C_26
REMARK    8  A    between atoms: C_18  and  O_21
REMARK    9  A    between atoms: O_21  and  S_22
REMARK   10  A    between atoms: S_22  and  O_25
REMARK   11  A    between atoms: C_28  and  O_33
REMARK   12  A    between atoms: C_29  and  O_32
REMARK                            x       y       z     vdW  Elec       q    Type
REMARK                         _______ _______ _______ _____ _____    ______ ____
ROOT
ATOM      1  C   UNL     1       9.007   0.772  24.473  0.00  0.00    +0.131 A 
ATOM      2  C   UNL     1       8.317  -0.132  25.281  0.00  0.00    +0.093 A 
ATOM      3  C   UNL     1       8.006  -1.409  24.790  0.00  0.00    +0.147 A 
ATOM      4  O   UNL     1       7.306  -2.244  25.628  0.00  0.00    -0.451 OA
ATOM      5  C   UNL     1       6.963  -3.513  25.180  0.00  0.00    +0.184 A 
ATOM      6  C   UNL     1       7.242  -4.001  23.956  0.00  0.00    +0.248 A 
ATOM      7  C   UNL     1       7.944  -3.099  23.001  0.00  0.00    +0.241 A 
ATOM      8  O   UNL     1       8.073  -3.426  21.825  0.00  0.00    -0.283 OA
ATOM      9  C   UNL     1       8.381  -1.782  23.500  0.00  0.00    +0.109 A 
ATOM     10  C   UNL     1       9.092  -0.875  22.704  0.00  0.00    +0.135 A 
ATOM     11  C   UNL     1       9.391   0.397  23.185  0.00  0.00    +0.092 A 
ENDROOT
BRANCH   5  12
ATOM     12  C   UNL     1       6.249  -4.300  26.204  0.00  0.00    +0.025 A 
ATOM     13  C   UNL     1       4.843  -4.327  26.215  0.00  0.00    +0.015 A 
ATOM     14  C   UNL     1       4.150  -5.121  27.136  0.00  0.00    +0.050 A 
ATOM     15  C   UNL     1       4.864  -5.886  28.045  0.00  0.00    +0.158 A 
ATOM     16  C   UNL     1       6.256  -5.858  28.057  0.00  0.00    +0.159 A 
ATOM     17  C   UNL     1       6.957  -5.067  27.146  0.00  0.00    +0.060 A 
BRANCH  15  18
ATOM     18  O   UNL     1       4.186  -6.681  28.924  0.00  0.00    -0.503 OA
ATOM     19  H   UNL     1       4.172  -7.564  28.503  0.00  0.00    +0.292 HD
ENDBRANCH  15  18
BRANCH  16  20
ATOM     20  O   UNL     1       6.889  -6.645  28.982  0.00  0.00    -0.503 OA
ATOM     21  H   UNL     1       7.297  -7.397  28.520  0.00  0.00    +0.292 HD
ENDBRANCH  16  20
ENDBRANCH   5  12
BRANCH  10  22
ATOM     22  O   UNL     1       9.501  -1.213  21.445  0.00  0.00    -0.506 OA
ATOM     23  H   UNL     1      10.438  -0.990  21.322  0.00  0.00    +0.292 HD
ENDBRANCH  10  22
BRANCH   1  24
ATOM     24  O   UNL     1       9.309   2.065  24.783  0.00  0.00    -0.461 OA
BRANCH  24  27
ATOM     25  C   UNL     1       9.348   5.381  23.288  0.00  0.00    +0.198 C 
ATOM     26  O   UNL     1       9.517   4.350  24.262  0.00  0.00    -0.337 OA
ATOM     27  C   UNL     1       9.141   3.056  23.766  0.00  0.00    +0.339 C 
ATOM     28  C   UNL     1       7.634   3.071  23.397  0.00  0.00    +0.214 C 
ATOM     29  C   UNL     1       7.410   4.135  22.316  0.00  0.00    +0.180 C 
ATOM     30  C   UNL     1       7.896   5.502  22.817  0.00  0.00    +0.171 C 
BRANCH  28  31
ATOM     31  O   UNL     1       6.829   3.377  24.557  0.00  0.00    -0.383 OA
ATOM     32  H   UNL     1       5.912   3.507  24.252  0.00  0.00    +0.210 HD
ENDBRANCH  28  31
BRANCH  29  33
ATOM     33  O   UNL     1       6.039   4.202  21.915  0.00  0.00    -0.386 OA
ATOM     34  H   UNL     1       5.738   5.116  22.076  0.00  0.00    +0.210 HD
ENDBRANCH  29  33
BRANCH  30  35
ATOM     35  O   UNL     1       7.754   6.477  21.781  0.00  0.00    -0.387 OA
ATOM     36  H   UNL     1       7.018   6.220  21.199  0.00  0.00    +0.210 HD
ENDBRANCH  30  35
ENDBRANCH  24  27
ENDBRANCH   1  24
BRANCH   6  37
ATOM     37  O   UNL     1       6.821  -5.265  23.558  0.00  0.00    -0.317 OA
BRANCH  37  38
ATOM     38  S   UNL     1       5.526  -5.540  22.595  0.00  0.00    +0.252 S 
ATOM     39  O   UNL     1       6.021  -6.062  21.340  0.00  0.00    -0.108 OA
ATOM     40  O   UNL     1       4.674  -4.369  22.619  0.00  0.00    -0.108 OA
BRANCH  38  41
ATOM     41  O   UNL     1       4.720  -6.741  23.316  0.00  0.00    -0.222 OA
ATOM     42  H   UNL     1       5.396  -7.382  23.656  0.00  0.00    +0.248 HD
ENDBRANCH  38  41
ENDBRANCH  37  38
ENDBRANCH   6  37
TORSDOF 12
ENDMDL
MODEL 3
REMARK VINA RESULT:      -7.3      0.855      1.493
REMARK  Name = 
REMARK  12 active torsions:
REMARK  status: ('A' for Active; 'I' for Inactive)
REMARK    1  A    between atoms: C_2  and  O_37
REMARK    2  A    between atoms: C_3  and  O_36
REMARK    3  A    between atoms: C_5  and  O_35
REMARK    4  A    between atoms: C_6  and  O_9
REMARK    5  A    between atoms: O_9  and  C_10
REMARK    6  A    between atoms: C_12  and  O_34
REMARK    7  A    between atoms: C_17  and  C_26
REMARK    8  A    between atoms: C_18  and  O_21
REMARK    9  A    between atoms: O_21  and  S_22
REMARK   10  A    between atoms: S_22  and  O_25
REMARK   11  A    between atoms: C_28  and  O_33
REMARK   12  A    between atoms: C_29  and  O_32
REMARK                            x       y       z     vdW  Elec       q    Type
REMARK                         _______ _______ _______ _____ _____    ______ ____
ROOT
ATOM      1  C   UNL     1       9.217   0.425  24.508  0.00  0.00    +0.131 A 
ATOM      2  C   UNL     1       8.489  -0.441  25.324  0.00  0.00    +0.093 A 
ATOM      3  C   UNL     1       8.095  -1.695  24.833  0.00  0.00    +0.147 A 
ATOM      4  O   UNL     1       7.362  -2.492  25.679  0.00  0.00    -0.451 OA
ATOM      5  C   UNL     1       6.936  -3.735  25.231  0.00  0.00    +0.184 A 
ATOM      6  C   UNL     1       7.163  -4.232  24.000  0.00  0.00    +0.248 A 
ATOM      7  C   UNL     1       7.900  -3.366  23.036  0.00  0.00    +0.241 A 
ATOM      8  O   UNL     1       7.988  -3.694  21.857  0.00  0.00    -0.283 OA
ATOM      9  C   UNL     1       8.423  -2.081  23.534  0.00  0.00    +0.109 A 
ATOM     10  C   UNL     1       9.172  -1.213  22.730  0.00  0.00    +0.135 A 
ATOM     11  C   UNL     1       9.555   0.036  23.212  0.00  0.00    +0.092 A 
ENDROOT
BRANCH   5  12
ATOM     12  C   UNL     1       6.196  -4.485  26.264  0.00  0.00    +0.025 A 
ATOM     13  C   UNL     1       6.898  -5.205  27.248  0.00  0.00    +0.015 A 
ATOM     14  C   UNL     1       6.215  -5.866  28.275  0.00  0.00    +0.050 A 
ATOM     15  C   UNL     1       4.831  -5.807  28.317  0.00  0.00    +0.158 A 
ATOM     16  C   UNL     1       4.121  -5.111  27.343  0.00  0.00    +0.159 A 
ATOM     17  C   UNL     1       4.791  -4.451  26.311  0.00  0.00    +0.060 A 
BRANCH  15  18
ATOM     18  O   UNL     1       4.168  -6.429  29.336  0.00  0.00    -0.503 OA
ATOM     19  H   UNL     1       4.146  -5.771  30.059  0.00  0.00    +0.292 HD
ENDBRANCH  15  18
BRANCH  16  20
ATOM     20  O   UNL     1       2.756  -5.094  27.455  0.00  0.00    -0.503 OA
ATOM     21  H   UNL     1       2.497  -4.299  27.952  0.00  0.00    +0.292 HD
ENDBRANCH  16  20
ENDBRANCH   5  12
BRANCH  10  22
ATOM     22  O   UNL     1       9.538  -1.566  21.462  0.00  0.00    -0.506 OA
ATOM     23  H   UNL     1      10.486  -1.773  21.427  0.00  0.00    +0.292 HD
ENDBRANCH  10  22
BRANCH   1  24
ATOM     24  O   UNL     1       9.601   1.697  24.820  0.00  0.00    -0.461 OA
BRANCH  24  27
ATOM     25  C   UNL     1       6.809   3.352  23.179  0.00  0.00    +0.198 C 
ATOM     26  O   UNL     1       7.713   2.314  23.561  0.00  0.00    -0.337 OA
ATOM     27  C   UNL     1       8.712   2.766  24.486  0.00  0.00    +0.339 C 
ATOM     28  C   UNL     1       9.568   3.869  23.811  0.00  0.00    +0.214 C 
ATOM     29  C   UNL     1       8.645   5.031  23.424  0.00  0.00    +0.180 C 
ATOM     30  C   UNL     1       7.525   4.526  22.505  0.00  0.00    +0.171 C 
BRANCH  28  31
ATOM     31  O   UNL     1      10.225   3.354  22.632  0.00  0.00    -0.383 OA
ATOM     32  H   UNL     1      10.389   4.107  22.035  0.00  0.00    +0.210 HD
ENDBRANCH  28  31
BRANCH  29  33
ATOM     33  O   UNL     1       9.367   6.096  22.802  0.00  0.00    -0.386 OA
ATOM     34  H   UNL     1       8.834   6.907  22.911  0.00  0.00    +0.210 HD
ENDBRANCH  29  33
BRANCH  30  35
ATOM     35  O   UNL     1       6.624   5.595  22.205  0.00  0.00    -0.387 OA
ATOM     36  H   UNL     1       5.810   5.228  21.818  0.00  0.00    +0.210 HD
ENDBRANCH  30  35
ENDBRANCH  24  27
ENDBRANCH   1  24
BRANCH   6  37
ATOM     37  O   UNL     1       6.661  -5.466  23.603  0.00  0.00    -0.317 OA
BRANCH  37  38
ATOM     38  S   UNL     1       5.355  -5.657  22.635  0.00  0.00    +0.252 S 
ATOM     39  O   UNL     1       5.826  -6.168  21.366  0.00  0.00    -0.108 OA
ATOM     40  O   UNL     1       4.557  -4.450  22.691  0.00  0.00    -0.108 OA
BRANCH  38  41
ATOM     41  O   UNL     1       4.496  -6.839  23.325  0.00  0.00    -0.222 OA
ATOM     42  H   UNL     1       5.063  -7.652  23.319  0.00  0.00    +0.248 HD
ENDBRANCH  38  41
ENDBRANCH  37  38
ENDBRANCH   6  37
TORSDOF 12
ENDMDL
MODEL 4
REMARK VINA RESULT:      -7.2      2.772      4.089
REMARK  Name = 
REMARK  12 active torsions:
REMARK  status: ('A' for Active; 'I' for Inactive)
REMARK    1  A    between atoms: C_2  and  O_37
REMARK    2  A    between atoms: C_3  and  O_36
REMARK    3  A    between atoms: C_5  and  O_35
REMARK    4  A    between atoms: C_6  and  O_9
REMARK    5  A    between atoms: O_9  and  C_10
REMARK    6  A    between atoms: C_12  and  O_34
REMARK    7  A    between atoms: C_17  and  C_26
REMARK    8  A    between atoms: C_18  and  O_21
REMARK    9  A    between atoms: O_21  and  S_22
REMARK   10  A    between atoms: S_22  and  O_25
REMARK   11  A    between atoms: C_28  and  O_33
REMARK   12  A    between atoms: C_29  and  O_32
REMARK                            x       y       z     vdW  Elec       q    Type
REMARK                         _______ _______ _______ _____ _____    ______ ____
ROOT
ATOM      1  C   UNL     1       7.822  -1.462  23.589  0.00  0.00    +0.131 A 
ATOM      2  C   UNL     1       6.775  -2.359  23.379  0.00  0.00    +0.093 A 
ATOM      3  C   UNL     1       6.547  -3.393  24.300  0.00  0.00    +0.147 A 
ATOM      4  O   UNL     1       5.513  -4.255  24.025  0.00  0.00    -0.451 OA
ATOM      5  C   UNL     1       5.259  -5.303  24.900  0.00  0.00    +0.184 A 
ATOM      6  C   UNL     1       5.972  -5.570  26.011  0.00  0.00    +0.248 A 
ATOM      7  C   UNL     1       7.140  -4.692  26.305  0.00  0.00    +0.241 A 
ATOM      8  O   UNL     1       7.921  -4.987  27.204  0.00  0.00    -0.283 OA
ATOM      9  C   UNL     1       7.362  -3.532  25.423  0.00  0.00    +0.109 A 
ATOM     10  C   UNL     1       8.398  -2.614  25.636  0.00  0.00    +0.135 A 
ATOM     11  C   UNL     1       8.632  -1.594  24.717  0.00  0.00    +0.092 A 
ENDROOT
BRANCH   5  12
ATOM     12  C   UNL     1       4.098  -6.115  24.488  0.00  0.00    +0.025 A 
ATOM     13  C   UNL     1       3.284  -5.687  23.424  0.00  0.00    +0.015 A 
ATOM     14  C   UNL     1       2.220  -6.477  22.975  0.00  0.00    +0.050 A 
ATOM     15  C   UNL     1       1.969  -7.692  23.591  0.00  0.00    +0.158 A 
ATOM     16  C   UNL     1       2.757  -8.123  24.656  0.00  0.00    +0.159 A 
ATOM     17  C   UNL     1       3.819  -7.342  25.114  0.00  0.00    +0.060 A 
BRANCH  15  18
ATOM     18  O   UNL     1       0.947  -8.474  23.134  0.00  0.00    -0.503 OA
ATOM     19  H   UNL     1       1.227  -8.753  22.239  0.00  0.00    +0.292 HD
ENDBRANCH  15  18
BRANCH  16  20
ATOM     20  O   UNL     1       2.451  -9.338  25.209  0.00  0.00    -0.503 OA
ATOM     21  H   UNL     1       3.044  -9.491  25.964  0.00  0.00    +0.292 HD
ENDBRANCH  16  20
ENDBRANCH   5  12
BRANCH  10  22
ATOM     22  O   UNL     1       9.200  -2.700  26.739  0.00  0.00    -0.506 OA
ATOM     23  H   UNL     1      10.061  -2.287  26.564  0.00  0.00    +0.292 HD
ENDBRANCH  10  22
BRANCH   1  24
ATOM     24  O   UNL     1       8.209  -0.461  22.746  0.00  0.00    -0.461 OA
BRANCH  24  27
ATOM     25  C   UNL     1       6.311   2.626  22.438  0.00  0.00    +0.198 C 
ATOM     26  O   UNL     1       6.743   1.289  22.180  0.00  0.00    -0.337 OA
ATOM     27  C   UNL     1       7.800   0.873  23.058  0.00  0.00    +0.339 C 
ATOM     28  C   UNL     1       9.034   1.786  22.837  0.00  0.00    +0.214 C 
ATOM     29  C   UNL     1       8.630   3.232  23.149  0.00  0.00    +0.180 C 
ATOM     30  C   UNL     1       7.441   3.645  22.270  0.00  0.00    +0.171 C 
BRANCH  28  31
ATOM     31  O   UNL     1       9.499   1.692  21.473  0.00  0.00    -0.383 OA
ATOM     32  H   UNL     1       9.490   2.592  21.097  0.00  0.00    +0.210 HD
ENDBRANCH  28  31
BRANCH  29  33
ATOM     33  O   UNL     1       9.724   4.136  22.977  0.00  0.00    -0.386 OA
ATOM     34  H   UNL     1      10.530   3.596  22.879  0.00  0.00    +0.210 HD
ENDBRANCH  29  33
BRANCH  30  35
ATOM     35  O   UNL     1       7.020   4.967  22.613  0.00  0.00    -0.387 OA
ATOM     36  H   UNL     1       7.700   5.603  22.331  0.00  0.00    +0.210 HD
ENDBRANCH  30  35
ENDBRANCH  24  27
ENDBRANCH   1  24
BRANCH   6  37
ATOM     37  O   UNL     1       5.692  -6.670  26.815  0.00  0.00    -0.317 OA
BRANCH  37  38
ATOM     38  S   UNL     1       5.333  -6.574  28.409  0.00  0.00    +0.252 S 
ATOM     39  O   UNL     1       4.859  -5.231  28.666  0.00  0.00    -0.108 OA
ATOM     40  O   UNL     1       6.438  -7.121  29.167  0.00  0.00    -0.108 OA
BRANCH  38  41
ATOM     41  O   UNL     1       4.070  -7.562  28.609  0.00  0.00    -0.222 OA
ATOM     42  H   UNL     1       3.931  -8.035  27.749  0.00  0.00    +0.248 HD
ENDBRANCH  38  41
ENDBRANCH  37  38
ENDBRANCH   6  37
TORSDOF 12
ENDMDL
MODEL 5
REMARK VINA RESULT:      -7.2      2.677      9.338
REMARK  Name = 
REMARK  12 active torsions:
REMARK  status: ('A' for Active; 'I' for Inactive)
REMARK    1  A    between atoms: C_2  and  O_37
REMARK    2  A    between atoms: C_3  and  O_36
REMARK    3  A    between atoms: C_5  and  O_35
REMARK    4  A    between atoms: C_6  and  O_9
REMARK    5  A    between atoms: O_9  and  C_10
REMARK    6  A    between atoms: C_12  and  O_34
REMARK    7  A    between atoms: C_17  and  C_26
REMARK    8  A    between atoms: C_18  and  O_21
REMARK    9  A    between atoms: O_21  and  S_22
REMARK   10  A    between atoms: S_22  and  O_25
REMARK   11  A    between atoms: C_28  and  O_33
REMARK   12  A    between atoms: C_29  and  O_32
REMARK                            x       y       z     vdW  Elec       q    Type
REMARK                         _______ _______ _______ _____ _____    ______ ____
ROOT
ATOM      1  C   UNL     1       6.666  -3.067  22.747  0.00  0.00    +0.131 A 
ATOM      2  C   UNL     1       6.253  -1.738  22.846  0.00  0.00    +0.093 A 
ATOM      3  C   UNL     1       7.179  -0.746  23.207  0.00  0.00    +0.147 A 
ATOM      4  O   UNL     1       6.704   0.540  23.309  0.00  0.00    -0.451 OA
ATOM      5  C   UNL     1       7.580   1.552  23.678  0.00  0.00    +0.184 A 
ATOM      6  C   UNL     1       8.881   1.376  23.978  0.00  0.00    +0.248 A 
ATOM      7  C   UNL     1       9.412  -0.016  23.940  0.00  0.00    +0.241 A 
ATOM      8  O   UNL     1      10.538  -0.257  24.364  0.00  0.00    -0.283 OA
ATOM      9  C   UNL     1       8.506  -1.080  23.470  0.00  0.00    +0.109 A 
ATOM     10  C   UNL     1       8.915  -2.413  23.347  0.00  0.00    +0.135 A 
ATOM     11  C   UNL     1       7.996  -3.400  22.999  0.00  0.00    +0.092 A 
ENDROOT
BRANCH   5  12
ATOM     12  C   UNL     1       6.932   2.877  23.705  0.00  0.00    +0.025 A 
ATOM     13  C   UNL     1       6.246   3.301  24.859  0.00  0.00    +0.015 A 
ATOM     14  C   UNL     1       5.684   4.580  24.928  0.00  0.00    +0.050 A 
ATOM     15  C   UNL     1       5.807   5.435  23.844  0.00  0.00    +0.158 A 
ATOM     16  C   UNL     1       6.469   5.026  22.690  0.00  0.00    +0.159 A 
ATOM     17  C   UNL     1       7.031   3.751  22.608  0.00  0.00    +0.060 A 
BRANCH  15  18
ATOM     18  O   UNL     1       5.281   6.693  23.924  0.00  0.00    -0.503 OA
ATOM     19  H   UNL     1       5.372   6.942  24.866  0.00  0.00    +0.292 HD
ENDBRANCH  15  18
BRANCH  16  20
ATOM     20  O   UNL     1       6.553   5.929  21.664  0.00  0.00    -0.503 OA
ATOM     21  H   UNL     1       6.902   5.473  20.879  0.00  0.00    +0.292 HD
ENDBRANCH  16  20
ENDBRANCH   5  12
BRANCH  10  22
ATOM     22  O   UNL     1      10.214  -2.776  23.568  0.00  0.00    -0.506 OA
ATOM     23  H   UNL     1      10.254  -3.605  24.072  0.00  0.00    +0.292 HD
ENDBRANCH  10  22
BRANCH   1  24
ATOM     24  O   UNL     1       5.868  -4.142  22.483  0.00  0.00    -0.461 OA
BRANCH  24  27
ATOM     25  C   UNL     1       5.232  -5.456  25.814  0.00  0.00    +0.198 C 
ATOM     26  O   UNL     1       5.942  -4.887  24.712  0.00  0.00    -0.337 OA
ATOM     27  C   UNL     1       5.107  -4.693  23.561  0.00  0.00    +0.339 C 
ATOM     28  C   UNL     1       4.576  -6.068  23.079  0.00  0.00    +0.214 C 
ATOM     29  C   UNL     1       3.763  -6.699  24.217  0.00  0.00    +0.180 C 
ATOM     30  C   UNL     1       4.634  -6.824  25.475  0.00  0.00    +0.171 C 
BRANCH  28  31
ATOM     31  O   UNL     1       5.670  -6.939  22.719  0.00  0.00    -0.383 OA
ATOM     32  H   UNL     1       6.460  -6.381  22.593  0.00  0.00    +0.210 HD
ENDBRANCH  28  31
BRANCH  29  33
ATOM     33  O   UNL     1       3.230  -7.972  23.844  0.00  0.00    -0.386 OA
ATOM     34  H   UNL     1       2.749  -8.320  24.618  0.00  0.00    +0.210 HD
ENDBRANCH  29  33
BRANCH  30  35
ATOM     35  O   UNL     1       3.854  -7.344  26.555  0.00  0.00    -0.387 OA
ATOM     36  H   UNL     1       4.337  -7.213  27.390  0.00  0.00    +0.210 HD
ENDBRANCH  30  35
ENDBRANCH  24  27
ENDBRANCH   1  24
BRANCH   6  37
ATOM     37  O   UNL     1       9.687   2.431  24.391  0.00  0.00    -0.317 OA
BRANCH  37  38
ATOM     38  S   UNL     1      10.660   3.289  23.392  0.00  0.00    +0.252 S 
ATOM     39  O   UNL     1      12.027   2.939  23.713  0.00  0.00    -0.108 OA
ATOM     40  O   UNL     1      10.233   4.672  23.405  0.00  0.00    -0.108 OA
BRANCH  38  41
ATOM     41  O   UNL     1      10.361   2.702  21.917  0.00  0.00    -0.222 OA
ATOM     42  H   UNL     1      11.239   2.550  21.481  0.00  0.00    +0.248 HD
ENDBRANCH  38  41
ENDBRANCH  37  38
ENDBRANCH   6  37
TORSDOF 12
ENDMDL
MODEL 6
REMARK VINA RESULT:      -7.2      2.799      8.812
REMARK  Name = 
REMARK  12 active torsions:
REMARK  status: ('A' for Active; 'I' for Inactive)
REMARK    1  A    between atoms: C_2  and  O_37
REMARK    2  A    between atoms: C_3  and  O_36
REMARK    3  A    between atoms: C_5  and  O_35
REMARK    4  A    between atoms: C_6  and  O_9
REMARK    5  A    between atoms: O_9  and  C_10
REMARK    6  A    between atoms: C_12  and  O_34
REMARK    7  A    between atoms: C_17  and  C_26
REMARK    8  A    between atoms: C_18  and  O_21
REMARK    9  A    between atoms: O_21  and  S_22
REMARK   10  A    between atoms: S_22  and  O_25
REMARK   11  A    between atoms: C_28  and  O_33
REMARK   12  A    between atoms: C_29  and  O_32
REMARK                            x       y       z     vdW  Elec       q    Type
REMARK                         _______ _______ _______ _____ _____    ______ ____
ROOT
ATOM      1  C   UNL     1       7.417  -4.500  26.864  0.00  0.00    +0.131 A 
ATOM      2  C   UNL     1       6.924  -3.200  26.748  0.00  0.00    +0.093 A 
ATOM      3  C   UNL     1       7.553  -2.290  25.884  0.00  0.00    +0.147 A 
ATOM      4  O   UNL     1       7.031  -1.020  25.832  0.00  0.00    -0.451 OA
ATOM      5  C   UNL     1       7.630  -0.081  25.003  0.00  0.00    +0.184 A 
ATOM      6  C   UNL     1       8.721  -0.303  24.245  0.00  0.00    +0.248 A 
ATOM      7  C   UNL     1       9.350  -1.652  24.328  0.00  0.00    +0.241 A 
ATOM      8  O   UNL     1      10.435  -1.859  23.794  0.00  0.00    -0.283 OA
ATOM      9  C   UNL     1       8.670  -2.675  25.144  0.00  0.00    +0.109 A 
ATOM     10  C   UNL     1       9.145  -3.987  25.251  0.00  0.00    +0.135 A 
ATOM     11  C   UNL     1       8.528  -4.889  26.115  0.00  0.00    +0.092 A 
ENDROOT
BRANCH   5  12
ATOM     12  C   UNL     1       6.934   1.220  25.028  0.00  0.00    +0.025 A 
ATOM     13  C   UNL     1       7.621   2.377  25.437  0.00  0.00    +0.015 A 
ATOM     14  C   UNL     1       6.999   3.629  25.402  0.00  0.00    +0.050 A 
ATOM     15  C   UNL     1       5.689   3.724  24.960  0.00  0.00    +0.158 A 
ATOM     16  C   UNL     1       4.990   2.586  24.565  0.00  0.00    +0.159 A 
ATOM     17  C   UNL     1       5.599   1.331  24.599  0.00  0.00    +0.060 A 
BRANCH  15  18
ATOM     18  O   UNL     1       5.092   4.951  24.900  0.00  0.00    -0.503 OA
ATOM     19  H   UNL     1       5.057   5.166  23.947  0.00  0.00    +0.292 HD
ENDBRANCH  15  18
BRANCH  16  20
ATOM     20  O   UNL     1       3.702   2.762  24.135  0.00  0.00    -0.503 OA
ATOM     21  H   UNL     1       3.109   2.268  24.726  0.00  0.00    +0.292 HD
ENDBRANCH  16  20
ENDBRANCH   5  12
BRANCH  10  22
ATOM     22  O   UNL     1      10.219  -4.410  24.520  0.00  0.00    -0.506 OA
ATOM     23  H   UNL     1      10.042  -5.282  24.130  0.00  0.00    +0.292 HD
ENDBRANCH  10  22
BRANCH   1  24
ATOM     24  O   UNL     1       6.960  -5.464  27.713  0.00  0.00    -0.461 OA
BRANCH  24  27
ATOM     25  C   UNL     1       4.368  -5.011  30.224  0.00  0.00    +0.198 C 
ATOM     26  O   UNL     1       5.671  -5.135  29.653  0.00  0.00    -0.337 OA
ATOM     27  C   UNL     1       5.634  -5.327  28.231  0.00  0.00    +0.339 C 
ATOM     28  C   UNL     1       4.888  -6.649  27.916  0.00  0.00    +0.214 C 
ATOM     29  C   UNL     1       3.462  -6.546  28.471  0.00  0.00    +0.180 C 
ATOM     30  C   UNL     1       3.505  -6.252  29.976  0.00  0.00    +0.171 C 
BRANCH  28  31
ATOM     31  O   UNL     1       5.566  -7.773  28.520  0.00  0.00    -0.383 OA
ATOM     32  H   UNL     1       6.333  -7.423  29.010  0.00  0.00    +0.210 HD
ENDBRANCH  28  31
BRANCH  29  33
ATOM     33  O   UNL     1       2.705  -7.730  28.209  0.00  0.00    -0.386 OA
ATOM     34  H   UNL     1       3.156  -8.466  28.664  0.00  0.00    +0.210 HD
ENDBRANCH  29  33
BRANCH  30  35
ATOM     35  O   UNL     1       2.177  -6.083  30.476  0.00  0.00    -0.387 OA
ATOM     36  H   UNL     1       1.842  -5.211  30.206  0.00  0.00    +0.210 HD
ENDBRANCH  30  35
ENDBRANCH  24  27
ENDBRANCH   1  24
BRANCH   6  37
ATOM     37  O   UNL     1       9.298   0.702  23.478  0.00  0.00    -0.317 OA
BRANCH  37  38
ATOM     38  S   UNL     1       8.959   0.959  21.897  0.00  0.00    +0.252 S 
ATOM     39  O   UNL     1       7.578   1.382  21.814  0.00  0.00    -0.108 OA
ATOM     40  O   UNL     1       9.427  -0.177  21.132  0.00  0.00    -0.108 OA
BRANCH  38  41
ATOM     41  O   UNL     1       9.864   2.231  21.480  0.00  0.00    -0.222 OA
ATOM     42  H   UNL     1      10.049   2.741  22.310  0.00  0.00    +0.248 HD
ENDBRANCH  38  41
ENDBRANCH  37  38
ENDBRANCH   6  37
TORSDOF 12
ENDMDL
MODEL 7
REMARK VINA RESULT:      -7.1      1.303      1.944
REMARK  Name = 
REMARK  12 active torsions:
REMARK  status: ('A' for Active; 'I' for Inactive)
REMARK    1  A    between atoms: C_2  and  O_37
REMARK    2  A    between atoms: C_3  and  O_36
REMARK    3  A    between atoms: C_5  and  O_35
REMARK    4  A    between atoms: C_6  and  O_9
REMARK    5  A    between atoms: O_9  and  C_10
REMARK    6  A    between atoms: C_12  and  O_34
REMARK    7  A    between atoms: C_17  and  C_26
REMARK    8  A    between atoms: C_18  and  O_21
REMARK    9  A    between atoms: O_21  and  S_22
REMARK   10  A    between atoms: S_22  and  O_25
REMARK   11  A    between atoms: C_28  and  O_33
REMARK   12  A    between atoms: C_29  and  O_32
REMARK                            x       y       z     vdW  Elec       q    Type
REMARK                         _______ _______ _______ _____ _____    ______ ____
ROOT
ATOM      1  C   UNL     1       7.872   0.893  24.559  0.00  0.00    +0.131 A 
ATOM      2  C   UNL     1       7.322  -0.108  25.361  0.00  0.00    +0.093 A 
ATOM      3  C   UNL     1       7.236  -1.422  24.874  0.00  0.00    +0.147 A 
ATOM      4  O   UNL     1       6.666  -2.356  25.705  0.00  0.00    -0.451 OA
ATOM      5  C   UNL     1       6.545  -3.666  25.261  0.00  0.00    +0.184 A 
ATOM      6  C   UNL     1       6.926  -4.108  24.047  0.00  0.00    +0.248 A 
ATOM      7  C   UNL     1       7.490  -3.107  23.098  0.00  0.00    +0.241 A 
ATOM      8  O   UNL     1       7.696  -3.414  21.928  0.00  0.00    -0.283 OA
ATOM      9  C   UNL     1       7.694  -1.733  23.595  0.00  0.00    +0.109 A 
ATOM     10  C   UNL     1       8.262  -0.726  22.806  0.00  0.00    +0.135 A 
ATOM     11  C   UNL     1       8.339   0.580  23.282  0.00  0.00    +0.092 A 
ENDROOT
BRANCH   5  12
ATOM     12  C   UNL     1       5.950  -4.555  26.277  0.00  0.00    +0.025 A 
ATOM     13  C   UNL     1       4.568  -4.820  26.256  0.00  0.00    +0.015 A 
ATOM     14  C   UNL     1       3.997  -5.713  27.168  0.00  0.00    +0.050 A 
ATOM     15  C   UNL     1       4.806  -6.339  28.103  0.00  0.00    +0.158 A 
ATOM     16  C   UNL     1       6.173  -6.076  28.147  0.00  0.00    +0.159 A 
ATOM     17  C   UNL     1       6.753  -5.184  27.244  0.00  0.00    +0.060 A 
BRANCH  15  18
ATOM     18  O   UNL     1       4.251  -7.231  28.975  0.00  0.00    -0.503 OA
ATOM     19  H   UNL     1       3.299  -7.242  28.749  0.00  0.00    +0.292 HD
ENDBRANCH  15  18
BRANCH  16  20
ATOM     20  O   UNL     1       6.907  -6.737  29.095  0.00  0.00    -0.503 OA
ATOM     21  H   UNL     1       7.766  -6.291  29.187  0.00  0.00    +0.292 HD
ENDBRANCH  16  20
ENDBRANCH   5  12
BRANCH  10  22
ATOM     22  O   UNL     1       8.748  -0.998  21.558  0.00  0.00    -0.506 OA
ATOM     23  H   UNL     1       9.673  -1.289  21.610  0.00  0.00    +0.292 HD
ENDBRANCH  10  22
BRANCH   1  24
ATOM     24  O   UNL     1       7.950   2.220  24.865  0.00  0.00    -0.461 OA
BRANCH  24  27
ATOM     25  C   UNL     1      10.999   3.624  23.466  0.00  0.00    +0.198 C 
ATOM     26  O   UNL     1      10.149   2.799  24.264  0.00  0.00    -0.337 OA
ATOM     27  C   UNL     1       8.756   3.054  24.029  0.00  0.00    +0.339 C 
ATOM     28  C   UNL     1       8.436   4.522  24.415  0.00  0.00    +0.214 C 
ATOM     29  C   UNL     1       9.294   5.450  23.547  0.00  0.00    +0.180 C 
ATOM     30  C   UNL     1      10.780   5.115  23.733  0.00  0.00    +0.171 C 
BRANCH  28  31
ATOM     31  O   UNL     1       8.723   4.755  25.811  0.00  0.00    -0.383 OA
ATOM     32  H   UNL     1       9.564   5.246  25.860  0.00  0.00    +0.210 HD
ENDBRANCH  28  31
BRANCH  29  33
ATOM     33  O   UNL     1       9.046   6.828  23.840  0.00  0.00    -0.386 OA
ATOM     34  H   UNL     1       9.415   7.004  24.726  0.00  0.00    +0.210 HD
ENDBRANCH  29  33
BRANCH  30  35
ATOM     35  O   UNL     1      11.574   5.931  22.869  0.00  0.00    -0.387 OA
ATOM     36  H   UNL     1      11.789   6.764  23.324  0.00  0.00    +0.210 HD
ENDBRANCH  30  35
ENDBRANCH  24  27
ENDBRANCH   1  24
BRANCH   6  37
ATOM     37  O   UNL     1       6.727  -5.426  23.650  0.00  0.00    -0.317 OA
BRANCH  37  38
ATOM     38  S   UNL     1       5.490  -5.921  22.700  0.00  0.00    +0.252 S 
ATOM     39  O   UNL     1       6.062  -6.400  21.460  0.00  0.00    -0.108 OA
ATOM     40  O   UNL     1       4.472  -4.892  22.691  0.00  0.00    -0.108 OA
BRANCH  38  41
ATOM     41  O   UNL     1       4.874  -7.208  23.458  0.00  0.00    -0.222 OA
ATOM     42  H   UNL     1       3.991  -6.937  23.820  0.00  0.00    +0.248 HD
ENDBRANCH  38  41
ENDBRANCH  37  38
ENDBRANCH   6  37
TORSDOF 12
ENDMDL
MODEL 8
REMARK VINA RESULT:      -7.0      2.489      3.751
REMARK  Name = 
REMARK  12 active torsions:
REMARK  status: ('A' for Active; 'I' for Inactive)
REMARK    1  A    between atoms: C_2  and  O_37
REMARK    2  A    between atoms: C_3  and  O_36
REMARK    3  A    between atoms: C_5  and  O_35
REMARK    4  A    between atoms: C_6  and  O_9
REMARK    5  A    between atoms: O_9  and  C_10
REMARK    6  A    between atoms: C_12  and  O_34
REMARK    7  A    between atoms: C_17  and  C_26
REMARK    8  A    between atoms: C_18  and  O_21
REMARK    9  A    between atoms: O_21  and  S_22
REMARK   10  A    between atoms: S_22  and  O_25
REMARK   11  A    between atoms: C_28  and  O_33
REMARK   12  A    between atoms: C_29  and  O_32
REMARK                            x       y       z     vdW  Elec       q    Type
REMARK                         _______ _______ _______ _____ _____    ______ ____
ROOT
ATOM      1  C   UNL     1       8.050   1.538  22.322  0.00  0.00    +0.131 A 
ATOM      2  C   UNL     1       7.007   0.672  22.650  0.00  0.00    +0.093 A 
ATOM      3  C   UNL     1       7.294  -0.610  23.146  0.00  0.00    +0.147 A 
ATOM      4  O   UNL     1       6.223  -1.422  23.430  0.00  0.00    -0.451 OA
ATOM      5  C   UNL     1       6.459  -2.704  23.908  0.00  0.00    +0.184 A 
ATOM      6  C   UNL     1       7.678  -3.244  24.100  0.00  0.00    +0.248 A 
ATOM      7  C   UNL     1       8.861  -2.412  23.741  0.00  0.00    +0.241 A 
ATOM      8  O   UNL     1       9.983  -2.909  23.734  0.00  0.00    -0.283 OA
ATOM      9  C   UNL     1       8.615  -1.024  23.310  0.00  0.00    +0.109 A 
ATOM     10  C   UNL     1       9.655  -0.140  22.998  0.00  0.00    +0.135 A 
ATOM     11  C   UNL     1       9.372   1.128  22.496  0.00  0.00    +0.092 A 
ENDROOT
BRANCH   5  12
ATOM     12  C   UNL     1       5.212  -3.436  24.201  0.00  0.00    +0.025 A 
ATOM     13  C   UNL     1       4.566  -3.258  25.437  0.00  0.00    +0.015 A 
ATOM     14  C   UNL     1       3.348  -3.890  25.706  0.00  0.00    +0.050 A 
ATOM     15  C   UNL     1       2.777  -4.703  24.739  0.00  0.00    +0.158 A 
ATOM     16  C   UNL     1       3.411  -4.901  23.516  0.00  0.00    +0.159 A 
ATOM     17  C   UNL     1       4.628  -4.278  23.238  0.00  0.00    +0.060 A 
BRANCH  15  18
ATOM     18  O   UNL     1       1.574  -5.298  24.994  0.00  0.00    -0.503 OA
ATOM     19  H   UNL     1       1.272  -4.902  25.836  0.00  0.00    +0.292 HD
ENDBRANCH  15  18
BRANCH  16  20
ATOM     20  O   UNL     1       2.781  -5.713  22.610  0.00  0.00    -0.503 OA
ATOM     21  H   UNL     1       2.521  -5.176  21.842  0.00  0.00    +0.292 HD
ENDBRANCH  16  20
ENDBRANCH   5  12
BRANCH  10  22
ATOM     22  O   UNL     1      10.962  -0.498  23.172  0.00  0.00    -0.506 OA
ATOM     23  H   UNL     1      11.307  -0.129  24.001  0.00  0.00    +0.292 HD
ENDBRANCH  10  22
BRANCH   1  24
ATOM     24  O   UNL     1       7.925   2.776  21.762  0.00  0.00    -0.461 OA
BRANCH  24  27
ATOM     25  C   UNL     1       7.798   4.634  24.886  0.00  0.00    +0.198 C 
ATOM     26  O   UNL     1       7.749   3.527  23.984  0.00  0.00    -0.337 OA
ATOM     27  C   UNL     1       8.005   3.913  22.625  0.00  0.00    +0.339 C 
ATOM     28  C   UNL     1       6.907   4.906  22.163  0.00  0.00    +0.214 C 
ATOM     29  C   UNL     1       6.951   6.138  23.077  0.00  0.00    +0.180 C 
ATOM     30  C   UNL     1       6.766   5.711  24.540  0.00  0.00    +0.171 C 
BRANCH  28  31
ATOM     31  O   UNL     1       5.601   4.292  22.235  0.00  0.00    -0.383 OA
ATOM     32  H   UNL     1       4.943   4.976  22.014  0.00  0.00    +0.210 HD
ENDBRANCH  28  31
BRANCH  29  33
ATOM     33  O   UNL     1       5.969   7.108  22.706  0.00  0.00    -0.386 OA
ATOM     34  H   UNL     1       5.663   7.535  23.528  0.00  0.00    +0.210 HD
ENDBRANCH  29  33
BRANCH  30  35
ATOM     35  O   UNL     1       6.881   6.850  25.396  0.00  0.00    -0.387 OA
ATOM     36  H   UNL     1       6.798   7.660  24.863  0.00  0.00    +0.210 HD
ENDBRANCH  30  35
ENDBRANCH  24  27
ENDBRANCH   1  24
BRANCH   6  37
ATOM     37  O   UNL     1       7.838  -4.555  24.533  0.00  0.00    -0.317 OA
BRANCH  37  38
ATOM     38  S   UNL     1       8.424  -4.970  26.004  0.00  0.00    +0.252 S 
ATOM     39  O   UNL     1       7.574  -6.017  26.529  0.00  0.00    -0.108 OA
ATOM     40  O   UNL     1       8.659  -3.762  26.767  0.00  0.00    -0.108 OA
BRANCH  38  41
ATOM     41  O   UNL     1       9.862  -5.643  25.704  0.00  0.00    -0.222 OA
ATOM     42  H   UNL     1      10.553  -5.008  26.026  0.00  0.00    +0.248 HD
ENDBRANCH  38  41
ENDBRANCH  37  38
ENDBRANCH   6  37
TORSDOF 12
ENDMDL
MODEL 9
REMARK VINA RESULT:      -6.9      2.159      3.159
REMARK  Name = 
REMARK  12 active torsions:
REMARK  status: ('A' for Active; 'I' for Inactive)
REMARK    1  A    between atoms: C_2  and  O_37
REMARK    2  A    between atoms: C_3  and  O_36
REMARK    3  A    between atoms: C_5  and  O_35
REMARK    4  A    between atoms: C_6  and  O_9
REMARK    5  A    between atoms: O_9  and  C_10
REMARK    6  A    between atoms: C_12  and  O_34
REMARK    7  A    between atoms: C_17  and  C_26
REMARK    8  A    between atoms: C_18  and  O_21
REMARK    9  A    between atoms: O_21  and  S_22
REMARK   10  A    between atoms: S_22  and  O_25
REMARK   11  A    between atoms: C_28  and  O_33
REMARK   12  A    between atoms: C_29  and  O_32
REMARK                            x       y       z     vdW  Elec       q    Type
REMARK                         _______ _______ _______ _____ _____    ______ ____
ROOT
ATOM      1  C   UNL     1       8.383  -2.910  23.856  0.00  0.00    +0.131 A 
ATOM      2  C   UNL     1       7.529  -3.167  24.929  0.00  0.00    +0.093 A 
ATOM      3  C   UNL     1       6.540  -4.156  24.811  0.00  0.00    +0.147 A 
ATOM      4  O   UNL     1       5.717  -4.345  25.896  0.00  0.00    -0.451 OA
ATOM      5  C   UNL     1       4.714  -5.302  25.820  0.00  0.00    +0.184 A 
ATOM      6  C   UNL     1       4.453  -6.064  24.740  0.00  0.00    +0.248 A 
ATOM      7  C   UNL     1       5.286  -5.838  23.524  0.00  0.00    +0.241 A 
ATOM      8  O   UNL     1       4.987  -6.379  22.464  0.00  0.00    -0.283 OA
ATOM      9  C   UNL     1       6.403  -4.881  23.628  0.00  0.00    +0.109 A 
ATOM     10  C   UNL     1       7.278  -4.630  22.565  0.00  0.00    +0.135 A 
ATOM     11  C   UNL     1       8.253  -3.642  22.676  0.00  0.00    +0.092 A 
ENDROOT
BRANCH   5  12
ATOM     12  C   UNL     1       3.943  -5.413  27.073  0.00  0.00    +0.025 A 
ATOM     13  C   UNL     1       2.825  -4.586  27.286  0.00  0.00    +0.015 A 
ATOM     14  C   UNL     1       2.042  -4.724  28.436  0.00  0.00    +0.050 A 
ATOM     15  C   UNL     1       2.378  -5.687  29.375  0.00  0.00    +0.158 A 
ATOM     16  C   UNL     1       3.490  -6.503  29.187  0.00  0.00    +0.159 A 
ATOM     17  C   UNL     1       4.281  -6.372  28.044  0.00  0.00    +0.060 A 
BRANCH  15  18
ATOM     18  O   UNL     1       1.596  -5.838  30.485  0.00  0.00    -0.503 OA
ATOM     19  H   UNL     1       2.131  -5.474  31.219  0.00  0.00    +0.292 HD
ENDBRANCH  15  18
BRANCH  16  20
ATOM     20  O   UNL     1       3.754  -7.433  30.156  0.00  0.00    -0.503 OA
ATOM     21  H   UNL     1       4.717  -7.564  30.205  0.00  0.00    +0.292 HD
ENDBRANCH  16  20
ENDBRANCH   5  12
BRANCH  10  22
ATOM     22  O   UNL     1       7.194  -5.340  21.400  0.00  0.00    -0.506 OA
ATOM     23  H   UNL     1       6.572  -6.079  21.497  0.00  0.00    +0.292 HD
ENDBRANCH  10  22
BRANCH   1  24
ATOM     24  O   UNL     1       9.334  -1.934  23.798  0.00  0.00    -0.461 OA
BRANCH  24  27
ATOM     25  C   UNL     1       7.083   0.784  22.919  0.00  0.00    +0.198 C 
ATOM     26  O   UNL     1       7.560  -0.548  23.119  0.00  0.00    -0.337 OA
ATOM     27  C   UNL     1       8.899  -0.582  23.635  0.00  0.00    +0.339 C 
ATOM     28  C   UNL     1       9.856   0.080  22.611  0.00  0.00    +0.214 C 
ATOM     29  C   UNL     1       9.411   1.532  22.398  0.00  0.00    +0.180 C 
ATOM     30  C   UNL     1       7.950   1.569  21.931  0.00  0.00    +0.171 C 
BRANCH  28  31
ATOM     31  O   UNL     1       9.825  -0.629  21.353  0.00  0.00    -0.383 OA
ATOM     32  H   UNL     1      10.632  -1.174  21.302  0.00  0.00    +0.210 HD
ENDBRANCH  28  31
BRANCH  29  33
ATOM     33  O   UNL     1      10.257   2.214  21.469  0.00  0.00    -0.386 OA
ATOM     34  H   UNL     1       9.885   2.065  20.579  0.00  0.00    +0.210 HD
ENDBRANCH  29  33
BRANCH  30  35
ATOM     35  O   UNL     1       7.515   2.925  21.804  0.00  0.00    -0.387 OA
ATOM     36  H   UNL     1       7.386   3.303  22.691  0.00  0.00    +0.210 HD
ENDBRANCH  30  35
ENDBRANCH  24  27
ENDBRANCH   1  24
BRANCH   6  37
ATOM     37  O   UNL     1       3.397  -6.967  24.717  0.00  0.00    -0.317 OA
BRANCH  37  38
ATOM     38  S   UNL     1       1.974  -6.697  23.956  0.00  0.00    +0.252 S 
ATOM     39  O   UNL     1       1.850  -5.268  23.764  0.00  0.00    -0.108 OA
ATOM     40  O   UNL     1       0.935  -7.440  24.637  0.00  0.00    -0.108 OA
BRANCH  38  41
ATOM     41  O   UNL     1       2.157  -7.351  22.490  0.00  0.00    -0.222 OA
ATOM     42  H   UNL     1       1.682  -6.764  21.847  0.00  0.00    +0.248 HD
ENDBRANCH  38  41
ENDBRANCH  37  38
ENDBRANCH   6  37
TORSDOF 12
ENDMDL
