MODEL 1
REMARK VINA RESULT:      -6.9      0.000      0.000
REMARK  Name = 
REMARK  22 active torsions:
REMARK  status: ('A' for Active; 'I' for Inactive)
REMARK    1  A    between atoms: C_1  and  C_2
REMARK    2  A    between atoms: C_2  and  O_4
REMARK    3  A    between atoms: O_4  and  C_5
REMARK    4  A    between atoms: C_9  and  O_22
REMARK    5  A    between atoms: C_11  and  O_18
REMARK    6  A    between atoms: C_12  and  O_14
REMARK    7  A    between atoms: O_14  and  C_15
REMARK    8  A    between atoms: C_15  and  C_17
REMARK    9  A    between atoms: O_18  and  C_19
REMARK   10  A    between atoms: C_19  and  C_21
REMARK   11  A    between atoms: O_22  and  C_23
REMARK   12  A    between atoms: C_23  and  C_24
REMARK   13  A    between atoms: C_25  and  O_56
REMARK   14  A    between atoms: C_27  and  O_55
REMARK   15  A    between atoms: C_28  and  O_54
REMARK   16  A    between atoms: C_29  and  O_32
REMARK   17  A    between atoms: O_32  and  C_33
REMARK   18  A    between atoms: C_34  and  C_46
REMARK   19  A    between atoms: C_38  and  O_45
REMARK   20  A    between atoms: C_40  and  O_44
REMARK   21  A    between atoms: C_48  and  O_53
REMARK   22  A    between atoms: C_49  and  O_52
REMARK                            x       y       z     vdW  Elec       q    Type
REMARK                         _______ _______ _______ _____ _____    ______ ____
ROOT
ATOM      1  C   UNL     1       4.592  -0.098  26.376  0.00  0.00    +0.179 C 
ATOM      2  O   UNL     1       5.148   0.149  25.056  0.00  0.00    -0.331 OA
ATOM      3  C   UNL     1       6.172   1.169  25.048  0.00  0.00    +0.340 C 
ATOM      4  C   UNL     1       5.541   2.513  25.476  0.00  0.00    +0.214 C 
ATOM      5  C   UNL     1       4.883   2.363  26.851  0.00  0.00    +0.180 C 
ATOM      6  C   UNL     1       3.903   1.177  26.889  0.00  0.00    +0.177 C 
ENDROOT
BRANCH   6   7
ATOM      7  O   UNL     1       2.758   1.459  26.058  0.00  0.00    -0.386 OA
ATOM      8  H   UNL     1       2.705   0.752  25.390  0.00  0.00    +0.210 HD
ENDBRANCH   6   7
BRANCH   5   9
ATOM      9  O   UNL     1       4.199   3.571  27.194  0.00  0.00    -0.386 OA
ATOM     10  H   UNL     1       4.547   4.235  26.563  0.00  0.00    +0.210 HD
ENDBRANCH   5   9
BRANCH   4  11
ATOM     11  O   UNL     1       4.541   2.921  24.504  0.00  0.00    -0.383 OA
ATOM     12  H   UNL     1       4.768   2.462  23.673  0.00  0.00    +0.210 HD
ENDBRANCH   4  11
BRANCH   3  13
ATOM     13  O   UNL     1       6.673   1.315  23.707  0.00  0.00    -0.453 OA
BRANCH  13  14
ATOM     14  C   UNL     1       7.845   2.048  23.518  0.00  0.00    +0.214 A 
ATOM     15  C   UNL     1       7.825   3.486  23.114  0.00  0.00    +0.238 A 
ATOM     16  O   UNL     1       6.880   3.973  22.507  0.00  0.00    -0.283 OA
ATOM     17  C   UNL     1       9.018   4.277  23.417  0.00  0.00    +0.109 A 
ATOM     18  C   UNL     1      10.206   3.583  23.617  0.00  0.00    +0.147 A 
ATOM     19  C   UNL     1      11.390   4.292  23.833  0.00  0.00    +0.092 A 
ATOM     20  C   UNL     1      11.352   5.691  23.841  0.00  0.00    +0.124 A 
ATOM     21  C   UNL     1      10.162   6.386  23.652  0.00  0.00    +0.091 A 
ATOM     22  O   UNL     1      10.267   2.205  23.601  0.00  0.00    -0.451 OA
ATOM     23  C   UNL     1       8.985   5.677  23.449  0.00  0.00    +0.135 A 
ATOM     24  C   UNL     1       9.070   1.483  23.640  0.00  0.00    +0.181 A 
BRANCH  24  25
ATOM     25  C   UNL     1       9.251   0.009  23.799  0.00  0.00    +0.025 A 
ATOM     26  C   UNL     1       9.842  -0.773  22.790  0.00  0.00    +0.015 A 
ATOM     27  C   UNL     1      10.047  -2.151  22.969  0.00  0.00    +0.050 A 
ATOM     28  C   UNL     1       9.660  -2.752  24.156  0.00  0.00    +0.158 A 
ATOM     29  C   UNL     1       9.027  -2.012  25.145  0.00  0.00    +0.159 A 
ATOM     30  C   UNL     1       8.798  -0.650  24.962  0.00  0.00    +0.060 A 
BRANCH  29  31
ATOM     31  O   UNL     1       8.652  -2.663  26.288  0.00  0.00    -0.503 OA
ATOM     32  H   UNL     1       8.898  -2.114  27.053  0.00  0.00    +0.292 HD
ENDBRANCH  29  31
BRANCH  28  33
ATOM     33  O   UNL     1       9.909  -4.079  24.352  0.00  0.00    -0.503 OA
ATOM     34  H   UNL     1      10.881  -4.136  24.459  0.00  0.00    +0.292 HD
ENDBRANCH  28  33
ENDBRANCH  24  25
BRANCH  23  35
ATOM     35  O   UNL     1       7.808   6.356  23.322  0.00  0.00    -0.506 OA
ATOM     36  H   UNL     1       7.741   6.736  22.431  0.00  0.00    +0.292 HD
ENDBRANCH  23  35
BRANCH  20  37
ATOM     37  O   UNL     1      12.473   6.441  24.033  0.00  0.00    -0.507 OA
ATOM     38  H   UNL     1      12.759   6.369  24.954  0.00  0.00    +0.292 HD
ENDBRANCH  20  37
ENDBRANCH  13  14
ENDBRANCH   3  13
BRANCH   1  39
ATOM     39  C   UNL     1       5.623  -0.674  27.367  0.00  0.00    +0.197 C 
BRANCH  39  40
ATOM     40  O   UNL     1       6.027  -1.993  26.991  0.00  0.00    -0.345 OA
BRANCH  40  44
ATOM     41  C   UNL     1       3.780  -5.507  27.307  0.00  0.00    +0.246 C 
ATOM     42  C   UNL     1       4.082  -5.057  25.864  0.00  0.00    +0.264 C 
ATOM     43  C   UNL     1       5.210  -4.000  25.859  0.00  0.00    +0.276 C 
ATOM     44  C   UNL     1       4.895  -2.874  26.875  0.00  0.00    +0.295 C 
ATOM     45  O   UNL     1       4.583  -3.392  28.164  0.00  0.00    -0.344 OA
ATOM     46  C   UNL     1       3.460  -4.269  28.146  0.00  0.00    +0.211 C 
BRANCH  43  47
ATOM     47  O   UNL     1       5.286  -3.388  24.548  0.00  0.00    -0.452 OA
BRANCH  47  48
ATOM     48  C   UNL     1       6.273  -3.817  23.723  0.00  0.00    +0.304 C 
ATOM     49  C   UNL     1       6.325  -2.982  22.481  0.00  0.00    +0.136 C 
ATOM     50  O   UNL     1       6.995  -4.785  23.920  0.00  0.00    -0.251 OA
ENDBRANCH  47  48
ENDBRANCH  43  47
BRANCH  42  51
ATOM     51  O   UNL     1       4.463  -6.246  25.112  0.00  0.00    -0.454 OA
BRANCH  51  52
ATOM     52  C   UNL     1       3.519  -6.846  24.342  0.00  0.00    +0.304 C 
ATOM     53  C   UNL     1       3.249  -6.049  23.099  0.00  0.00    +0.136 C 
ATOM     54  O   UNL     1       2.968  -7.907  24.602  0.00  0.00    -0.251 OA
ENDBRANCH  51  52
ENDBRANCH  42  51
BRANCH  41  55
ATOM     55  O   UNL     1       4.966  -6.182  27.795  0.00  0.00    -0.455 OA
BRANCH  55  57
ATOM     56  C   UNL     1       6.152  -6.396  29.796  0.00  0.00    +0.136 C 
ATOM     57  C   UNL     1       4.914  -6.745  29.028  0.00  0.00    +0.304 C 
ATOM     58  O   UNL     1       4.023  -7.474  29.437  0.00  0.00    -0.251 OA
ENDBRANCH  55  57
ENDBRANCH  41  55
ENDBRANCH  40  44
ENDBRANCH  39  40
ENDBRANCH   1  39
TORSDOF 19
ENDMDL
MODEL 2
REMARK VINA RESULT:      -6.8      1.617      2.922
REMARK  Name = 
REMARK  22 active torsions:
REMARK  status: ('A' for Active; 'I' for Inactive)
REMARK    1  A    between atoms: C_1  and  C_2
REMARK    2  A    between atoms: C_2  and  O_4
REMARK    3  A    between atoms: O_4  and  C_5
REMARK    4  A    between atoms: C_9  and  O_22
REMARK    5  A    between atoms: C_11  and  O_18
REMARK    6  A    between atoms: C_12  and  O_14
REMARK    7  A    between atoms: O_14  and  C_15
REMARK    8  A    between atoms: C_15  and  C_17
REMARK    9  A    between atoms: O_18  and  C_19
REMARK   10  A    between atoms: C_19  and  C_21
REMARK   11  A    between atoms: O_22  and  C_23
REMARK   12  A    between atoms: C_23  and  C_24
REMARK   13  A    between atoms: C_25  and  O_56
REMARK   14  A    between atoms: C_27  and  O_55
REMARK   15  A    between atoms: C_28  and  O_54
REMARK   16  A    between atoms: C_29  and  O_32
REMARK   17  A    between atoms: O_32  and  C_33
REMARK   18  A    between atoms: C_34  and  C_46
REMARK   19  A    between atoms: C_38  and  O_45
REMARK   20  A    between atoms: C_40  and  O_44
REMARK   21  A    between atoms: C_48  and  O_53
REMARK   22  A    between atoms: C_49  and  O_52
REMARK                            x       y       z     vdW  Elec       q    Type
REMARK                         _______ _______ _______ _____ _____    ______ ____
ROOT
ATOM      1  C   UNL     1       4.914  -0.388  26.620  0.00  0.00    +0.179 C 
ATOM      2  O   UNL     1       5.100   0.430  25.433  0.00  0.00    -0.331 OA
ATOM      3  C   UNL     1       6.453   0.913  25.277  0.00  0.00    +0.340 C 
ATOM      4  C   UNL     1       6.790   1.844  26.462  0.00  0.00    +0.214 C 
ATOM      5  C   UNL     1       6.591   1.095  27.784  0.00  0.00    +0.180 C 
ATOM      6  C   UNL     1       5.194   0.457  27.873  0.00  0.00    +0.177 C 
ENDROOT
BRANCH   6   7
ATOM      7  O   UNL     1       4.189   1.486  27.980  0.00  0.00    -0.386 OA
ATOM      8  H   UNL     1       3.985   1.594  28.927  0.00  0.00    +0.210 HD
ENDBRANCH   6   7
BRANCH   5   9
ATOM      9  O   UNL     1       6.789   1.991  28.882  0.00  0.00    -0.386 OA
ATOM     10  H   UNL     1       7.357   2.700  28.517  0.00  0.00    +0.210 HD
ENDBRANCH   5   9
BRANCH   4  11
ATOM     11  O   UNL     1       5.926   3.012  26.434  0.00  0.00    -0.383 OA
ATOM     12  H   UNL     1       5.103   2.750  26.887  0.00  0.00    +0.210 HD
ENDBRANCH   4  11
BRANCH   3  13
ATOM     13  O   UNL     1       6.536   1.683  24.064  0.00  0.00    -0.453 OA
BRANCH  13  14
ATOM     14  C   UNL     1       7.770   2.229  23.714  0.00  0.00    +0.214 A 
ATOM     15  C   UNL     1       7.946   3.690  23.454  0.00  0.00    +0.238 A 
ATOM     16  O   UNL     1       7.015   4.399  23.096  0.00  0.00    -0.283 OA
ATOM     17  C   UNL     1       9.300   4.228  23.585  0.00  0.00    +0.109 A 
ATOM     18  C   UNL     1      10.355   3.328  23.480  0.00  0.00    +0.147 A 
ATOM     19  C   UNL     1      11.669   3.799  23.520  0.00  0.00    +0.092 A 
ATOM     20  C   UNL     1      11.895   5.173  23.664  0.00  0.00    +0.124 A 
ATOM     21  C   UNL     1      10.841   6.073  23.780  0.00  0.00    +0.091 A 
ATOM     22  O   UNL     1      10.154   1.972  23.327  0.00  0.00    -0.451 OA
ATOM     23  C   UNL     1       9.536   5.600  23.752  0.00  0.00    +0.135 A 
ATOM     24  C   UNL     1       8.870   1.459  23.537  0.00  0.00    +0.181 A 
BRANCH  24  25
ATOM     25  C   UNL     1       8.799  -0.033  23.520  0.00  0.00    +0.025 A 
ATOM     26  C   UNL     1       8.569  -0.746  22.330  0.00  0.00    +0.015 A 
ATOM     27  C   UNL     1       8.549  -2.150  22.320  0.00  0.00    +0.050 A 
ATOM     28  C   UNL     1       8.755  -2.846  23.501  0.00  0.00    +0.158 A 
ATOM     29  C   UNL     1       8.930  -2.165  24.697  0.00  0.00    +0.159 A 
ATOM     30  C   UNL     1       8.926  -0.772  24.717  0.00  0.00    +0.060 A 
BRANCH  29  31
ATOM     31  O   UNL     1       9.112  -2.906  25.833  0.00  0.00    -0.503 OA
ATOM     32  H   UNL     1       9.900  -3.465  25.716  0.00  0.00    +0.292 HD
ENDBRANCH  29  31
BRANCH  28  33
ATOM     33  O   UNL     1       8.790  -4.211  23.482  0.00  0.00    -0.503 OA
ATOM     34  H   UNL     1       8.107  -4.467  22.829  0.00  0.00    +0.292 HD
ENDBRANCH  28  33
ENDBRANCH  24  25
BRANCH  23  35
ATOM     35  O   UNL     1       8.502   6.474  23.924  0.00  0.00    -0.506 OA
ATOM     36  H   UNL     1       8.699   7.311  23.472  0.00  0.00    +0.292 HD
ENDBRANCH  23  35
BRANCH  20  37
ATOM     37  O   UNL     1      13.152   5.697  23.696  0.00  0.00    -0.507 OA
ATOM     38  H   UNL     1      13.778   5.062  23.319  0.00  0.00    +0.292 HD
ENDBRANCH  20  37
ENDBRANCH  13  14
ENDBRANCH   3  13
BRANCH   1  39
ATOM     39  C   UNL     1       5.720  -1.703  26.580  0.00  0.00    +0.197 C 
BRANCH  39  40
ATOM     40  O   UNL     1       5.153  -2.688  27.447  0.00  0.00    -0.345 OA
BRANCH  40  44
ATOM     41  C   UNL     1       5.627  -5.620  24.501  0.00  0.00    +0.246 C 
ATOM     42  C   UNL     1       4.210  -5.523  25.099  0.00  0.00    +0.264 C 
ATOM     43  C   UNL     1       4.045  -4.195  25.873  0.00  0.00    +0.276 C 
ATOM     44  C   UNL     1       5.221  -4.001  26.863  0.00  0.00    +0.295 C 
ATOM     45  O   UNL     1       6.484  -4.156  26.227  0.00  0.00    -0.344 OA
ATOM     46  C   UNL     1       6.645  -5.440  25.629  0.00  0.00    +0.211 C 
BRANCH  43  47
ATOM     47  O   UNL     1       2.827  -4.245  26.655  0.00  0.00    -0.452 OA
BRANCH  47  48
ATOM     48  C   UNL     1       1.812  -3.432  26.268  0.00  0.00    +0.304 C 
ATOM     49  C   UNL     1       0.552  -4.217  26.071  0.00  0.00    +0.136 C 
ATOM     50  O   UNL     1       1.904  -2.232  26.050  0.00  0.00    -0.251 OA
ENDBRANCH  47  48
ENDBRANCH  43  47
BRANCH  42  51
ATOM     51  O   UNL     1       3.267  -5.614  23.992  0.00  0.00    -0.454 OA
BRANCH  51  52
ATOM     52  C   UNL     1       2.704  -6.822  23.728  0.00  0.00    +0.304 C 
ATOM     53  C   UNL     1       1.590  -6.691  22.730  0.00  0.00    +0.136 C 
ATOM     54  O   UNL     1       3.060  -7.887  24.213  0.00  0.00    -0.251 OA
ENDBRANCH  51  52
ENDBRANCH  42  51
BRANCH  41  55
ATOM     55  O   UNL     1       5.742  -4.563  23.515  0.00  0.00    -0.455 OA
BRANCH  55  57
ATOM     56  C   UNL     1       6.312  -6.345  22.119  0.00  0.00    +0.136 C 
ATOM     57  C   UNL     1       5.861  -4.920  22.213  0.00  0.00    +0.304 C 
ATOM     58  O   UNL     1       5.684  -4.181  21.256  0.00  0.00    -0.251 OA
ENDBRANCH  55  57
ENDBRANCH  41  55
ENDBRANCH  40  44
ENDBRANCH  39  40
ENDBRANCH   1  39
TORSDOF 19
ENDMDL
MODEL 3
REMARK VINA RESULT:      -6.8      1.871      5.501
REMARK  Name = 
REMARK  22 active torsions:
REMARK  status: ('A' for Active; 'I' for Inactive)
REMARK    1  A    between atoms: C_1  and  C_2
REMARK    2  A    between atoms: C_2  and  O_4
REMARK    3  A    between atoms: O_4  and  C_5
REMARK    4  A    between atoms: C_9  and  O_22
REMARK    5  A    between atoms: C_11  and  O_18
REMARK    6  A    between atoms: C_12  and  O_14
REMARK    7  A    between atoms: O_14  and  C_15
REMARK    8  A    between atoms: C_15  and  C_17
REMARK    9  A    between atoms: O_18  and  C_19
REMARK   10  A    between atoms: C_19  and  C_21
REMARK   11  A    between atoms: O_22  and  C_23
REMARK   12  A    between atoms: C_23  and  C_24
REMARK   13  A    between atoms: C_25  and  O_56
REMARK   14  A    between atoms: C_27  and  O_55
REMARK   15  A    between atoms: C_28  and  O_54
REMARK   16  A    between atoms: C_29  and  O_32
REMARK   17  A    between atoms: O_32  and  C_33
REMARK   18  A    between atoms: C_34  and  C_46
REMARK   19  A    between atoms: C_38  and  O_45
REMARK   20  A    between atoms: C_40  and  O_44
REMARK   21  A    between atoms: C_48  and  O_53
REMARK   22  A    between atoms: C_49  and  O_52
REMARK                            x       y       z     vdW  Elec       q    Type
REMARK                         _______ _______ _______ _____ _____    ______ ____
ROOT
ATOM      1  C   UNL     1       8.896   0.241  24.602  0.00  0.00    +0.179 C 
ATOM      2  O   UNL     1       8.775   1.651  24.271  0.00  0.00    -0.331 OA
ATOM      3  C   UNL     1       8.038   1.891  23.051  0.00  0.00    +0.340 C 
ATOM      4  C   UNL     1       8.812   1.266  21.869  0.00  0.00    +0.214 C 
ATOM      5  C   UNL     1       9.035  -0.228  22.127  0.00  0.00    +0.180 C 
ATOM      6  C   UNL     1       9.686  -0.479  23.498  0.00  0.00    +0.177 C 
ENDROOT
BRANCH   6   7
ATOM      7  O   UNL     1      11.042   0.011  23.495  0.00  0.00    -0.386 OA
ATOM      8  H   UNL     1      11.356  -0.001  24.418  0.00  0.00    +0.210 HD
ENDBRANCH   6   7
BRANCH   5   9
ATOM      9  O   UNL     1       9.852  -0.780  21.090  0.00  0.00    -0.386 OA
ATOM     10  H   UNL     1       9.347  -0.612  20.268  0.00  0.00    +0.210 HD
ENDBRANCH   5   9
BRANCH   4  11
ATOM     11  O   UNL     1      10.096   1.927  21.715  0.00  0.00    -0.383 OA
ATOM     12  H   UNL     1      10.773   1.252  21.910  0.00  0.00    +0.210 HD
ENDBRANCH   4  11
BRANCH   3  13
ATOM     13  O   UNL     1       7.952   3.310  22.831  0.00  0.00    -0.453 OA
BRANCH  13  14
ATOM     14  C   UNL     1       6.977   4.028  23.524  0.00  0.00    +0.214 A 
ATOM     15  C   UNL     1       5.517   3.793  23.309  0.00  0.00    +0.238 A 
ATOM     16  O   UNL     1       5.084   3.329  22.262  0.00  0.00    -0.283 OA
ATOM     17  C   UNL     1       4.614   4.203  24.385  0.00  0.00    +0.109 A 
ATOM     18  C   UNL     1       5.084   5.158  25.279  0.00  0.00    +0.147 A 
ATOM     19  C   UNL     1       4.237   5.642  26.278  0.00  0.00    +0.092 A 
ATOM     20  C   UNL     1       2.928   5.152  26.355  0.00  0.00    +0.124 A 
ATOM     21  C   UNL     1       2.460   4.189  25.468  0.00  0.00    +0.091 A 
ATOM     22  O   UNL     1       6.367   5.661  25.213  0.00  0.00    -0.451 OA
ATOM     23  C   UNL     1       3.309   3.702  24.483  0.00  0.00    +0.135 A 
ATOM     24  C   UNL     1       7.297   5.015  24.393  0.00  0.00    +0.181 A 
BRANCH  24  25
ATOM     25  C   UNL     1       8.693   5.529  24.531  0.00  0.00    +0.025 A 
ATOM     26  C   UNL     1       9.088   6.299  25.639  0.00  0.00    +0.015 A 
ATOM     27  C   UNL     1      10.415   6.739  25.779  0.00  0.00    +0.050 A 
ATOM     28  C   UNL     1      11.350   6.412  24.809  0.00  0.00    +0.158 A 
ATOM     29  C   UNL     1      10.972   5.700  23.679  0.00  0.00    +0.159 A 
ATOM     30  C   UNL     1       9.652   5.283  23.524  0.00  0.00    +0.060 A 
BRANCH  29  31
ATOM     31  O   UNL     1      11.934   5.422  22.748  0.00  0.00    -0.503 OA
ATOM     32  H   UNL     1      12.777   5.263  23.210  0.00  0.00    +0.292 HD
ENDBRANCH  29  31
BRANCH  28  33
ATOM     33  O   UNL     1      12.651   6.792  24.971  0.00  0.00    -0.503 OA
ATOM     34  H   UNL     1      12.929   6.371  25.810  0.00  0.00    +0.292 HD
ENDBRANCH  28  33
ENDBRANCH  24  25
BRANCH  23  35
ATOM     35  O   UNL     1       2.871   2.714  23.649  0.00  0.00    -0.506 OA
ATOM     36  H   UNL     1       2.247   2.138  24.119  0.00  0.00    +0.292 HD
ENDBRANCH  23  35
BRANCH  20  37
ATOM     37  O   UNL     1       2.048   5.593  27.297  0.00  0.00    -0.507 OA
ATOM     38  H   UNL     1       1.301   6.030  26.865  0.00  0.00    +0.292 HD
ENDBRANCH  20  37
ENDBRANCH  13  14
ENDBRANCH   3  13
BRANCH   1  39
ATOM     39  C   UNL     1       7.539  -0.425  24.912  0.00  0.00    +0.197 C 
BRANCH  39  40
ATOM     40  O   UNL     1       7.676  -1.841  25.056  0.00  0.00    -0.345 OA
BRANCH  40  44
ATOM     41  C   UNL     1       4.887  -4.432  26.792  0.00  0.00    +0.246 C 
ATOM     42  C   UNL     1       5.163  -4.682  25.296  0.00  0.00    +0.264 C 
ATOM     43  C   UNL     1       6.452  -3.949  24.860  0.00  0.00    +0.276 C 
ATOM     44  C   UNL     1       6.405  -2.467  25.309  0.00  0.00    +0.295 C 
ATOM     45  O   UNL     1       6.097  -2.339  26.693  0.00  0.00    -0.344 OA
ATOM     46  C   UNL     1       4.841  -2.922  27.033  0.00  0.00    +0.211 C 
BRANCH  43  47
ATOM     47  O   UNL     1       6.541  -3.958  23.414  0.00  0.00    -0.452 OA
BRANCH  47  48
ATOM     48  C   UNL     1       7.329  -4.909  22.851  0.00  0.00    +0.304 C 
ATOM     49  C   UNL     1       6.754  -5.366  21.546  0.00  0.00    +0.136 C 
ATOM     50  O   UNL     1       8.340  -5.382  23.350  0.00  0.00    -0.251 OA
ENDBRANCH  47  48
ENDBRANCH  43  47
BRANCH  42  51
ATOM     51  O   UNL     1       5.282  -6.122  25.114  0.00  0.00    -0.454 OA
BRANCH  51  52
ATOM     52  C   UNL     1       4.242  -6.785  24.547  0.00  0.00    +0.304 C 
ATOM     53  C   UNL     1       3.617  -5.972  23.450  0.00  0.00    +0.136 C 
ATOM     54  O   UNL     1       3.863  -7.905  24.862  0.00  0.00    -0.251 OA
ENDBRANCH  51  52
ENDBRANCH  42  51
BRANCH  41  55
ATOM     55  O   UNL     1       5.971  -5.051  27.529  0.00  0.00    -0.455 OA
BRANCH  55  57
ATOM     56  C   UNL     1       4.731  -6.810  28.436  0.00  0.00    +0.136 C 
ATOM     57  C   UNL     1       5.670  -5.672  28.696  0.00  0.00    +0.304 C 
ATOM     58  O   UNL     1       6.058  -5.329  29.803  0.00  0.00    -0.251 OA
ENDBRANCH  55  57
ENDBRANCH  41  55
ENDBRANCH  40  44
ENDBRANCH  39  40
ENDBRANCH   1  39
TORSDOF 19
ENDMDL
MODEL 4
REMARK VINA RESULT:      -6.8      2.032      6.186
REMARK  Name = 
REMARK  22 active torsions:
REMARK  status: ('A' for Active; 'I' for Inactive)
REMARK    1  A    between atoms: C_1  and  C_2
REMARK    2  A    between atoms: C_2  and  O_4
REMARK    3  A    between atoms: O_4  and  C_5
REMARK    4  A    between atoms: C_9  and  O_22
REMARK    5  A    between atoms: C_11  and  O_18
REMARK    6  A    between atoms: C_12  and  O_14
REMARK    7  A    between atoms: O_14  and  C_15
REMARK    8  A    between atoms: C_15  and  C_17
REMARK    9  A    between atoms: O_18  and  C_19
REMARK   10  A    between atoms: C_19  and  C_21
REMARK   11  A    between atoms: O_22  and  C_23
REMARK   12  A    between atoms: C_23  and  C_24
REMARK   13  A    between atoms: C_25  and  O_56
REMARK   14  A    between atoms: C_27  and  O_55
REMARK   15  A    between atoms: C_28  and  O_54
REMARK   16  A    between atoms: C_29  and  O_32
REMARK   17  A    between atoms: O_32  and  C_33
REMARK   18  A    between atoms: C_34  and  C_46
REMARK   19  A    between atoms: C_38  and  O_45
REMARK   20  A    between atoms: C_40  and  O_44
REMARK   21  A    between atoms: C_48  and  O_53
REMARK   22  A    between atoms: C_49  and  O_52
REMARK                            x       y       z     vdW  Elec       q    Type
REMARK                         _______ _______ _______ _____ _____    ______ ____
ROOT
ATOM      1  C   UNL     1       9.209   0.383  24.653  0.00  0.00    +0.179 C 
ATOM      2  O   UNL     1       9.000   1.771  24.274  0.00  0.00    -0.331 OA
ATOM      3  C   UNL     1       8.134   1.927  23.127  0.00  0.00    +0.340 C 
ATOM      4  C   UNL     1       8.809   1.272  21.900  0.00  0.00    +0.214 C 
ATOM      5  C   UNL     1       9.115  -0.199  22.200  0.00  0.00    +0.180 C 
ATOM      6  C   UNL     1       9.911  -0.361  23.506  0.00  0.00    +0.177 C 
ENDROOT
BRANCH   6   7
ATOM      7  O   UNL     1      11.240   0.175  23.342  0.00  0.00    -0.386 OA
ATOM      8  H   UNL     1      11.854  -0.581  23.298  0.00  0.00    +0.210 HD
ENDBRANCH   6   7
BRANCH   5   9
ATOM      9  O   UNL     1       9.844  -0.772  21.110  0.00  0.00    -0.386 OA
ATOM     10  H   UNL     1      10.714  -0.322  21.138  0.00  0.00    +0.210 HD
ENDBRANCH   5   9
BRANCH   4  11
ATOM     11  O   UNL     1      10.044   1.969  21.586  0.00  0.00    -0.383 OA
ATOM     12  H   UNL     1      10.698   1.277  21.374  0.00  0.00    +0.210 HD
ENDBRANCH   4  11
BRANCH   3  13
ATOM     13  O   UNL     1       7.971   3.329  22.853  0.00  0.00    -0.453 OA
BRANCH  13  14
ATOM     14  C   UNL     1       6.994   4.029  23.560  0.00  0.00    +0.214 A 
ATOM     15  C   UNL     1       5.535   3.783  23.351  0.00  0.00    +0.238 A 
ATOM     16  O   UNL     1       5.100   3.328  22.301  0.00  0.00    -0.283 OA
ATOM     17  C   UNL     1       4.634   4.173  24.437  0.00  0.00    +0.109 A 
ATOM     18  C   UNL     1       5.100   5.122  25.339  0.00  0.00    +0.147 A 
ATOM     19  C   UNL     1       4.255   5.587  26.349  0.00  0.00    +0.092 A 
ATOM     20  C   UNL     1       2.951   5.084  26.428  0.00  0.00    +0.124 A 
ATOM     21  C   UNL     1       2.487   4.126  25.532  0.00  0.00    +0.091 A 
ATOM     22  O   UNL     1       6.378   5.638  25.272  0.00  0.00    -0.451 OA
ATOM     23  C   UNL     1       3.335   3.658  24.537  0.00  0.00    +0.135 A 
ATOM     24  C   UNL     1       7.309   5.010  24.439  0.00  0.00    +0.181 A 
BRANCH  24  25
ATOM     25  C   UNL     1       8.701   5.536  24.574  0.00  0.00    +0.025 A 
ATOM     26  C   UNL     1       9.094   6.301  25.687  0.00  0.00    +0.015 A 
ATOM     27  C   UNL     1      10.417   6.752  25.823  0.00  0.00    +0.050 A 
ATOM     28  C   UNL     1      11.351   6.441  24.848  0.00  0.00    +0.158 A 
ATOM     29  C   UNL     1      10.975   5.732  23.715  0.00  0.00    +0.159 A 
ATOM     30  C   UNL     1       9.659   5.304  23.562  0.00  0.00    +0.060 A 
BRANCH  29  31
ATOM     31  O   UNL     1      11.936   5.470  22.778  0.00  0.00    -0.503 OA
ATOM     32  H   UNL     1      11.992   4.506  22.651  0.00  0.00    +0.292 HD
ENDBRANCH  29  31
BRANCH  28  33
ATOM     33  O   UNL     1      12.649   6.831  25.008  0.00  0.00    -0.503 OA
ATOM     34  H   UNL     1      12.656   7.333  25.848  0.00  0.00    +0.292 HD
ENDBRANCH  28  33
ENDBRANCH  24  25
BRANCH  23  35
ATOM     35  O   UNL     1       2.901   2.676  23.694  0.00  0.00    -0.506 OA
ATOM     36  H   UNL     1       1.941   2.751  23.567  0.00  0.00    +0.292 HD
ENDBRANCH  23  35
BRANCH  20  37
ATOM     37  O   UNL     1       2.073   5.506  27.380  0.00  0.00    -0.507 OA
ATOM     38  H   UNL     1       1.517   4.765  27.661  0.00  0.00    +0.292 HD
ENDBRANCH  20  37
ENDBRANCH  13  14
ENDBRANCH   3  13
BRANCH   1  39
ATOM     39  C   UNL     1       7.918  -0.313  25.130  0.00  0.00    +0.197 C 
BRANCH  39  40
ATOM     40  O   UNL     1       8.156  -1.109  26.295  0.00  0.00    -0.345 OA
BRANCH  40  44
ATOM     41  C   UNL     1       7.257  -4.564  24.114  0.00  0.00    +0.246 C 
ATOM     42  C   UNL     1       6.204  -4.170  25.170  0.00  0.00    +0.264 C 
ATOM     43  C   UNL     1       6.433  -2.713  25.635  0.00  0.00    +0.276 C 
ATOM     44  C   UNL     1       7.916  -2.503  26.034  0.00  0.00    +0.295 C 
ATOM     45  O   UNL     1       8.808  -2.940  25.015  0.00  0.00    -0.344 OA
ATOM     46  C   UNL     1       8.649  -4.321  24.699  0.00  0.00    +0.211 C 
BRANCH  43  47
ATOM     47  O   UNL     1       5.630  -2.456  26.813  0.00  0.00    -0.452 OA
BRANCH  47  48
ATOM     48  C   UNL     1       4.676  -1.496  26.711  0.00  0.00    +0.304 C 
ATOM     49  C   UNL     1       4.955  -0.372  27.660  0.00  0.00    +0.136 C 
ATOM     50  O   UNL     1       3.688  -1.548  25.993  0.00  0.00    -0.251 OA
ENDBRANCH  47  48
ENDBRANCH  43  47
BRANCH  42  51
ATOM     51  O   UNL     1       4.894  -4.333  24.555  0.00  0.00    -0.454 OA
BRANCH  51  52
ATOM     52  C   UNL     1       4.341  -5.573  24.546  0.00  0.00    +0.304 C 
ATOM     53  C   UNL     1       3.443  -5.754  23.356  0.00  0.00    +0.136 C 
ATOM     54  O   UNL     1       4.552  -6.446  25.377  0.00  0.00    -0.251 OA
ENDBRANCH  51  52
ENDBRANCH  42  51
BRANCH  41  55
ATOM     55  O   UNL     1       7.021  -3.729  22.953  0.00  0.00    -0.455 OA
BRANCH  55  57
ATOM     56  C   UNL     1       7.069  -5.674  21.661  0.00  0.00    +0.136 C 
ATOM     57  C   UNL     1       6.481  -4.310  21.853  0.00  0.00    +0.304 C 
ATOM     58  O   UNL     1       5.677  -3.785  21.096  0.00  0.00    -0.251 OA
ENDBRANCH  55  57
ENDBRANCH  41  55
ENDBRANCH  40  44
ENDBRANCH  39  40
ENDBRANCH   1  39
TORSDOF 19
ENDMDL
MODEL 5
REMARK VINA RESULT:      -6.8      1.905      6.488
REMARK  Name = 
REMARK  22 active torsions:
REMARK  status: ('A' for Active; 'I' for Inactive)
REMARK    1  A    between atoms: C_1  and  C_2
REMARK    2  A    between atoms: C_2  and  O_4
REMARK    3  A    between atoms: O_4  and  C_5
REMARK    4  A    between atoms: C_9  and  O_22
REMARK    5  A    between atoms: C_11  and  O_18
REMARK    6  A    between atoms: C_12  and  O_14
REMARK    7  A    between atoms: O_14  and  C_15
REMARK    8  A    between atoms: C_15  and  C_17
REMARK    9  A    between atoms: O_18  and  C_19
REMARK   10  A    between atoms: C_19  and  C_21
REMARK   11  A    between atoms: O_22  and  C_23
REMARK   12  A    between atoms: C_23  and  C_24
REMARK   13  A    between atoms: C_25  and  O_56
REMARK   14  A    between atoms: C_27  and  O_55
REMARK   15  A    between atoms: C_28  and  O_54
REMARK   16  A    between atoms: C_29  and  O_32
REMARK   17  A    between atoms: O_32  and  C_33
REMARK   18  A    between atoms: C_34  and  C_46
REMARK   19  A    between atoms: C_38  and  O_45
REMARK   20  A    between atoms: C_40  and  O_44
REMARK   21  A    between atoms: C_48  and  O_53
REMARK   22  A    between atoms: C_49  and  O_52
REMARK                            x       y       z     vdW  Elec       q    Type
REMARK                         _______ _______ _______ _____ _____    ______ ____
ROOT
ATOM      1  C   UNL     1       8.724  -2.491  23.356  0.00  0.00    +0.179 C 
ATOM      2  O   UNL     1       8.638  -1.644  24.534  0.00  0.00    -0.331 OA
ATOM      3  C   UNL     1       7.804  -0.479  24.343  0.00  0.00    +0.340 C 
ATOM      4  C   UNL     1       8.437   0.414  23.252  0.00  0.00    +0.214 C 
ATOM      5  C   UNL     1       8.615  -0.391  21.960  0.00  0.00    +0.180 C 
ATOM      6  C   UNL     1       9.377  -1.705  22.207  0.00  0.00    +0.177 C 
ENDROOT
BRANCH   6   7
ATOM      7  O   UNL     1      10.748  -1.421  22.552  0.00  0.00    -0.386 OA
ATOM      8  H   UNL     1      10.821  -0.457  22.677  0.00  0.00    +0.210 HD
ENDBRANCH   6   7
BRANCH   5   9
ATOM      9  O   UNL     1       9.308   0.399  20.990  0.00  0.00    -0.386 OA
ATOM     10  H   UNL     1      10.213   0.490  21.353  0.00  0.00    +0.210 HD
ENDBRANCH   5   9
BRANCH   4  11
ATOM     11  O   UNL     1       9.731   0.899  23.701  0.00  0.00    -0.383 OA
ATOM     12  H   UNL     1      10.396   0.307  23.301  0.00  0.00    +0.210 HD
ENDBRANCH   4  11
BRANCH   3  13
ATOM     13  O   UNL     1       7.763   0.272  25.569  0.00  0.00    -0.453 OA
BRANCH  13  14
ATOM     14  C   UNL     1       6.519   0.675  26.054  0.00  0.00    +0.214 A 
ATOM     15  C   UNL     1       5.554  -0.290  26.662  0.00  0.00    +0.238 A 
ATOM     16  O   UNL     1       5.570  -1.482  26.383  0.00  0.00    -0.283 OA
ATOM     17  C   UNL     1       4.540   0.262  27.560  0.00  0.00    +0.109 A 
ATOM     18  C   UNL     1       4.249   1.616  27.433  0.00  0.00    +0.147 A 
ATOM     19  C   UNL     1       3.235   2.179  28.212  0.00  0.00    +0.092 A 
ATOM     20  C   UNL     1       2.532   1.362  29.105  0.00  0.00    +0.124 A 
ATOM     21  C   UNL     1       2.830   0.010  29.241  0.00  0.00    +0.091 A 
ATOM     22  O   UNL     1       4.922   2.435  26.551  0.00  0.00    -0.451 OA
ATOM     23  C   UNL     1       3.847  -0.543  28.474  0.00  0.00    +0.135 A 
ATOM     24  C   UNL     1       6.093   1.957  25.955  0.00  0.00    +0.181 A 
BRANCH  24  25
ATOM     25  C   UNL     1       6.836   2.980  25.160  0.00  0.00    +0.025 A 
ATOM     26  C   UNL     1       7.983   3.616  25.667  0.00  0.00    +0.015 A 
ATOM     27  C   UNL     1       8.698   4.543  24.892  0.00  0.00    +0.050 A 
ATOM     28  C   UNL     1       8.267   4.841  23.609  0.00  0.00    +0.158 A 
ATOM     29  C   UNL     1       7.108   4.267  23.106  0.00  0.00    +0.159 A 
ATOM     30  C   UNL     1       6.381   3.365  23.880  0.00  0.00    +0.060 A 
BRANCH  29  31
ATOM     31  O   UNL     1       6.722   4.611  21.840  0.00  0.00    -0.503 OA
ATOM     32  H   UNL     1       6.428   5.540  21.846  0.00  0.00    +0.292 HD
ENDBRANCH  29  31
BRANCH  28  33
ATOM     33  O   UNL     1       8.993   5.700  22.836  0.00  0.00    -0.503 OA
ATOM     34  H   UNL     1       9.475   5.123  22.209  0.00  0.00    +0.292 HD
ENDBRANCH  28  33
ENDBRANCH  24  25
BRANCH  23  35
ATOM     35  O   UNL     1       4.180  -1.855  28.648  0.00  0.00    -0.506 OA
ATOM     36  H   UNL     1       4.622  -2.191  27.852  0.00  0.00    +0.292 HD
ENDBRANCH  23  35
BRANCH  20  37
ATOM     37  O   UNL     1       1.524   1.846  29.883  0.00  0.00    -0.507 OA
ATOM     38  H   UNL     1       1.858   2.030  30.772  0.00  0.00    +0.292 HD
ENDBRANCH  20  37
ENDBRANCH  13  14
ENDBRANCH   3  13
BRANCH   1  39
ATOM     39  C   UNL     1       7.373  -3.125  22.969  0.00  0.00    +0.197 C 
BRANCH  39  40
ATOM     40  O   UNL     1       7.511  -4.523  22.703  0.00  0.00    -0.345 OA
BRANCH  40  44
ATOM     41  C   UNL     1       3.847  -5.249  24.586  0.00  0.00    +0.246 C 
ATOM     42  C   UNL     1       5.086  -5.705  25.380  0.00  0.00    +0.264 C 
ATOM     43  C   UNL     1       6.364  -5.061  24.794  0.00  0.00    +0.276 C 
ATOM     44  C   UNL     1       6.417  -5.273  23.260  0.00  0.00    +0.295 C 
ATOM     45  O   UNL     1       5.210  -4.866  22.624  0.00  0.00    -0.344 OA
ATOM     46  C   UNL     1       4.070  -5.571  23.107  0.00  0.00    +0.211 C 
BRANCH  43  47
ATOM     47  O   UNL     1       7.529  -5.711  25.359  0.00  0.00    -0.452 OA
BRANCH  47  48
ATOM     48  C   UNL     1       8.327  -4.959  26.159  0.00  0.00    +0.304 C 
ATOM     49  C   UNL     1       9.756  -5.059  25.724  0.00  0.00    +0.136 C 
ATOM     50  O   UNL     1       7.958  -4.326  27.139  0.00  0.00    -0.251 OA
ENDBRANCH  47  48
ENDBRANCH  43  47
BRANCH  42  51
ATOM     51  O   UNL     1       4.880  -5.311  26.767  0.00  0.00    -0.454 OA
BRANCH  51  52
ATOM     52  C   UNL     1       4.827  -6.287  27.710  0.00  0.00    +0.304 C 
ATOM     53  C   UNL     1       3.634  -6.110  28.603  0.00  0.00    +0.136 C 
ATOM     54  O   UNL     1       5.626  -7.207  27.817  0.00  0.00    -0.251 OA
ENDBRANCH  51  52
ENDBRANCH  42  51
BRANCH  41  55
ATOM     55  O   UNL     1       3.712  -3.821  24.799  0.00  0.00    -0.455 OA
BRANCH  55  57
ATOM     56  C   UNL     1       1.545  -4.433  25.418  0.00  0.00    +0.136 C 
ATOM     57  C   UNL     1       2.608  -3.378  25.450  0.00  0.00    +0.304 C 
ATOM     58  O   UNL     1       2.473  -2.268  25.942  0.00  0.00    -0.251 OA
ENDBRANCH  55  57
ENDBRANCH  41  55
ENDBRANCH  40  44
ENDBRANCH  39  40
ENDBRANCH   1  39
TORSDOF 19
ENDMDL
MODEL 6
REMARK VINA RESULT:      -6.6      2.007      5.146
REMARK  Name = 
REMARK  22 active torsions:
REMARK  status: ('A' for Active; 'I' for Inactive)
REMARK    1  A    between atoms: C_1  and  C_2
REMARK    2  A    between atoms: C_2  and  O_4
REMARK    3  A    between atoms: O_4  and  C_5
REMARK    4  A    between atoms: C_9  and  O_22
REMARK    5  A    between atoms: C_11  and  O_18
REMARK    6  A    between atoms: C_12  and  O_14
REMARK    7  A    between atoms: O_14  and  C_15
REMARK    8  A    between atoms: C_15  and  C_17
REMARK    9  A    between atoms: O_18  and  C_19
REMARK   10  A    between atoms: C_19  and  C_21
REMARK   11  A    between atoms: O_22  and  C_23
REMARK   12  A    between atoms: C_23  and  C_24
REMARK   13  A    between atoms: C_25  and  O_56
REMARK   14  A    between atoms: C_27  and  O_55
REMARK   15  A    between atoms: C_28  and  O_54
REMARK   16  A    between atoms: C_29  and  O_32
REMARK   17  A    between atoms: O_32  and  C_33
REMARK   18  A    between atoms: C_34  and  C_46
REMARK   19  A    between atoms: C_38  and  O_45
REMARK   20  A    between atoms: C_40  and  O_44
REMARK   21  A    between atoms: C_48  and  O_53
REMARK   22  A    between atoms: C_49  and  O_52
REMARK                            x       y       z     vdW  Elec       q    Type
REMARK                         _______ _______ _______ _____ _____    ______ ____
ROOT
ATOM      1  C   UNL     1       8.987  -2.425  24.092  0.00  0.00    +0.179 C 
ATOM      2  O   UNL     1       9.127  -1.191  24.847  0.00  0.00    -0.331 OA
ATOM      3  C   UNL     1       8.375  -0.090  24.290  0.00  0.00    +0.340 C 
ATOM      4  C   UNL     1       8.932   0.235  22.886  0.00  0.00    +0.214 C 
ATOM      5  C   UNL     1       8.870  -1.015  22.002  0.00  0.00    +0.180 C 
ATOM      6  C   UNL     1       9.546  -2.223  22.674  0.00  0.00    +0.177 C 
ENDROOT
BRANCH   6   7
ATOM      7  O   UNL     1      10.970  -2.007  22.757  0.00  0.00    -0.386 OA
ATOM      8  H   UNL     1      11.383  -2.528  22.045  0.00  0.00    +0.210 HD
ENDBRANCH   6   7
BRANCH   5   9
ATOM      9  O   UNL     1       9.494  -0.747  20.742  0.00  0.00    -0.386 OA
ATOM     10  H   UNL     1       8.881  -1.131  20.082  0.00  0.00    +0.210 HD
ENDBRANCH   5   9
BRANCH   4  11
ATOM     11  O   UNL     1      10.309   0.684  22.992  0.00  0.00    -0.383 OA
ATOM     12  H   UNL     1      10.623   0.391  23.868  0.00  0.00    +0.210 HD
ENDBRANCH   4  11
BRANCH   3  13
ATOM     13  O   UNL     1       8.558   1.069  25.123  0.00  0.00    -0.453 OA
BRANCH  13  14
ATOM     14  C   UNL     1       7.672   2.135  24.974  0.00  0.00    +0.214 A 
ATOM     15  C   UNL     1       8.111   3.465  24.454  0.00  0.00    +0.238 A 
ATOM     16  O   UNL     1       9.270   3.847  24.553  0.00  0.00    -0.283 OA
ATOM     17  C   UNL     1       7.078   4.326  23.878  0.00  0.00    +0.109 A 
ATOM     18  C   UNL     1       5.762   4.079  24.252  0.00  0.00    +0.147 A 
ATOM     19  C   UNL     1       4.745   4.918  23.793  0.00  0.00    +0.092 A 
ATOM     20  C   UNL     1       5.076   5.995  22.963  0.00  0.00    +0.124 A 
ATOM     21  C   UNL     1       6.391   6.237  22.578  0.00  0.00    +0.091 A 
ATOM     22  O   UNL     1       5.416   3.029  25.079  0.00  0.00    -0.451 OA
ATOM     23  C   UNL     1       7.398   5.393  23.028  0.00  0.00    +0.135 A 
ATOM     24  C   UNL     1       6.371   2.042  25.340  0.00  0.00    +0.181 A 
BRANCH  24  25
ATOM     25  C   UNL     1       5.843   0.866  26.096  0.00  0.00    +0.025 A 
ATOM     26  C   UNL     1       5.918   0.799  27.499  0.00  0.00    +0.015 A 
ATOM     27  C   UNL     1       5.378  -0.291  28.201  0.00  0.00    +0.050 A 
ATOM     28  C   UNL     1       4.763  -1.318  27.503  0.00  0.00    +0.158 A 
ATOM     29  C   UNL     1       4.723  -1.300  26.115  0.00  0.00    +0.159 A 
ATOM     30  C   UNL     1       5.280  -0.234  25.413  0.00  0.00    +0.060 A 
BRANCH  29  31
ATOM     31  O   UNL     1       4.118  -2.350  25.480  0.00  0.00    -0.503 OA
ATOM     32  H   UNL     1       4.147  -3.126  26.067  0.00  0.00    +0.292 HD
ENDBRANCH  29  31
BRANCH  28  33
ATOM     33  O   UNL     1       4.189  -2.350  28.188  0.00  0.00    -0.503 OA
ATOM     34  H   UNL     1       4.942  -2.902  28.481  0.00  0.00    +0.292 HD
ENDBRANCH  28  33
ENDBRANCH  24  25
BRANCH  23  35
ATOM     35  O   UNL     1       8.679   5.595  22.604  0.00  0.00    -0.506 OA
ATOM     36  H   UNL     1       8.723   5.519  21.637  0.00  0.00    +0.292 HD
ENDBRANCH  23  35
BRANCH  20  37
ATOM     37  O   UNL     1       4.133   6.858  22.492  0.00  0.00    -0.507 OA
ATOM     38  H   UNL     1       4.090   7.637  23.066  0.00  0.00    +0.292 HD
ENDBRANCH  20  37
ENDBRANCH  13  14
ENDBRANCH   3  13
BRANCH   1  39
ATOM     39  C   UNL     1       7.548  -2.981  24.105  0.00  0.00    +0.197 C 
BRANCH  39  40
ATOM     40  O   UNL     1       7.419  -4.066  25.027  0.00  0.00    -0.345 OA
BRANCH  40  44
ATOM     41  C   UNL     1       4.019  -6.007  23.553  0.00  0.00    +0.246 C 
ATOM     42  C   UNL     1       4.562  -6.568  24.882  0.00  0.00    +0.264 C 
ATOM     43  C   UNL     1       5.553  -5.568  25.519  0.00  0.00    +0.276 C 
ATOM     44  C   UNL     1       6.613  -5.125  24.479  0.00  0.00    +0.295 C 
ATOM     45  O   UNL     1       6.014  -4.668  23.271  0.00  0.00    -0.344 OA
ATOM     46  C   UNL     1       5.204  -5.662  22.649  0.00  0.00    +0.211 C 
BRANCH  43  47
ATOM     47  O   UNL     1       6.259  -6.219  26.603  0.00  0.00    -0.452 OA
BRANCH  47  48
ATOM     48  C   UNL     1       6.035  -5.750  27.856  0.00  0.00    +0.304 C 
ATOM     49  C   UNL     1       5.353  -6.787  28.695  0.00  0.00    +0.136 C 
ATOM     50  O   UNL     1       6.292  -4.621  28.250  0.00  0.00    -0.251 OA
ENDBRANCH  47  48
ENDBRANCH  43  47
BRANCH  42  51
ATOM     51  O   UNL     1       3.416  -6.808  25.749  0.00  0.00    -0.454 OA
BRANCH  51  52
ATOM     52  C   UNL     1       2.590  -7.842  25.447  0.00  0.00    +0.304 C 
ATOM     53  C   UNL     1       1.292  -7.732  26.193  0.00  0.00    +0.136 C 
ATOM     54  O   UNL     1       2.845  -8.742  24.658  0.00  0.00    -0.251 OA
ENDBRANCH  51  52
ENDBRANCH  42  51
BRANCH  41  55
ATOM     55  O   UNL     1       3.244  -4.826  23.879  0.00  0.00    -0.455 OA
BRANCH  55  57
ATOM     56  C   UNL     1       1.163  -4.173  24.713  0.00  0.00    +0.136 C 
ATOM     57  C   UNL     1       1.916  -4.842  23.604  0.00  0.00    +0.304 C 
ATOM     58  O   UNL     1       1.400  -5.369  22.630  0.00  0.00    -0.251 OA
ENDBRANCH  55  57
ENDBRANCH  41  55
ENDBRANCH  40  44
ENDBRANCH  39  40
ENDBRANCH   1  39
TORSDOF 19
ENDMDL
MODEL 7
REMARK VINA RESULT:      -6.4      2.172      5.351
REMARK  Name = 
REMARK  22 active torsions:
REMARK  status: ('A' for Active; 'I' for Inactive)
REMARK    1  A    between atoms: C_1  and  C_2
REMARK    2  A    between atoms: C_2  and  O_4
REMARK    3  A    between atoms: O_4  and  C_5
REMARK    4  A    between atoms: C_9  and  O_22
REMARK    5  A    between atoms: C_11  and  O_18
REMARK    6  A    between atoms: C_12  and  O_14
REMARK    7  A    between atoms: O_14  and  C_15
REMARK    8  A    between atoms: C_15  and  C_17
REMARK    9  A    between atoms: O_18  and  C_19
REMARK   10  A    between atoms: C_19  and  C_21
REMARK   11  A    between atoms: O_22  and  C_23
REMARK   12  A    between atoms: C_23  and  C_24
REMARK   13  A    between atoms: C_25  and  O_56
REMARK   14  A    between atoms: C_27  and  O_55
REMARK   15  A    between atoms: C_28  and  O_54
REMARK   16  A    between atoms: C_29  and  O_32
REMARK   17  A    between atoms: O_32  and  C_33
REMARK   18  A    between atoms: C_34  and  C_46
REMARK   19  A    between atoms: C_38  and  O_45
REMARK   20  A    between atoms: C_40  and  O_44
REMARK   21  A    between atoms: C_48  and  O_53
REMARK   22  A    between atoms: C_49  and  O_52
REMARK                            x       y       z     vdW  Elec       q    Type
REMARK                         _______ _______ _______ _____ _____    ______ ____
ROOT
ATOM      1  C   UNL     1       4.465  -2.325  26.727  0.00  0.00    +0.179 C 
ATOM      2  O   UNL     1       4.610  -1.453  25.573  0.00  0.00    -0.331 OA
ATOM      3  C   UNL     1       5.406  -0.277  25.842  0.00  0.00    +0.340 C 
ATOM      4  C   UNL     1       4.685   0.581  26.905  0.00  0.00    +0.214 C 
ATOM      5  C   UNL     1       4.440  -0.253  28.167  0.00  0.00    +0.180 C 
ATOM      6  C   UNL     1       3.723  -1.576  27.845  0.00  0.00    +0.177 C 
ENDROOT
BRANCH   6   7
ATOM      7  O   UNL     1       2.372  -1.311  27.417  0.00  0.00    -0.386 OA
ATOM      8  H   UNL     1       1.777  -1.788  28.024  0.00  0.00    +0.210 HD
ENDBRANCH   6   7
BRANCH   5   9
ATOM      9  O   UNL     1       3.669   0.504  29.105  0.00  0.00    -0.386 OA
ATOM     10  H   UNL     1       4.058   1.402  29.070  0.00  0.00    +0.210 HD
ENDBRANCH   5   9
BRANCH   4  11
ATOM     11  O   UNL     1       3.413   1.050  26.382  0.00  0.00    -0.383 OA
ATOM     12  H   UNL     1       3.396   0.793  25.441  0.00  0.00    +0.210 HD
ENDBRANCH   4  11
BRANCH   3  13
ATOM     13  O   UNL     1       5.511   0.500  24.636  0.00  0.00    -0.453 OA
BRANCH  13  14
ATOM     14  C   UNL     1       6.535   1.443  24.546  0.00  0.00    +0.214 A 
ATOM     15  C   UNL     1       7.950   1.113  24.894  0.00  0.00    +0.238 A 
ATOM     16  O   UNL     1       8.231   0.207  25.669  0.00  0.00    -0.283 OA
ATOM     17  C   UNL     1       8.991   1.964  24.317  0.00  0.00    +0.109 A 
ATOM     18  C   UNL     1       8.612   3.233  23.894  0.00  0.00    +0.147 A 
ATOM     19  C   UNL     1       9.579   4.114  23.407  0.00  0.00    +0.092 A 
ATOM     20  C   UNL     1      10.915   3.698  23.357  0.00  0.00    +0.124 A 
ATOM     21  C   UNL     1      11.293   2.424  23.769  0.00  0.00    +0.091 A 
ATOM     22  O   UNL     1       7.303   3.667  23.946  0.00  0.00    -0.451 OA
ATOM     23  C   UNL     1      10.327   1.547  24.242  0.00  0.00    +0.135 A 
ATOM     24  C   UNL     1       6.297   2.727  24.187  0.00  0.00    +0.181 A 
BRANCH  24  25
ATOM     25  C   UNL     1       4.911   3.267  24.047  0.00  0.00    +0.025 A 
ATOM     26  C   UNL     1       4.305   4.015  25.072  0.00  0.00    +0.015 A 
ATOM     27  C   UNL     1       3.019   4.555  24.910  0.00  0.00    +0.050 A 
ATOM     28  C   UNL     1       2.333   4.346  23.724  0.00  0.00    +0.158 A 
ATOM     29  C   UNL     1       2.887   3.566  22.719  0.00  0.00    +0.159 A 
ATOM     30  C   UNL     1       4.153   3.008  22.884  0.00  0.00    +0.060 A 
BRANCH  29  31
ATOM     31  O   UNL     1       2.157   3.381  21.578  0.00  0.00    -0.503 OA
ATOM     32  H   UNL     1       1.436   4.036  21.561  0.00  0.00    +0.292 HD
ENDBRANCH  29  31
BRANCH  28  33
ATOM     33  O   UNL     1       1.106   4.916  23.546  0.00  0.00    -0.503 OA
ATOM     34  H   UNL     1       1.107   5.220  22.615  0.00  0.00    +0.292 HD
ENDBRANCH  28  33
ENDBRANCH  24  25
BRANCH  23  35
ATOM     35  O   UNL     1      10.688   0.278  24.591  0.00  0.00    -0.506 OA
ATOM     36  H   UNL     1      10.975   0.260  25.519  0.00  0.00    +0.292 HD
ENDBRANCH  23  35
BRANCH  20  37
ATOM     37  O   UNL     1      11.908   4.514  22.906  0.00  0.00    -0.507 OA
ATOM     38  H   UNL     1      12.735   4.016  22.841  0.00  0.00    +0.292 HD
ENDBRANCH  20  37
ENDBRANCH  13  14
ENDBRANCH   3  13
BRANCH   1  39
ATOM     39  C   UNL     1       5.801  -2.942  27.190  0.00  0.00    +0.197 C 
BRANCH  39  40
ATOM     40  O   UNL     1       5.761  -4.370  27.138  0.00  0.00    -0.345 OA
BRANCH  40  44
ATOM     41  C   UNL     1       8.641  -4.343  24.105  0.00  0.00    +0.246 C 
ATOM     42  C   UNL     1       7.295  -4.987  23.716  0.00  0.00    +0.264 C 
ATOM     43  C   UNL     1       6.205  -4.610  24.746  0.00  0.00    +0.276 C 
ATOM     44  C   UNL     1       6.707  -4.886  26.185  0.00  0.00    +0.295 C 
ATOM     45  O   UNL     1       7.977  -4.291  26.430  0.00  0.00    -0.344 OA
ATOM     46  C   UNL     1       8.984  -4.757  25.537  0.00  0.00    +0.211 C 
BRANCH  43  47
ATOM     47  O   UNL     1       5.037  -5.438  24.531  0.00  0.00    -0.452 OA
BRANCH  47  48
ATOM     48  C   UNL     1       3.913  -4.818  24.092  0.00  0.00    +0.304 C 
ATOM     49  C   UNL     1       2.793  -4.999  25.070  0.00  0.00    +0.136 C 
ATOM     50  O   UNL     1       3.793  -4.234  23.024  0.00  0.00    -0.251 OA
ENDBRANCH  47  48
ENDBRANCH  43  47
BRANCH  42  51
ATOM     51  O   UNL     1       6.956  -4.509  22.383  0.00  0.00    -0.454 OA
BRANCH  51  52
ATOM     52  C   UNL     1       6.522  -5.414  21.469  0.00  0.00    +0.304 C 
ATOM     53  C   UNL     1       6.753  -6.819  21.948  0.00  0.00    +0.136 C 
ATOM     54  O   UNL     1       5.992  -5.139  20.401  0.00  0.00    -0.251 OA
ENDBRANCH  51  52
ENDBRANCH  42  51
BRANCH  41  55
ATOM     55  O   UNL     1       8.467  -2.908  23.998  0.00  0.00    -0.455 OA
BRANCH  55  57
ATOM     56  C   UNL     1       8.403  -1.385  22.229  0.00  0.00    +0.136 C 
ATOM     57  C   UNL     1       9.254  -2.237  23.121  0.00  0.00    +0.304 C 
ATOM     58  O   UNL     1      10.467  -2.346  23.029  0.00  0.00    -0.251 OA
ENDBRANCH  55  57
ENDBRANCH  41  55
ENDBRANCH  40  44
ENDBRANCH  39  40
ENDBRANCH   1  39
TORSDOF 19
ENDMDL
MODEL 8
REMARK VINA RESULT:      -6.3      2.675      9.257
REMARK  Name = 
REMARK  22 active torsions:
REMARK  status: ('A' for Active; 'I' for Inactive)
REMARK    1  A    between atoms: C_1  and  C_2
REMARK    2  A    between atoms: C_2  and  O_4
REMARK    3  A    between atoms: O_4  and  C_5
REMARK    4  A    between atoms: C_9  and  O_22
REMARK    5  A    between atoms: C_11  and  O_18
REMARK    6  A    between atoms: C_12  and  O_14
REMARK    7  A    between atoms: O_14  and  C_15
REMARK    8  A    between atoms: C_15  and  C_17
REMARK    9  A    between atoms: O_18  and  C_19
REMARK   10  A    between atoms: C_19  and  C_21
REMARK   11  A    between atoms: O_22  and  C_23
REMARK   12  A    between atoms: C_23  and  C_24
REMARK   13  A    between atoms: C_25  and  O_56
REMARK   14  A    between atoms: C_27  and  O_55
REMARK   15  A    between atoms: C_28  and  O_54
REMARK   16  A    between atoms: C_29  and  O_32
REMARK   17  A    between atoms: O_32  and  C_33
REMARK   18  A    between atoms: C_34  and  C_46
REMARK   19  A    between atoms: C_38  and  O_45
REMARK   20  A    between atoms: C_40  and  O_44
REMARK   21  A    between atoms: C_48  and  O_53
REMARK   22  A    between atoms: C_49  and  O_52
REMARK                            x       y       z     vdW  Elec       q    Type
REMARK                         _______ _______ _______ _____ _____    ______ ____
ROOT
ATOM      1  C   UNL     1       7.852   1.818  22.112  0.00  0.00    +0.179 C 
ATOM      2  O   UNL     1       7.868   0.476  22.669  0.00  0.00    -0.331 OA
ATOM      3  C   UNL     1       8.118   0.450  24.093  0.00  0.00    +0.340 C 
ATOM      4  C   UNL     1       9.532   1.013  24.361  0.00  0.00    +0.214 C 
ATOM      5  C   UNL     1       9.647   2.426  23.778  0.00  0.00    +0.180 C 
ATOM      6  C   UNL     1       9.233   2.467  22.296  0.00  0.00    +0.177 C 
ENDROOT
BRANCH   6   7
ATOM      7  O   UNL     1      10.198   1.752  21.496  0.00  0.00    -0.386 OA
ATOM      8  H   UNL     1      10.706   2.416  20.995  0.00  0.00    +0.210 HD
ENDBRANCH   6   7
BRANCH   5   9
ATOM      9  O   UNL     1      10.989   2.900  23.922  0.00  0.00    -0.386 OA
ATOM     10  H   UNL     1      11.069   3.116  24.874  0.00  0.00    +0.210 HD
ENDBRANCH   5   9
BRANCH   4  11
ATOM     11  O   UNL     1      10.531   0.154  23.748  0.00  0.00    -0.383 OA
ATOM     12  H   UNL     1      10.287   0.086  22.805  0.00  0.00    +0.210 HD
ENDBRANCH   4  11
BRANCH   3  13
ATOM     13  O   UNL     1       8.087  -0.915  24.546  0.00  0.00    -0.453 OA
BRANCH  13  14
ATOM     14  C   UNL     1       6.976  -1.692  24.220  0.00  0.00    +0.214 A 
ATOM     15  C   UNL     1       6.984  -2.643  23.067  0.00  0.00    +0.238 A 
ATOM     16  O   UNL     1       7.732  -2.491  22.110  0.00  0.00    -0.283 OA
ATOM     17  C   UNL     1       6.009  -3.734  23.100  0.00  0.00    +0.109 A 
ATOM     18  C   UNL     1       4.890  -3.562  23.906  0.00  0.00    +0.147 A 
ATOM     19  C   UNL     1       3.891  -4.537  23.915  0.00  0.00    +0.092 A 
ATOM     20  C   UNL     1       4.040  -5.671  23.108  0.00  0.00    +0.124 A 
ATOM     21  C   UNL     1       5.165  -5.849  22.309  0.00  0.00    +0.091 A 
ATOM     22  O   UNL     1       4.718  -2.447  24.701  0.00  0.00    -0.451 OA
ATOM     23  C   UNL     1       6.162  -4.883  22.312  0.00  0.00    +0.135 A 
ATOM     24  C   UNL     1       5.807  -1.592  24.897  0.00  0.00    +0.181 A 
BRANCH  24  25
ATOM     25  C   UNL     1       5.567  -0.520  25.910  0.00  0.00    +0.025 A 
ATOM     26  C   UNL     1       5.946  -0.680  27.255  0.00  0.00    +0.015 A 
ATOM     27  C   UNL     1       5.755   0.352  28.188  0.00  0.00    +0.050 A 
ATOM     28  C   UNL     1       5.183   1.547  27.780  0.00  0.00    +0.158 A 
ATOM     29  C   UNL     1       4.753   1.709  26.470  0.00  0.00    +0.159 A 
ATOM     30  C   UNL     1       4.917   0.679  25.547  0.00  0.00    +0.060 A 
BRANCH  29  31
ATOM     31  O   UNL     1       4.181   2.904  26.130  0.00  0.00    -0.503 OA
ATOM     32  H   UNL     1       4.853   3.603  26.206  0.00  0.00    +0.292 HD
ENDBRANCH  29  31
BRANCH  28  33
ATOM     33  O   UNL     1       5.049   2.570  28.673  0.00  0.00    -0.503 OA
ATOM     34  H   UNL     1       4.397   3.174  28.262  0.00  0.00    +0.292 HD
ENDBRANCH  28  33
ENDBRANCH  24  25
BRANCH  23  35
ATOM     35  O   UNL     1       7.292  -5.084  21.574  0.00  0.00    -0.506 OA
ATOM     36  H   UNL     1       7.887  -5.694  22.041  0.00  0.00    +0.292 HD
ENDBRANCH  23  35
BRANCH  20  37
ATOM     37  O   UNL     1       3.096  -6.651  23.061  0.00  0.00    -0.507 OA
ATOM     38  H   UNL     1       2.240  -6.267  22.823  0.00  0.00    +0.292 HD
ENDBRANCH  20  37
ENDBRANCH  13  14
ENDBRANCH   3  13
BRANCH   1  39
ATOM     39  C   UNL     1       6.696   2.683  22.656  0.00  0.00    +0.197 C 
BRANCH  39  40
ATOM     40  O   UNL     1       6.485   3.840  21.843  0.00  0.00    -0.345 OA
BRANCH  40  44
ATOM     41  C   UNL     1       6.008   6.169  25.285  0.00  0.00    +0.246 C 
ATOM     42  C   UNL     1       4.719   5.944  24.469  0.00  0.00    +0.264 C 
ATOM     43  C   UNL     1       4.919   4.787  23.463  0.00  0.00    +0.276 C 
ATOM     44  C   UNL     1       6.217   5.003  22.647  0.00  0.00    +0.295 C 
ATOM     45  O   UNL     1       7.340   5.250  23.487  0.00  0.00    -0.344 OA
ATOM     46  C   UNL     1       7.166   6.398  24.313  0.00  0.00    +0.211 C 
BRANCH  43  47
ATOM     47  O   UNL     1       3.816   4.776  22.524  0.00  0.00    -0.452 OA
BRANCH  47  48
ATOM     48  C   UNL     1       3.009   3.686  22.534  0.00  0.00    +0.304 C 
ATOM     49  C   UNL     1       2.339   3.511  21.206  0.00  0.00    +0.136 C 
ATOM     50  O   UNL     1       2.798   2.965  23.499  0.00  0.00    -0.251 OA
ENDBRANCH  47  48
ENDBRANCH  43  47
BRANCH  42  51
ATOM     51  O   UNL     1       3.654   5.648  25.417  0.00  0.00    -0.454 OA
BRANCH  51  52
ATOM     52  C   UNL     1       2.473   6.304  25.281  0.00  0.00    +0.304 C 
ATOM     53  C   UNL     1       1.529   5.955  26.394  0.00  0.00    +0.136 C 
ATOM     54  O   UNL     1       2.206   7.095  24.386  0.00  0.00    -0.251 OA
ENDBRANCH  51  52
ENDBRANCH  42  51
BRANCH  41  55
ATOM     55  O   UNL     1       6.216   4.975  26.081  0.00  0.00    -0.455 OA
BRANCH  55  57
ATOM     56  C   UNL     1       6.235   6.434  27.905  0.00  0.00    +0.136 C 
ATOM     57  C   UNL     1       6.700   5.127  27.338  0.00  0.00    +0.304 C 
ATOM     58  O   UNL     1       7.449   4.348  27.908  0.00  0.00    -0.251 OA
ENDBRANCH  55  57
ENDBRANCH  41  55
ENDBRANCH  40  44
ENDBRANCH  39  40
ENDBRANCH   1  39
TORSDOF 19
ENDMDL
MODEL 9
REMARK VINA RESULT:      -6.2      2.589      5.788
REMARK  Name = 
REMARK  22 active torsions:
REMARK  status: ('A' for Active; 'I' for Inactive)
REMARK    1  A    between atoms: C_1  and  C_2
REMARK    2  A    between atoms: C_2  and  O_4
REMARK    3  A    between atoms: O_4  and  C_5
REMARK    4  A    between atoms: C_9  and  O_22
REMARK    5  A    between atoms: C_11  and  O_18
REMARK    6  A    between atoms: C_12  and  O_14
REMARK    7  A    between atoms: O_14  and  C_15
REMARK    8  A    between atoms: C_15  and  C_17
REMARK    9  A    between atoms: O_18  and  C_19
REMARK   10  A    between atoms: C_19  and  C_21
REMARK   11  A    between atoms: O_22  and  C_23
REMARK   12  A    between atoms: C_23  and  C_24
REMARK   13  A    between atoms: C_25  and  O_56
REMARK   14  A    between atoms: C_27  and  O_55
REMARK   15  A    between atoms: C_28  and  O_54
REMARK   16  A    between atoms: C_29  and  O_32
REMARK   17  A    between atoms: O_32  and  C_33
REMARK   18  A    between atoms: C_34  and  C_46
REMARK   19  A    between atoms: C_38  and  O_45
REMARK   20  A    between atoms: C_40  and  O_44
REMARK   21  A    between atoms: C_48  and  O_53
REMARK   22  A    between atoms: C_49  and  O_52
REMARK                            x       y       z     vdW  Elec       q    Type
REMARK                         _______ _______ _______ _____ _____    ______ ____
ROOT
ATOM      1  C   UNL     1       2.865  -0.211  27.266  0.00  0.00    +0.179 C 
ATOM      2  O   UNL     1       3.490   0.820  26.454  0.00  0.00    -0.331 OA
ATOM      3  C   UNL     1       4.639   1.428  27.086  0.00  0.00    +0.340 C 
ATOM      4  C   UNL     1       4.178   2.153  28.370  0.00  0.00    +0.214 C 
ATOM      5  C   UNL     1       3.463   1.164  29.296  0.00  0.00    +0.180 C 
ATOM      6  C   UNL     1       2.335   0.413  28.567  0.00  0.00    +0.177 C 
ENDROOT
BRANCH   6   7
ATOM      7  O   UNL     1       1.263   1.325  28.249  0.00  0.00    -0.386 OA
ATOM      8  H   UNL     1       1.335   2.081  28.860  0.00  0.00    +0.210 HD
ENDBRANCH   6   7
BRANCH   5   9
ATOM      9  O   UNL     1       2.933   1.859  30.429  0.00  0.00    -0.386 OA
ATOM     10  H   UNL     1       3.002   1.215  31.163  0.00  0.00    +0.210 HD
ENDBRANCH   5   9
BRANCH   4  11
ATOM     11  O   UNL     1       3.271   3.236  28.027  0.00  0.00    -0.383 OA
ATOM     12  H   UNL     1       2.503   3.144  28.621  0.00  0.00    +0.210 HD
ENDBRANCH   4  11
BRANCH   3  13
ATOM     13  O   UNL     1       5.197   2.409  26.193  0.00  0.00    -0.453 OA
BRANCH  13  14
ATOM     14  C   UNL     1       6.241   2.018  25.354  0.00  0.00    +0.214 A 
ATOM     15  C   UNL     1       7.377   1.179  25.840  0.00  0.00    +0.238 A 
ATOM     16  O   UNL     1       7.708   1.158  27.019  0.00  0.00    -0.283 OA
ATOM     17  C   UNL     1       8.126   0.428  24.832  0.00  0.00    +0.109 A 
ATOM     18  C   UNL     1       8.049   0.877  23.518  0.00  0.00    +0.147 A 
ATOM     19  C   UNL     1       8.804   0.245  22.528  0.00  0.00    +0.092 A 
ATOM     20  C   UNL     1       9.625  -0.832  22.884  0.00  0.00    +0.124 A 
ATOM     21  C   UNL     1       9.694  -1.289  24.195  0.00  0.00    +0.091 A 
ATOM     22  O   UNL     1       7.254   1.943  23.149  0.00  0.00    -0.451 OA
ATOM     23  C   UNL     1       8.933  -0.665  25.175  0.00  0.00    +0.135 A 
ATOM     24  C   UNL     1       6.311   2.421  24.063  0.00  0.00    +0.181 A 
BRANCH  24  25
ATOM     25  C   UNL     1       5.387   3.454  23.504  0.00  0.00    +0.025 A 
ATOM     26  C   UNL     1       5.652   4.828  23.637  0.00  0.00    +0.015 A 
ATOM     27  C   UNL     1       4.799   5.788  23.068  0.00  0.00    +0.050 A 
ATOM     28  C   UNL     1       3.677   5.377  22.366  0.00  0.00    +0.158 A 
ATOM     29  C   UNL     1       3.365   4.028  22.267  0.00  0.00    +0.159 A 
ATOM     30  C   UNL     1       4.194   3.073  22.850  0.00  0.00    +0.060 A 
BRANCH  29  31
ATOM     31  O   UNL     1       2.236   3.683  21.577  0.00  0.00    -0.503 OA
ATOM     32  H   UNL     1       2.331   3.984  20.655  0.00  0.00    +0.292 HD
ENDBRANCH  29  31
BRANCH  28  33
ATOM     33  O   UNL     1       2.879   6.307  21.767  0.00  0.00    -0.503 OA
ATOM     34  H   UNL     1       3.289   7.167  21.989  0.00  0.00    +0.292 HD
ENDBRANCH  28  33
ENDBRANCH  24  25
BRANCH  23  35
ATOM     35  O   UNL     1       8.955  -1.150  26.450  0.00  0.00    -0.506 OA
ATOM     36  H   UNL     1       8.060  -1.418  26.717  0.00  0.00    +0.292 HD
ENDBRANCH  23  35
BRANCH  20  37
ATOM     37  O   UNL     1      10.397  -1.482  21.968  0.00  0.00    -0.507 OA
ATOM     38  H   UNL     1      11.121  -1.938  22.419  0.00  0.00    +0.292 HD
ENDBRANCH  20  37
ENDBRANCH  13  14
ENDBRANCH   3  13
BRANCH   1  39
ATOM     39  C   UNL     1       3.780  -1.429  27.505  0.00  0.00    +0.197 C 
BRANCH  39  40
ATOM     40  O   UNL     1       3.761  -2.321  26.387  0.00  0.00    -0.345 OA
BRANCH  40  44
ATOM     41  C   UNL     1       6.691  -3.486  23.637  0.00  0.00    +0.246 C 
ATOM     42  C   UNL     1       7.017  -3.808  25.109  0.00  0.00    +0.264 C 
ATOM     43  C   UNL     1       5.742  -3.694  25.976  0.00  0.00    +0.276 C 
ATOM     44  C   UNL     1       5.032  -2.342  25.712  0.00  0.00    +0.295 C 
ATOM     45  O   UNL     1       4.818  -2.116  24.323  0.00  0.00    -0.344 OA
ATOM     46  C   UNL     1       6.031  -2.107  23.575  0.00  0.00    +0.211 C 
BRANCH  43  47
ATOM     47  O   UNL     1       6.113  -3.719  27.376  0.00  0.00    -0.452 OA
BRANCH  47  48
ATOM     48  C   UNL     1       5.923  -4.884  28.044  0.00  0.00    +0.304 C 
ATOM     49  C   UNL     1       4.463  -5.140  28.258  0.00  0.00    +0.136 C 
ATOM     50  O   UNL     1       6.809  -5.612  28.471  0.00  0.00    -0.251 OA
ENDBRANCH  47  48
ENDBRANCH  43  47
BRANCH  42  51
ATOM     51  O   UNL     1       7.566  -5.156  25.145  0.00  0.00    -0.454 OA
BRANCH  51  52
ATOM     52  C   UNL     1       8.911  -5.297  25.262  0.00  0.00    +0.304 C 
ATOM     53  C   UNL     1       9.424  -4.591  26.484  0.00  0.00    +0.136 C 
ATOM     54  O   UNL     1       9.623  -5.930  24.494  0.00  0.00    -0.251 OA
ENDBRANCH  51  52
ENDBRANCH  42  51
BRANCH  41  55
ATOM     55  O   UNL     1       5.791  -4.522  23.169  0.00  0.00    -0.455 OA
BRANCH  55  57
ATOM     56  C   UNL     1       6.737  -6.296  21.981  0.00  0.00    +0.136 C 
ATOM     57  C   UNL     1       5.978  -5.006  21.916  0.00  0.00    +0.304 C 
ATOM     58  O   UNL     1       5.632  -4.452  20.883  0.00  0.00    -0.251 OA
ENDBRANCH  55  57
ENDBRANCH  41  55
ENDBRANCH  40  44
ENDBRANCH  39  40
ENDBRANCH   1  39
TORSDOF 19
ENDMDL
