MODEL 1
REMARK VINA RESULT:      -7.7      0.000      0.000
REMARK  Name = 
REMARK  12 active torsions:
REMARK  status: ('A' for Active; 'I' for Inactive)
REMARK    1  A    between atoms: C_3  and  O_36
REMARK    2  A    between atoms: C_4  and  O_35
REMARK    3  A    between atoms: C_6  and  C_7
REMARK    4  A    between atoms: C_8  and  O_34
REMARK    5  A    between atoms: C_12  and  O_33
REMARK    6  A    between atoms: C_14  and  O_18
REMARK    7  A    between atoms: O_18  and  C_19
REMARK    8  A    between atoms: C_21  and  O_32
REMARK    9  A    between atoms: C_22  and  O_31
REMARK   10  A    between atoms: C_24  and  O_30
REMARK   11  A    between atoms: C_26  and  C_28
REMARK   12  A    between atoms: C_28  and  O_29
REMARK                            x       y       z     vdW  Elec       q    Type
REMARK                         _______ _______ _______ _____ _____    ______ ____
ROOT
ATOM      1  C   UNL     1       7.772   1.599  23.456  0.00  0.00    +0.181 A 
ATOM      2  O   UNL     1       6.818   0.569  23.343  0.00  0.00    -0.451 OA
ATOM      3  C   UNL     1       7.241  -0.751  23.425  0.00  0.00    +0.147 A 
ATOM      4  C   UNL     1       8.586  -1.075  23.538  0.00  0.00    +0.109 A 
ATOM      5  C   UNL     1       8.992  -2.403  23.599  0.00  0.00    +0.135 A 
ATOM      6  C   UNL     1       8.057  -3.419  23.534  0.00  0.00    +0.092 A 
ATOM      7  C   UNL     1       6.689  -3.142  23.391  0.00  0.00    +0.131 A 
ATOM      8  C   UNL     1       9.585  -0.013  23.613  0.00  0.00    +0.238 A 
ATOM      9  O   UNL     1      10.779  -0.295  23.675  0.00  0.00    -0.283 OA
ATOM     10  C   UNL     1       6.282  -1.790  23.365  0.00  0.00    +0.093 A 
ATOM     11  C   UNL     1       9.092   1.373  23.644  0.00  0.00    +0.208 A 
ENDROOT
BRANCH   1  13
ATOM     12  C   UNL     1       6.215   3.424  24.297  0.00  0.00    +0.015 A 
ATOM     13  C   UNL     1       7.222   2.989  23.399  0.00  0.00    +0.025 A 
ATOM     14  C   UNL     1       7.654   3.901  22.428  0.00  0.00    +0.060 A 
ATOM     15  C   UNL     1       7.029   5.143  22.311  0.00  0.00    +0.159 A 
ATOM     16  C   UNL     1       5.970   5.506  23.139  0.00  0.00    +0.158 A 
ATOM     17  C   UNL     1       5.564   4.655  24.151  0.00  0.00    +0.050 A 
BRANCH  15  18
ATOM     18  O   UNL     1       7.448   6.013  21.344  0.00  0.00    -0.503 OA
ATOM     19  H   UNL     1       8.408   5.843  21.256  0.00  0.00    +0.292 HD
ENDBRANCH  15  18
BRANCH  16  20
ATOM     20  O   UNL     1       5.359   6.708  22.918  0.00  0.00    -0.503 OA
ATOM     21  H   UNL     1       4.395   6.574  22.941  0.00  0.00    +0.292 HD
ENDBRANCH  16  20
ENDBRANCH   1  13
BRANCH   5  22
ATOM     22  O   UNL     1      10.300  -2.796  23.707  0.00  0.00    -0.506 OA
ATOM     23  H   UNL     1      10.584  -2.671  24.642  0.00  0.00    +0.292 HD
ENDBRANCH   5  22
BRANCH  11  24
ATOM     24  O   UNL     1      10.052   2.338  23.894  0.00  0.00    -0.501 OA
ATOM     25  H   UNL     1      10.636   2.008  24.594  0.00  0.00    +0.292 HD
ENDBRANCH  11  24
BRANCH   7  26
ATOM     26  O   UNL     1       5.725  -4.136  23.240  0.00  0.00    -0.461 OA
BRANCH  26  27
ATOM     27  C   UNL     1       4.658  -4.054  24.220  0.00  0.00    +0.339 C 
ATOM     28  O   UNL     1       5.208  -3.990  25.545  0.00  0.00    -0.331 OA
ATOM     29  C   UNL     1       5.762  -5.247  25.959  0.00  0.00    +0.179 C 
ATOM     30  C   UNL     1       4.580  -6.185  26.224  0.00  0.00    +0.177 C 
ATOM     31  C   UNL     1       3.837  -6.434  24.902  0.00  0.00    +0.180 C 
ATOM     32  C   UNL     1       3.538  -5.130  24.151  0.00  0.00    +0.214 C 
BRANCH  30  33
ATOM     33  O   UNL     1       4.990  -7.425  26.809  0.00  0.00    -0.386 OA
ATOM     34  H   UNL     1       4.724  -8.126  26.174  0.00  0.00    +0.210 HD
ENDBRANCH  30  33
BRANCH  31  35
ATOM     35  O   UNL     1       4.586  -7.347  24.077  0.00  0.00    -0.386 OA
ATOM     36  H   UNL     1       4.827  -6.897  23.252  0.00  0.00    +0.210 HD
ENDBRANCH  31  35
BRANCH  32  37
ATOM     37  O   UNL     1       3.089  -5.374  22.819  0.00  0.00    -0.383 OA
ATOM     38  H   UNL     1       3.681  -4.891  22.210  0.00  0.00    +0.210 HD
ENDBRANCH  32  37
BRANCH  29  39
ATOM     39  C   UNL     1       6.654  -5.023  27.186  0.00  0.00    +0.190 C 
BRANCH  39  40
ATOM     40  O   UNL     1       7.693  -5.988  27.289  0.00  0.00    -0.392 OA
ATOM     41  H   UNL     1       7.996  -5.978  28.222  0.00  0.00    +0.210 HD
ENDBRANCH  39  40
ENDBRANCH  29  39
ENDBRANCH  26  27
ENDBRANCH   7  26
TORSDOF 12
ENDMDL
MODEL 2
REMARK VINA RESULT:      -7.7      1.784      2.724
REMARK  Name = 
REMARK  12 active torsions:
REMARK  status: ('A' for Active; 'I' for Inactive)
REMARK    1  A    between atoms: C_3  and  O_36
REMARK    2  A    between atoms: C_4  and  O_35
REMARK    3  A    between atoms: C_6  and  C_7
REMARK    4  A    between atoms: C_8  and  O_34
REMARK    5  A    between atoms: C_12  and  O_33
REMARK    6  A    between atoms: C_14  and  O_18
REMARK    7  A    between atoms: O_18  and  C_19
REMARK    8  A    between atoms: C_21  and  O_32
REMARK    9  A    between atoms: C_22  and  O_31
REMARK   10  A    between atoms: C_24  and  O_30
REMARK   11  A    between atoms: C_26  and  C_28
REMARK   12  A    between atoms: C_28  and  O_29
REMARK                            x       y       z     vdW  Elec       q    Type
REMARK                         _______ _______ _______ _____ _____    ______ ____
ROOT
ATOM      1  C   UNL     1       7.949  -0.497  23.341  0.00  0.00    +0.181 A 
ATOM      2  O   UNL     1       6.727  -1.133  23.050  0.00  0.00    -0.451 OA
ATOM      3  C   UNL     1       6.647  -2.516  23.161  0.00  0.00    +0.147 A 
ATOM      4  C   UNL     1       7.760  -3.283  23.475  0.00  0.00    +0.109 A 
ATOM      5  C   UNL     1       7.665  -4.667  23.562  0.00  0.00    +0.135 A 
ATOM      6  C   UNL     1       6.457  -5.297  23.322  0.00  0.00    +0.092 A 
ATOM      7  C   UNL     1       5.311  -4.566  22.973  0.00  0.00    +0.131 A 
ATOM      8  C   UNL     1       9.041  -2.633  23.735  0.00  0.00    +0.238 A 
ATOM      9  O   UNL     1      10.037  -3.309  23.977  0.00  0.00    -0.283 OA
ATOM     10  C   UNL     1       5.408  -3.158  22.922  0.00  0.00    +0.093 A 
ATOM     11  C   UNL     1       9.061  -1.162  23.728  0.00  0.00    +0.208 A 
ENDROOT
BRANCH   1  13
ATOM     12  C   UNL     1       7.726   1.647  21.994  0.00  0.00    +0.015 A 
ATOM     13  C   UNL     1       7.933   0.996  23.236  0.00  0.00    +0.025 A 
ATOM     14  C   UNL     1       8.162   1.805  24.356  0.00  0.00    +0.060 A 
ATOM     15  C   UNL     1       8.277   3.188  24.205  0.00  0.00    +0.159 A 
ATOM     16  C   UNL     1       8.173   3.795  22.957  0.00  0.00    +0.158 A 
ATOM     17  C   UNL     1       7.880   3.031  21.841  0.00  0.00    +0.050 A 
BRANCH  15  18
ATOM     18  O   UNL     1       8.522   3.961  25.305  0.00  0.00    -0.503 OA
ATOM     19  H   UNL     1       7.885   3.646  25.977  0.00  0.00    +0.292 HD
ENDBRANCH  15  18
BRANCH  16  20
ATOM     20  O   UNL     1       8.370   5.145  22.876  0.00  0.00    -0.503 OA
ATOM     21  H   UNL     1       9.033   5.320  22.186  0.00  0.00    +0.292 HD
ENDBRANCH  16  20
ENDBRANCH   1  13
BRANCH   5  22
ATOM     22  O   UNL     1       8.720  -5.487  23.863  0.00  0.00    -0.506 OA
ATOM     23  H   UNL     1       9.011  -5.290  24.783  0.00  0.00    +0.292 HD
ENDBRANCH   5  22
BRANCH  11  24
ATOM     24  O   UNL     1      10.245  -0.583  24.152  0.00  0.00    -0.501 OA
ATOM     25  H   UNL     1      10.716  -1.229  24.700  0.00  0.00    +0.292 HD
ENDBRANCH  11  24
BRANCH   7  26
ATOM     26  O   UNL     1       4.098  -5.167  22.645  0.00  0.00    -0.461 OA
BRANCH  26  27
ATOM     27  C   UNL     1       3.092  -5.031  23.680  0.00  0.00    +0.339 C 
ATOM     28  O   UNL     1       3.649  -5.373  24.960  0.00  0.00    -0.331 OA
ATOM     29  C   UNL     1       3.876  -6.783  25.087  0.00  0.00    +0.179 C 
ATOM     30  C   UNL     1       2.500  -7.442  25.231  0.00  0.00    +0.177 C 
ATOM     31  C   UNL     1       1.711  -7.230  23.929  0.00  0.00    +0.180 C 
ATOM     32  C   UNL     1       1.740  -5.768  23.467  0.00  0.00    +0.214 C 
BRANCH  30  33
ATOM     33  O   UNL     1       2.594  -8.836  25.538  0.00  0.00    -0.386 OA
ATOM     34  H   UNL     1       3.323  -9.188  24.980  0.00  0.00    +0.210 HD
ENDBRANCH  30  33
BRANCH  31  35
ATOM     35  O   UNL     1       2.204  -8.110  22.901  0.00  0.00    -0.386 OA
ATOM     36  H   UNL     1       1.466  -8.360  22.323  0.00  0.00    +0.210 HD
ENDBRANCH  31  35
BRANCH  32  37
ATOM     37  O   UNL     1       1.236  -5.620  22.139  0.00  0.00    -0.383 OA
ATOM     38  H   UNL     1       0.337  -5.243  22.200  0.00  0.00    +0.210 HD
ENDBRANCH  32  37
BRANCH  29  39
ATOM     39  C   UNL     1       4.804  -7.035  26.283  0.00  0.00    +0.190 C 
BRANCH  39  40
ATOM     40  O   UNL     1       4.088  -7.317  27.479  0.00  0.00    -0.392 OA
ATOM     41  H   UNL     1       3.287  -6.751  27.468  0.00  0.00    +0.210 HD
ENDBRANCH  39  40
ENDBRANCH  29  39
ENDBRANCH  26  27
ENDBRANCH   7  26
TORSDOF 12
ENDMDL
MODEL 3
REMARK VINA RESULT:      -7.6      1.565      9.076
REMARK  Name = 
REMARK  12 active torsions:
REMARK  status: ('A' for Active; 'I' for Inactive)
REMARK    1  A    between atoms: C_3  and  O_36
REMARK    2  A    between atoms: C_4  and  O_35
REMARK    3  A    between atoms: C_6  and  C_7
REMARK    4  A    between atoms: C_8  and  O_34
REMARK    5  A    between atoms: C_12  and  O_33
REMARK    6  A    between atoms: C_14  and  O_18
REMARK    7  A    between atoms: O_18  and  C_19
REMARK    8  A    between atoms: C_21  and  O_32
REMARK    9  A    between atoms: C_22  and  O_31
REMARK   10  A    between atoms: C_24  and  O_30
REMARK   11  A    between atoms: C_26  and  C_28
REMARK   12  A    between atoms: C_28  and  O_29
REMARK                            x       y       z     vdW  Elec       q    Type
REMARK                         _______ _______ _______ _____ _____    ______ ____
ROOT
ATOM      1  C   UNL     1       6.926  -3.830  24.086  0.00  0.00    +0.181 A 
ATOM      2  O   UNL     1       6.400  -2.576  23.721  0.00  0.00    -0.451 OA
ATOM      3  C   UNL     1       7.273  -1.566  23.340  0.00  0.00    +0.147 A 
ATOM      4  C   UNL     1       8.649  -1.742  23.386  0.00  0.00    +0.109 A 
ATOM      5  C   UNL     1       9.508  -0.713  23.020  0.00  0.00    +0.135 A 
ATOM      6  C   UNL     1       8.998   0.508  22.617  0.00  0.00    +0.092 A 
ATOM      7  C   UNL     1       7.615   0.743  22.581  0.00  0.00    +0.131 A 
ATOM      8  C   UNL     1       9.204  -3.026  23.805  0.00  0.00    +0.238 A 
ATOM      9  O   UNL     1      10.420  -3.176  23.883  0.00  0.00    -0.283 OA
ATOM     10  C   UNL     1       6.749  -0.320  22.922  0.00  0.00    +0.093 A 
ATOM     11  C   UNL     1       8.249  -4.111  24.085  0.00  0.00    +0.208 A 
ENDROOT
BRANCH   1  13
ATOM     12  C   UNL     1       5.867  -5.450  25.734  0.00  0.00    +0.015 A 
ATOM     13  C   UNL     1       5.911  -4.871  24.441  0.00  0.00    +0.025 A 
ATOM     14  C   UNL     1       4.992  -5.341  23.495  0.00  0.00    +0.060 A 
ATOM     15  C   UNL     1       4.148  -6.407  23.813  0.00  0.00    +0.159 A 
ATOM     16  C   UNL     1       4.197  -7.028  25.058  0.00  0.00    +0.158 A 
ATOM     17  C   UNL     1       5.047  -6.543  26.036  0.00  0.00    +0.050 A 
BRANCH  15  18
ATOM     18  O   UNL     1       3.272  -6.868  22.871  0.00  0.00    -0.503 OA
ATOM     19  H   UNL     1       2.387  -6.665  23.235  0.00  0.00    +0.292 HD
ENDBRANCH  15  18
BRANCH  16  20
ATOM     20  O   UNL     1       3.393  -8.111  25.272  0.00  0.00    -0.503 OA
ATOM     21  H   UNL     1       2.651  -7.838  25.839  0.00  0.00    +0.292 HD
ENDBRANCH  16  20
ENDBRANCH   1  13
BRANCH   5  22
ATOM     22  O   UNL     1      10.875  -0.814  23.044  0.00  0.00    -0.506 OA
ATOM     23  H   UNL     1      11.229  -0.073  23.586  0.00  0.00    +0.292 HD
ENDBRANCH   5  22
BRANCH  11  24
ATOM     24  O   UNL     1       8.813  -5.356  24.304  0.00  0.00    -0.501 OA
ATOM     25  H   UNL     1       9.502  -5.496  23.636  0.00  0.00    +0.292 HD
ENDBRANCH  11  24
BRANCH   7  26
ATOM     26  O   UNL     1       7.064   1.981  22.261  0.00  0.00    -0.461 OA
BRANCH  26  27
ATOM     27  C   UNL     1       6.759   2.791  23.424  0.00  0.00    +0.339 C 
ATOM     28  O   UNL     1       5.343   3.019  23.511  0.00  0.00    -0.331 OA
ATOM     29  C   UNL     1       4.883   3.933  22.506  0.00  0.00    +0.179 C 
ATOM     30  C   UNL     1       5.383   5.324  22.909  0.00  0.00    +0.177 C 
ATOM     31  C   UNL     1       6.919   5.332  22.855  0.00  0.00    +0.180 C 
ATOM     32  C   UNL     1       7.531   4.131  23.587  0.00  0.00    +0.214 C 
BRANCH  30  33
ATOM     33  O   UNL     1       4.848   6.357  22.078  0.00  0.00    -0.386 OA
ATOM     34  H   UNL     1       5.620   6.798  21.661  0.00  0.00    +0.210 HD
ENDBRANCH  30  33
BRANCH  31  35
ATOM     35  O   UNL     1       7.367   5.390  21.488  0.00  0.00    -0.386 OA
ATOM     36  H   UNL     1       6.688   5.835  20.955  0.00  0.00    +0.210 HD
ENDBRANCH  31  35
BRANCH  32  37
ATOM     37  O   UNL     1       8.927   3.999  23.317  0.00  0.00    -0.383 OA
ATOM     38  H   UNL     1       9.308   4.896  23.262  0.00  0.00    +0.210 HD
ENDBRANCH  32  37
BRANCH  29  39
ATOM     39  C   UNL     1       3.355   3.837  22.403  0.00  0.00    +0.190 C 
BRANCH  39  40
ATOM     40  O   UNL     1       2.860   4.324  21.162  0.00  0.00    -0.392 OA
ATOM     41  H   UNL     1       2.880   3.569  20.535  0.00  0.00    +0.210 HD
ENDBRANCH  39  40
ENDBRANCH  29  39
ENDBRANCH  26  27
ENDBRANCH   7  26
TORSDOF 12
ENDMDL
MODEL 4
REMARK VINA RESULT:      -7.5      1.504      9.037
REMARK  Name = 
REMARK  12 active torsions:
REMARK  status: ('A' for Active; 'I' for Inactive)
REMARK    1  A    between atoms: C_3  and  O_36
REMARK    2  A    between atoms: C_4  and  O_35
REMARK    3  A    between atoms: C_6  and  C_7
REMARK    4  A    between atoms: C_8  and  O_34
REMARK    5  A    between atoms: C_12  and  O_33
REMARK    6  A    between atoms: C_14  and  O_18
REMARK    7  A    between atoms: O_18  and  C_19
REMARK    8  A    between atoms: C_21  and  O_32
REMARK    9  A    between atoms: C_22  and  O_31
REMARK   10  A    between atoms: C_24  and  O_30
REMARK   11  A    between atoms: C_26  and  C_28
REMARK   12  A    between atoms: C_28  and  O_29
REMARK                            x       y       z     vdW  Elec       q    Type
REMARK                         _______ _______ _______ _____ _____    ______ ____
ROOT
ATOM      1  C   UNL     1       6.758  -3.717  24.410  0.00  0.00    +0.181 A 
ATOM      2  O   UNL     1       6.218  -2.418  24.468  0.00  0.00    -0.451 OA
ATOM      3  C   UNL     1       7.045  -1.334  24.207  0.00  0.00    +0.147 A 
ATOM      4  C   UNL     1       8.402  -1.499  23.967  0.00  0.00    +0.109 A 
ATOM      5  C   UNL     1       9.219  -0.400  23.727  0.00  0.00    +0.135 A 
ATOM      6  C   UNL     1       8.686   0.876  23.737  0.00  0.00    +0.092 A 
ATOM      7  C   UNL     1       7.326   1.096  24.003  0.00  0.00    +0.131 A 
ATOM      8  C   UNL     1       8.978  -2.841  23.948  0.00  0.00    +0.238 A 
ATOM      9  O   UNL     1      10.184  -2.991  23.773  0.00  0.00    -0.283 OA
ATOM     10  C   UNL     1       6.497  -0.029  24.212  0.00  0.00    +0.093 A 
ATOM     11  C   UNL     1       8.051  -3.972  24.109  0.00  0.00    +0.208 A 
ENDROOT
BRANCH   1  13
ATOM     12  C   UNL     1       5.741  -5.498  25.912  0.00  0.00    +0.015 A 
ATOM     13  C   UNL     1       5.786  -4.826  24.664  0.00  0.00    +0.025 A 
ATOM     14  C   UNL     1       4.911  -5.268  23.664  0.00  0.00    +0.060 A 
ATOM     15  C   UNL     1       4.112  -6.391  23.883  0.00  0.00    +0.159 A 
ATOM     16  C   UNL     1       4.162  -7.098  25.082  0.00  0.00    +0.158 A 
ATOM     17  C   UNL     1       4.966  -6.647  26.114  0.00  0.00    +0.050 A 
BRANCH  15  18
ATOM     18  O   UNL     1       3.280  -6.823  22.889  0.00  0.00    -0.503 OA
ATOM     19  H   UNL     1       3.878  -7.162  22.193  0.00  0.00    +0.292 HD
ENDBRANCH  15  18
BRANCH  16  20
ATOM     20  O   UNL     1       3.406  -8.229  25.198  0.00  0.00    -0.503 OA
ATOM     21  H   UNL     1       3.211  -8.376  26.140  0.00  0.00    +0.292 HD
ENDBRANCH  16  20
ENDBRANCH   1  13
BRANCH   5  22
ATOM     22  O   UNL     1      10.565  -0.488  23.486  0.00  0.00    -0.506 OA
ATOM     23  H   UNL     1      10.830  -1.433  23.560  0.00  0.00    +0.292 HD
ENDBRANCH   5  22
BRANCH  11  24
ATOM     24  O   UNL     1       8.604  -5.225  23.907  0.00  0.00    -0.501 OA
ATOM     25  H   UNL     1       8.586  -5.413  22.956  0.00  0.00    +0.292 HD
ENDBRANCH  11  24
BRANCH   7  26
ATOM     26  O   UNL     1       6.769   2.368  24.104  0.00  0.00    -0.461 OA
BRANCH  26  27
ATOM     27  C   UNL     1       5.976   2.740  22.948  0.00  0.00    +0.339 C 
ATOM     28  O   UNL     1       6.643   3.770  22.202  0.00  0.00    -0.331 OA
ATOM     29  C   UNL     1       6.608   5.034  22.880  0.00  0.00    +0.179 C 
ATOM     30  C   UNL     1       5.168   5.549  22.785  0.00  0.00    +0.177 C 
ATOM     31  C   UNL     1       4.248   4.594  23.562  0.00  0.00    +0.180 C 
ATOM     32  C   UNL     1       4.490   3.126  23.192  0.00  0.00    +0.214 C 
BRANCH  30  33
ATOM     33  O   UNL     1       5.035   6.885  23.277  0.00  0.00    -0.386 OA
ATOM     34  H   UNL     1       4.313   6.859  23.943  0.00  0.00    +0.210 HD
ENDBRANCH  30  33
BRANCH  31  35
ATOM     35  O   UNL     1       4.400   4.804  24.979  0.00  0.00    -0.386 OA
ATOM     36  H   UNL     1       4.980   4.113  25.336  0.00  0.00    +0.210 HD
ENDBRANCH  31  35
BRANCH  32  37
ATOM     37  O   UNL     1       3.830   2.235  24.091  0.00  0.00    -0.383 OA
ATOM     38  H   UNL     1       4.453   1.517  24.313  0.00  0.00    +0.210 HD
ENDBRANCH  32  37
BRANCH  29  39
ATOM     39  C   UNL     1       7.639   5.974  22.243  0.00  0.00    +0.190 C 
BRANCH  39  40
ATOM     40  O   UNL     1       7.110   6.694  21.137  0.00  0.00    -0.392 OA
ATOM     41  H   UNL     1       6.203   6.972  21.389  0.00  0.00    +0.210 HD
ENDBRANCH  39  40
ENDBRANCH  29  39
ENDBRANCH  26  27
ENDBRANCH   7  26
TORSDOF 12
ENDMDL
MODEL 5
REMARK VINA RESULT:      -7.5      1.885      3.314
REMARK  Name = 
REMARK  12 active torsions:
REMARK  status: ('A' for Active; 'I' for Inactive)
REMARK    1  A    between atoms: C_3  and  O_36
REMARK    2  A    between atoms: C_4  and  O_35
REMARK    3  A    between atoms: C_6  and  C_7
REMARK    4  A    between atoms: C_8  and  O_34
REMARK    5  A    between atoms: C_12  and  O_33
REMARK    6  A    between atoms: C_14  and  O_18
REMARK    7  A    between atoms: O_18  and  C_19
REMARK    8  A    between atoms: C_21  and  O_32
REMARK    9  A    between atoms: C_22  and  O_31
REMARK   10  A    between atoms: C_24  and  O_30
REMARK   11  A    between atoms: C_26  and  C_28
REMARK   12  A    between atoms: C_28  and  O_29
REMARK                            x       y       z     vdW  Elec       q    Type
REMARK                         _______ _______ _______ _____ _____    ______ ____
ROOT
ATOM      1  C   UNL     1       8.391   0.036  23.746  0.00  0.00    +0.181 A 
ATOM      2  O   UNL     1       7.586  -0.533  24.752  0.00  0.00    -0.451 OA
ATOM      3  C   UNL     1       7.899  -1.801  25.225  0.00  0.00    +0.147 A 
ATOM      4  C   UNL     1       8.935  -2.544  24.676  0.00  0.00    +0.109 A 
ATOM      5  C   UNL     1       9.221  -3.819  25.150  0.00  0.00    +0.135 A 
ATOM      6  C   UNL     1       8.463  -4.368  26.168  0.00  0.00    +0.092 A 
ATOM      7  C   UNL     1       7.387  -3.667  26.735  0.00  0.00    +0.131 A 
ATOM      8  C   UNL     1       9.747  -1.977  23.604  0.00  0.00    +0.238 A 
ATOM      9  O   UNL     1      10.640  -2.643  23.089  0.00  0.00    -0.283 OA
ATOM     10  C   UNL     1       7.126  -2.359  26.272  0.00  0.00    +0.093 A 
ATOM     11  C   UNL     1       9.464  -0.587  23.210  0.00  0.00    +0.208 A 
ENDROOT
BRANCH   1  13
ATOM     12  C   UNL     1       6.828   1.664  22.576  0.00  0.00    +0.015 A 
ATOM     13  C   UNL     1       8.006   1.420  23.327  0.00  0.00    +0.025 A 
ATOM     14  C   UNL     1       8.817   2.522  23.627  0.00  0.00    +0.060 A 
ATOM     15  C   UNL     1       8.505   3.779  23.107  0.00  0.00    +0.159 A 
ATOM     16  C   UNL     1       7.399   3.973  22.285  0.00  0.00    +0.158 A 
ATOM     17  C   UNL     1       6.541   2.919  22.025  0.00  0.00    +0.050 A 
BRANCH  15  18
ATOM     18  O   UNL     1       9.319   4.839  23.392  0.00  0.00    -0.503 OA
ATOM     19  H   UNL     1       9.910   4.515  24.101  0.00  0.00    +0.292 HD
ENDBRANCH  15  18
BRANCH  16  20
ATOM     20  O   UNL     1       7.198   5.216  21.754  0.00  0.00    -0.503 OA
ATOM     21  H   UNL     1       7.727   5.294  20.941  0.00  0.00    +0.292 HD
ENDBRANCH  16  20
ENDBRANCH   1  13
BRANCH   5  22
ATOM     22  O   UNL     1      10.224  -4.610  24.654  0.00  0.00    -0.506 OA
ATOM     23  H   UNL     1      11.079  -4.139  24.783  0.00  0.00    +0.292 HD
ENDBRANCH   5  22
BRANCH  11  24
ATOM     24  O   UNL     1      10.365  -0.028  22.321  0.00  0.00    -0.501 OA
ATOM     25  H   UNL     1      10.978   0.531  22.824  0.00  0.00    +0.292 HD
ENDBRANCH  11  24
BRANCH   7  26
ATOM     26  O   UNL     1       6.550  -4.215  27.704  0.00  0.00    -0.461 OA
BRANCH  26  27
ATOM     27  C   UNL     1       6.638  -5.661  27.786  0.00  0.00    +0.339 C 
ATOM     28  O   UNL     1       6.134  -6.256  26.580  0.00  0.00    -0.331 OA
ATOM     29  C   UNL     1       4.707  -6.150  26.483  0.00  0.00    +0.179 C 
ATOM     30  C   UNL     1       4.119  -7.126  27.508  0.00  0.00    +0.177 C 
ATOM     31  C   UNL     1       4.511  -6.659  28.918  0.00  0.00    +0.180 C 
ATOM     32  C   UNL     1       6.009  -6.347  29.031  0.00  0.00    +0.214 C 
BRANCH  30  33
ATOM     33  O   UNL     1       2.698  -7.241  27.395  0.00  0.00    -0.386 OA
ATOM     34  H   UNL     1       2.454  -6.788  26.558  0.00  0.00    +0.210 HD
ENDBRANCH  30  33
BRANCH  31  35
ATOM     35  O   UNL     1       3.714  -5.522  29.303  0.00  0.00    -0.386 OA
ATOM     36  H   UNL     1       3.818  -4.827  28.634  0.00  0.00    +0.210 HD
ENDBRANCH  31  35
BRANCH  32  37
ATOM     37  O   UNL     1       6.321  -5.673  30.249  0.00  0.00    -0.383 OA
ATOM     38  H   UNL     1       6.833  -6.287  30.809  0.00  0.00    +0.210 HD
ENDBRANCH  32  37
BRANCH  29  39
ATOM     39  C   UNL     1       4.279  -6.444  25.040  0.00  0.00    +0.190 C 
BRANCH  39  40
ATOM     40  O   UNL     1       3.890  -7.799  24.852  0.00  0.00    -0.392 OA
ATOM     41  H   UNL     1       4.519  -8.186  24.206  0.00  0.00    +0.210 HD
ENDBRANCH  39  40
ENDBRANCH  29  39
ENDBRANCH  26  27
ENDBRANCH   7  26
TORSDOF 12
ENDMDL
MODEL 6
REMARK VINA RESULT:      -7.4      1.687      9.065
REMARK  Name = 
REMARK  12 active torsions:
REMARK  status: ('A' for Active; 'I' for Inactive)
REMARK    1  A    between atoms: C_3  and  O_36
REMARK    2  A    between atoms: C_4  and  O_35
REMARK    3  A    between atoms: C_6  and  C_7
REMARK    4  A    between atoms: C_8  and  O_34
REMARK    5  A    between atoms: C_12  and  O_33
REMARK    6  A    between atoms: C_14  and  O_18
REMARK    7  A    between atoms: O_18  and  C_19
REMARK    8  A    between atoms: C_21  and  O_32
REMARK    9  A    between atoms: C_22  and  O_31
REMARK   10  A    between atoms: C_24  and  O_30
REMARK   11  A    between atoms: C_26  and  C_28
REMARK   12  A    between atoms: C_28  and  O_29
REMARK                            x       y       z     vdW  Elec       q    Type
REMARK                         _______ _______ _______ _____ _____    ______ ____
ROOT
ATOM      1  C   UNL     1       6.945  -4.265  25.814  0.00  0.00    +0.181 A 
ATOM      2  O   UNL     1       6.404  -3.054  25.343  0.00  0.00    -0.451 OA
ATOM      3  C   UNL     1       7.160  -2.270  24.481  0.00  0.00    +0.147 A 
ATOM      4  C   UNL     1       8.460  -2.616  24.139  0.00  0.00    +0.109 A 
ATOM      5  C   UNL     1       9.209  -1.809  23.291  0.00  0.00    +0.135 A 
ATOM      6  C   UNL     1       8.667  -0.640  22.787  0.00  0.00    +0.092 A 
ATOM      7  C   UNL     1       7.368  -0.234  23.127  0.00  0.00    +0.131 A 
ATOM      8  C   UNL     1       9.044  -3.849  24.659  0.00  0.00    +0.238 A 
ATOM      9  O   UNL     1      10.206  -4.142  24.390  0.00  0.00    -0.283 OA
ATOM     10  C   UNL     1       6.602  -1.077  23.961  0.00  0.00    +0.093 A 
ATOM     11  C   UNL     1       8.173  -4.714  25.471  0.00  0.00    +0.208 A 
ENDROOT
BRANCH   1  13
ATOM     12  C   UNL     1       6.158  -5.003  28.116  0.00  0.00    +0.015 A 
ATOM     13  C   UNL     1       6.046  -5.064  26.703  0.00  0.00    +0.025 A 
ATOM     14  C   UNL     1       5.085  -5.934  26.172  0.00  0.00    +0.060 A 
ATOM     15  C   UNL     1       4.354  -6.767  27.020  0.00  0.00    +0.159 A 
ATOM     16  C   UNL     1       4.557  -6.763  28.397  0.00  0.00    +0.158 A 
ATOM     17  C   UNL     1       5.450  -5.869  28.959  0.00  0.00    +0.050 A 
BRANCH  15  18
ATOM     18  O   UNL     1       3.436  -7.625  26.483  0.00  0.00    -0.503 OA
ATOM     19  H   UNL     1       3.330  -7.328  25.557  0.00  0.00    +0.292 HD
ENDBRANCH  15  18
BRANCH  16  20
ATOM     20  O   UNL     1       3.858  -7.658  29.156  0.00  0.00    -0.503 OA
ATOM     21  H   UNL     1       3.454  -7.182  29.902  0.00  0.00    +0.292 HD
ENDBRANCH  16  20
ENDBRANCH   1  13
BRANCH   5  22
ATOM     22  O   UNL     1      10.497  -2.086  22.914  0.00  0.00    -0.506 OA
ATOM     23  H   UNL     1      10.616  -1.786  21.984  0.00  0.00    +0.292 HD
ENDBRANCH   5  22
BRANCH  11  24
ATOM     24  O   UNL     1       8.703  -5.952  25.794  0.00  0.00    -0.501 OA
ATOM     25  H   UNL     1       8.281  -6.617  25.229  0.00  0.00    +0.292 HD
ENDBRANCH  11  24
BRANCH   7  26
ATOM     26  O   UNL     1       6.817   0.975  22.707  0.00  0.00    -0.461 OA
BRANCH  26  27
ATOM     27  C   UNL     1       6.480   1.862  23.803  0.00  0.00    +0.339 C 
ATOM     28  O   UNL     1       5.122   2.313  23.675  0.00  0.00    -0.331 OA
ATOM     29  C   UNL     1       4.966   3.253  22.603  0.00  0.00    +0.179 C 
ATOM     30  C   UNL     1       5.620   4.561  23.062  0.00  0.00    +0.177 C 
ATOM     31  C   UNL     1       7.129   4.325  23.239  0.00  0.00    +0.180 C 
ATOM     32  C   UNL     1       7.426   3.068  24.066  0.00  0.00    +0.214 C 
BRANCH  30  33
ATOM     33  O   UNL     1       5.385   5.636  22.149  0.00  0.00    -0.386 OA
ATOM     34  H   UNL     1       4.511   6.014  22.394  0.00  0.00    +0.210 HD
ENDBRANCH  30  33
BRANCH  31  35
ATOM     35  O   UNL     1       7.775   4.265  21.952  0.00  0.00    -0.386 OA
ATOM     36  H   UNL     1       7.275   3.661  21.380  0.00  0.00    +0.210 HD
ENDBRANCH  31  35
BRANCH  32  37
ATOM     37  O   UNL     1       8.806   2.708  24.009  0.00  0.00    -0.383 OA
ATOM     38  H   UNL     1       8.882   1.898  23.469  0.00  0.00    +0.210 HD
ENDBRANCH  32  37
BRANCH  29  39
ATOM     39  C   UNL     1       3.475   3.397  22.275  0.00  0.00    +0.190 C 
BRANCH  39  40
ATOM     40  O   UNL     1       3.249   4.101  21.060  0.00  0.00    -0.392 OA
ATOM     41  H   UNL     1       3.262   5.056  21.282  0.00  0.00    +0.210 HD
ENDBRANCH  39  40
ENDBRANCH  29  39
ENDBRANCH  26  27
ENDBRANCH   7  26
TORSDOF 12
ENDMDL
MODEL 7
REMARK VINA RESULT:      -7.4      1.820      2.383
REMARK  Name = 
REMARK  12 active torsions:
REMARK  status: ('A' for Active; 'I' for Inactive)
REMARK    1  A    between atoms: C_3  and  O_36
REMARK    2  A    between atoms: C_4  and  O_35
REMARK    3  A    between atoms: C_6  and  C_7
REMARK    4  A    between atoms: C_8  and  O_34
REMARK    5  A    between atoms: C_12  and  O_33
REMARK    6  A    between atoms: C_14  and  O_18
REMARK    7  A    between atoms: O_18  and  C_19
REMARK    8  A    between atoms: C_21  and  O_32
REMARK    9  A    between atoms: C_22  and  O_31
REMARK   10  A    between atoms: C_24  and  O_30
REMARK   11  A    between atoms: C_26  and  C_28
REMARK   12  A    between atoms: C_28  and  O_29
REMARK                            x       y       z     vdW  Elec       q    Type
REMARK                         _______ _______ _______ _____ _____    ______ ____
ROOT
ATOM      1  C   UNL     1       7.802   2.141  24.059  0.00  0.00    +0.181 A 
ATOM      2  O   UNL     1       7.228   0.917  24.454  0.00  0.00    -0.451 OA
ATOM      3  C   UNL     1       7.736  -0.264  23.927  0.00  0.00    +0.147 A 
ATOM      4  C   UNL     1       8.738  -0.256  22.966  0.00  0.00    +0.109 A 
ATOM      5  C   UNL     1       9.219  -1.447  22.436  0.00  0.00    +0.135 A 
ATOM      6  C   UNL     1       8.692  -2.657  22.852  0.00  0.00    +0.092 A 
ATOM      7  C   UNL     1       7.659  -2.713  23.799  0.00  0.00    +0.131 A 
ATOM      8  C   UNL     1       9.307   1.012  22.520  0.00  0.00    +0.238 A 
ATOM      9  O   UNL     1      10.167   1.026  21.644  0.00  0.00    -0.283 OA
ATOM     10  C   UNL     1       7.200  -1.500  24.359  0.00  0.00    +0.093 A 
ATOM     11  C   UNL     1       8.831   2.234  23.187  0.00  0.00    +0.208 A 
ENDROOT
BRANCH   1  13
ATOM     12  C   UNL     1       6.286   4.182  24.032  0.00  0.00    +0.015 A 
ATOM     13  C   UNL     1       7.221   3.358  24.708  0.00  0.00    +0.025 A 
ATOM     14  C   UNL     1       7.612   3.752  25.994  0.00  0.00    +0.060 A 
ATOM     15  C   UNL     1       7.159   4.962  26.520  0.00  0.00    +0.159 A 
ATOM     16  C   UNL     1       6.322   5.805  25.793  0.00  0.00    +0.158 A 
ATOM     17  C   UNL     1       5.865   5.413  24.548  0.00  0.00    +0.050 A 
BRANCH  15  18
ATOM     18  O   UNL     1       7.566   5.341  27.769  0.00  0.00    -0.503 OA
ATOM     19  H   UNL     1       7.242   6.259  27.868  0.00  0.00    +0.292 HD
ENDBRANCH  15  18
BRANCH  16  20
ATOM     20  O   UNL     1       5.979   7.007  26.344  0.00  0.00    -0.503 OA
ATOM     21  H   UNL     1       5.416   7.487  25.711  0.00  0.00    +0.292 HD
ENDBRANCH  16  20
ENDBRANCH   1  13
BRANCH   5  22
ATOM     22  O   UNL     1      10.202  -1.516  21.484  0.00  0.00    -0.506 OA
ATOM     23  H   UNL     1      10.019  -0.831  20.802  0.00  0.00    +0.292 HD
ENDBRANCH   5  22
BRANCH  11  24
ATOM     24  O   UNL     1       9.518   3.391  22.865  0.00  0.00    -0.501 OA
ATOM     25  H   UNL     1       9.544   3.956  23.653  0.00  0.00    +0.292 HD
ENDBRANCH  11  24
BRANCH   7  26
ATOM     26  O   UNL     1       7.046  -3.903  24.184  0.00  0.00    -0.461 OA
BRANCH  26  27
ATOM     27  C   UNL     1       5.602  -3.800  24.280  0.00  0.00    +0.339 C 
ATOM     28  O   UNL     1       5.130  -4.518  25.431  0.00  0.00    -0.331 OA
ATOM     29  C   UNL     1       5.216  -5.939  25.250  0.00  0.00    +0.179 C 
ATOM     30  C   UNL     1       4.122  -6.325  24.249  0.00  0.00    +0.177 C 
ATOM     31  C   UNL     1       4.441  -5.679  22.892  0.00  0.00    +0.180 C 
ATOM     32  C   UNL     1       4.771  -4.186  23.024  0.00  0.00    +0.214 C 
BRANCH  30  33
ATOM     33  O   UNL     1       3.988  -7.742  24.110  0.00  0.00    -0.386 OA
ATOM     34  H   UNL     1       3.414  -8.035  24.851  0.00  0.00    +0.210 HD
ENDBRANCH  30  33
BRANCH  31  35
ATOM     35  O   UNL     1       5.512  -6.391  22.243  0.00  0.00    -0.386 OA
ATOM     36  H   UNL     1       5.337  -7.344  22.309  0.00  0.00    +0.210 HD
ENDBRANCH  31  35
BRANCH  32  37
ATOM     37  O   UNL     1       5.316  -3.654  21.817  0.00  0.00    -0.383 OA
ATOM     38  H   UNL     1       4.581  -3.270  21.300  0.00  0.00    +0.210 HD
ENDBRANCH  32  37
BRANCH  29  39
ATOM     39  C   UNL     1       5.071  -6.627  26.613  0.00  0.00    +0.190 C 
BRANCH  39  40
ATOM     40  O   UNL     1       3.763  -7.143  26.827  0.00  0.00    -0.392 OA
ATOM     41  H   UNL     1       3.839  -8.121  26.814  0.00  0.00    +0.210 HD
ENDBRANCH  39  40
ENDBRANCH  29  39
ENDBRANCH  26  27
ENDBRANCH   7  26
TORSDOF 12
ENDMDL
MODEL 8
REMARK VINA RESULT:      -7.1      2.069      9.060
REMARK  Name = 
REMARK  12 active torsions:
REMARK  status: ('A' for Active; 'I' for Inactive)
REMARK    1  A    between atoms: C_3  and  O_36
REMARK    2  A    between atoms: C_4  and  O_35
REMARK    3  A    between atoms: C_6  and  C_7
REMARK    4  A    between atoms: C_8  and  O_34
REMARK    5  A    between atoms: C_12  and  O_33
REMARK    6  A    between atoms: C_14  and  O_18
REMARK    7  A    between atoms: O_18  and  C_19
REMARK    8  A    between atoms: C_21  and  O_32
REMARK    9  A    between atoms: C_22  and  O_31
REMARK   10  A    between atoms: C_24  and  O_30
REMARK   11  A    between atoms: C_26  and  C_28
REMARK   12  A    between atoms: C_28  and  O_29
REMARK                            x       y       z     vdW  Elec       q    Type
REMARK                         _______ _______ _______ _____ _____    ______ ____
ROOT
ATOM      1  C   UNL     1       7.820  -1.800  23.205  0.00  0.00    +0.181 A 
ATOM      2  O   UNL     1       7.052  -0.676  22.848  0.00  0.00    -0.451 OA
ATOM      3  C   UNL     1       7.649   0.579  22.863  0.00  0.00    +0.147 A 
ATOM      4  C   UNL     1       8.957   0.753  23.294  0.00  0.00    +0.109 A 
ATOM      5  C   UNL     1       9.531   2.019  23.320  0.00  0.00    +0.135 A 
ATOM      6  C   UNL     1       8.797   3.123  22.928  0.00  0.00    +0.092 A 
ATOM      7  C   UNL     1       7.463   3.000  22.512  0.00  0.00    +0.131 A 
ATOM      8  C   UNL     1       9.746  -0.403  23.707  0.00  0.00    +0.238 A 
ATOM      9  O   UNL     1      10.891  -0.250  24.124  0.00  0.00    -0.283 OA
ATOM     10  C   UNL     1       6.898   1.707  22.455  0.00  0.00    +0.093 A 
ATOM     11  C   UNL     1       9.122  -1.728  23.564  0.00  0.00    +0.208 A 
ENDROOT
BRANCH   1  13
ATOM     12  C   UNL     1       6.779  -3.852  24.285  0.00  0.00    +0.015 A 
ATOM     13  C   UNL     1       7.109  -3.113  23.120  0.00  0.00    +0.025 A 
ATOM     14  C   UNL     1       6.779  -3.682  21.884  0.00  0.00    +0.060 A 
ATOM     15  C   UNL     1       6.239  -4.969  21.830  0.00  0.00    +0.159 A 
ATOM     16  C   UNL     1       6.021  -5.715  22.985  0.00  0.00    +0.158 A 
ATOM     17  C   UNL     1       6.274  -5.156  24.225  0.00  0.00    +0.050 A 
BRANCH  15  18
ATOM     18  O   UNL     1       5.942  -5.517  20.614  0.00  0.00    -0.503 OA
ATOM     19  H   UNL     1       5.064  -5.153  20.385  0.00  0.00    +0.292 HD
ENDBRANCH  15  18
BRANCH  16  20
ATOM     20  O   UNL     1       5.559  -6.994  22.849  0.00  0.00    -0.503 OA
ATOM     21  H   UNL     1       6.318  -7.581  22.688  0.00  0.00    +0.292 HD
ENDBRANCH  16  20
ENDBRANCH   1  13
BRANCH   5  22
ATOM     22  O   UNL     1      10.813   2.266  23.736  0.00  0.00    -0.506 OA
ATOM     23  H   UNL     1      11.419   2.114  22.975  0.00  0.00    +0.292 HD
ENDBRANCH   5  22
BRANCH  11  24
ATOM     24  O   UNL     1       9.959  -2.806  23.795  0.00  0.00    -0.501 OA
ATOM     25  H   UNL     1      10.335  -3.084  22.945  0.00  0.00    +0.292 HD
ENDBRANCH  11  24
BRANCH   7  26
ATOM     26  O   UNL     1       6.665   4.095  22.188  0.00  0.00    -0.461 OA
BRANCH  26  27
ATOM     27  C   UNL     1       6.907   5.250  23.030  0.00  0.00    +0.339 C 
ATOM     28  O   UNL     1       6.254   5.084  24.298  0.00  0.00    -0.331 OA
ATOM     29  C   UNL     1       4.829   5.212  24.190  0.00  0.00    +0.179 C 
ATOM     30  C   UNL     1       4.535   6.697  23.952  0.00  0.00    +0.177 C 
ATOM     31  C   UNL     1       5.128   7.108  22.595  0.00  0.00    +0.180 C 
ATOM     32  C   UNL     1       6.584   6.651  22.437  0.00  0.00    +0.214 C 
BRANCH  30  33
ATOM     33  O   UNL     1       3.135   6.987  23.995  0.00  0.00    -0.386 OA
ATOM     34  H   UNL     1       3.062   7.944  24.208  0.00  0.00    +0.210 HD
ENDBRANCH  30  33
BRANCH  31  35
ATOM     35  O   UNL     1       4.307   6.607  21.523  0.00  0.00    -0.386 OA
ATOM     36  H   UNL     1       3.394   6.524  21.841  0.00  0.00    +0.210 HD
ENDBRANCH  31  35
BRANCH  32  37
ATOM     37  O   UNL     1       7.045   6.800  21.094  0.00  0.00    -0.383 OA
ATOM     38  H   UNL     1       6.265   6.784  20.506  0.00  0.00    +0.210 HD
ENDBRANCH  32  37
BRANCH  29  39
ATOM     39  C   UNL     1       4.177   4.655  25.462  0.00  0.00    +0.190 C 
BRANCH  39  40
ATOM     40  O   UNL     1       4.063   5.631  26.489  0.00  0.00    -0.392 OA
ATOM     41  H   UNL     1       4.949   6.042  26.588  0.00  0.00    +0.210 HD
ENDBRANCH  39  40
ENDBRANCH  29  39
ENDBRANCH  26  27
ENDBRANCH   7  26
TORSDOF 12
ENDMDL
MODEL 9
REMARK VINA RESULT:      -7.0      1.895      9.166
REMARK  Name = 
REMARK  12 active torsions:
REMARK  status: ('A' for Active; 'I' for Inactive)
REMARK    1  A    between atoms: C_3  and  O_36
REMARK    2  A    between atoms: C_4  and  O_35
REMARK    3  A    between atoms: C_6  and  C_7
REMARK    4  A    between atoms: C_8  and  O_34
REMARK    5  A    between atoms: C_12  and  O_33
REMARK    6  A    between atoms: C_14  and  O_18
REMARK    7  A    between atoms: O_18  and  C_19
REMARK    8  A    between atoms: C_21  and  O_32
REMARK    9  A    between atoms: C_22  and  O_31
REMARK   10  A    between atoms: C_24  and  O_30
REMARK   11  A    between atoms: C_26  and  C_28
REMARK   12  A    between atoms: C_28  and  O_29
REMARK                            x       y       z     vdW  Elec       q    Type
REMARK                         _______ _______ _______ _____ _____    ______ ____
ROOT
ATOM      1  C   UNL     1       6.915  -4.458  26.328  0.00  0.00    +0.181 A 
ATOM      2  O   UNL     1       6.506  -3.155  25.986  0.00  0.00    -0.451 OA
ATOM      3  C   UNL     1       7.319  -2.391  25.158  0.00  0.00    +0.147 A 
ATOM      4  C   UNL     1       8.554  -2.855  24.727  0.00  0.00    +0.109 A 
ATOM      5  C   UNL     1       9.363  -2.069  23.915  0.00  0.00    +0.135 A 
ATOM      6  C   UNL     1       8.948  -0.804  23.537  0.00  0.00    +0.092 A 
ATOM      7  C   UNL     1       7.721  -0.281  23.972  0.00  0.00    +0.131 A 
ATOM      8  C   UNL     1       9.004  -4.190  25.113  0.00  0.00    +0.238 A 
ATOM      9  O   UNL     1      10.111  -4.590  24.765  0.00  0.00    -0.283 OA
ATOM     10  C   UNL     1       6.890  -1.100  24.768  0.00  0.00    +0.093 A 
ATOM     11  C   UNL     1       8.066  -5.016  25.889  0.00  0.00    +0.208 A 
ENDROOT
BRANCH   1  13
ATOM     12  C   UNL     1       6.118  -5.284  28.596  0.00  0.00    +0.015 A 
ATOM     13  C   UNL     1       5.959  -5.223  27.188  0.00  0.00    +0.025 A 
ATOM     14  C   UNL     1       4.895  -5.942  26.630  0.00  0.00    +0.060 A 
ATOM     15  C   UNL     1       4.102  -6.756  27.440  0.00  0.00    +0.159 A 
ATOM     16  C   UNL     1       4.344  -6.879  28.806  0.00  0.00    +0.158 A 
ATOM     17  C   UNL     1       5.345  -6.131  29.399  0.00  0.00    +0.050 A 
BRANCH  15  18
ATOM     18  O   UNL     1       3.081  -7.467  26.876  0.00  0.00    -0.503 OA
ATOM     19  H   UNL     1       3.471  -8.339  26.667  0.00  0.00    +0.292 HD
ENDBRANCH  15  18
BRANCH  16  20
ATOM     20  O   UNL     1       3.572  -7.751  29.522  0.00  0.00    -0.503 OA
ATOM     21  H   UNL     1       3.225  -7.285  30.303  0.00  0.00    +0.292 HD
ENDBRANCH  16  20
ENDBRANCH   1  13
BRANCH   5  22
ATOM     22  O   UNL     1      10.593  -2.460  23.455  0.00  0.00    -0.506 OA
ATOM     23  H   UNL     1      11.068  -1.661  23.131  0.00  0.00    +0.292 HD
ENDBRANCH   5  22
BRANCH  11  24
ATOM     24  O   UNL     1       8.454  -6.331  26.082  0.00  0.00    -0.501 OA
ATOM     25  H   UNL     1       9.346  -6.329  26.464  0.00  0.00    +0.292 HD
ENDBRANCH  11  24
BRANCH   7  26
ATOM     26  O   UNL     1       7.304   1.016  23.682  0.00  0.00    -0.461 OA
BRANCH  26  27
ATOM     27  C   UNL     1       8.404   1.938  23.470  0.00  0.00    +0.339 C 
ATOM     28  O   UNL     1       8.564   2.789  24.617  0.00  0.00    -0.331 OA
ATOM     29  C   UNL     1       7.510   3.757  24.719  0.00  0.00    +0.179 C 
ATOM     30  C   UNL     1       7.746   4.787  23.610  0.00  0.00    +0.177 C 
ATOM     31  C   UNL     1       7.588   4.093  22.248  0.00  0.00    +0.180 C 
ATOM     32  C   UNL     1       8.387   2.786  22.167  0.00  0.00    +0.214 C 
BRANCH  30  33
ATOM     33  O   UNL     1       6.858   5.904  23.709  0.00  0.00    -0.386 OA
ATOM     34  H   UNL     1       6.033   5.561  24.117  0.00  0.00    +0.210 HD
ENDBRANCH  30  33
BRANCH  31  35
ATOM     35  O   UNL     1       6.194   3.868  21.965  0.00  0.00    -0.386 OA
ATOM     36  H   UNL     1       5.757   4.726  21.844  0.00  0.00    +0.210 HD
ENDBRANCH  31  35
BRANCH  32  37
ATOM     37  O   UNL     1       8.037   2.019  21.015  0.00  0.00    -0.383 OA
ATOM     38  H   UNL     1       7.080   2.133  20.859  0.00  0.00    +0.210 HD
ENDBRANCH  32  37
BRANCH  29  39
ATOM     39  C   UNL     1       7.521   4.361  26.129  0.00  0.00    +0.190 C 
BRANCH  39  40
ATOM     40  O   UNL     1       8.489   5.392  26.274  0.00  0.00    -0.392 OA
ATOM     41  H   UNL     1       8.949   5.230  27.125  0.00  0.00    +0.210 HD
ENDBRANCH  39  40
ENDBRANCH  29  39
ENDBRANCH  26  27
ENDBRANCH   7  26
TORSDOF 12
ENDMDL
