MODEL 1
REMARK VINA RESULT:      -5.8      0.000      0.000
REMARK  Name = 
REMARK  28 active torsions:
REMARK  status: ('A' for Active; 'I' for Inactive)
REMARK    1  A    between atoms: C_1  and  C_2
REMARK    2  A    between atoms: C_3  and  O_64
REMARK    3  A    between atoms: C_4  and  O_63
REMARK    4  A    between atoms: C_5  and  O_62
REMARK    5  A    between atoms: C_6  and  O_8
REMARK    6  A    between atoms: O_8  and  C_9
REMARK    7  A    between atoms: C_9  and  C_10
REMARK    8  A    between atoms: C_11  and  O_61
REMARK    9  A    between atoms: C_12  and  O_60
REMARK   10  A    between atoms: C_13  and  O_59
REMARK   11  A    between atoms: C_14  and  O_16
REMARK   12  A    between atoms: O_16  and  C_17
REMARK   13  A    between atoms: C_19  and  O_58
REMARK   14  A    between atoms: C_24  and  C_50
REMARK   15  A    between atoms: C_25  and  O_28
REMARK   16  A    between atoms: O_28  and  C_29
REMARK   17  A    between atoms: C_30  and  O_49
REMARK   18  A    between atoms: C_31  and  O_48
REMARK   19  A    between atoms: C_32  and  O_36
REMARK   20  A    between atoms: C_33  and  C_35
REMARK   21  A    between atoms: O_36  and  C_37
REMARK   22  A    between atoms: C_38  and  O_47
REMARK   23  A    between atoms: C_39  and  O_46
REMARK   24  A    between atoms: C_40  and  O_45
REMARK   25  A    between atoms: C_41  and  C_43
REMARK   26  A    between atoms: C_43  and  O_44
REMARK   27  A    between atoms: C_52  and  O_57
REMARK   28  A    between atoms: C_53  and  O_56
REMARK                            x       y       z     vdW  Elec       q    Type
REMARK                         _______ _______ _______ _____ _____    ______ ____
ROOT
ATOM      1  C   UNL     1       2.563  -2.626  27.924  0.00  0.00    +0.131 A 
ATOM      2  C   UNL     1       2.335  -1.541  27.049  0.00  0.00    +0.093 A 
ATOM      3  C   UNL     1       2.938  -0.294  27.296  0.00  0.00    +0.147 A 
ATOM      4  O   UNL     1       2.715   0.774  26.445  0.00  0.00    -0.451 OA
ATOM      5  C   UNL     1       3.480   1.944  26.628  0.00  0.00    +0.181 A 
ATOM      6  C   UNL     1       4.260   2.176  27.716  0.00  0.00    +0.214 A 
ATOM      7  C   UNL     1       4.088   1.197  28.820  0.00  0.00    +0.238 A 
ATOM      8  O   UNL     1       4.102   1.533  30.001  0.00  0.00    -0.283 OA
ATOM      9  C   UNL     1       3.725  -0.154  28.437  0.00  0.00    +0.109 A 
ATOM     10  C   UNL     1       4.061  -1.258  29.222  0.00  0.00    +0.135 A 
ATOM     11  C   UNL     1       3.491  -2.493  28.959  0.00  0.00    +0.092 A 
ENDROOT
BRANCH   5  12
ATOM     12  C   UNL     1       3.316   2.969  25.550  0.00  0.00    +0.025 A 
ATOM     13  C   UNL     1       3.008   4.313  25.831  0.00  0.00    +0.015 A 
ATOM     14  C   UNL     1       2.862   5.251  24.792  0.00  0.00    +0.050 A 
ATOM     15  C   UNL     1       3.025   4.853  23.475  0.00  0.00    +0.158 A 
ATOM     16  C   UNL     1       3.355   3.539  23.177  0.00  0.00    +0.159 A 
ATOM     17  C   UNL     1       3.520   2.607  24.201  0.00  0.00    +0.060 A 
BRANCH  16  18
ATOM     18  O   UNL     1       3.514   3.198  21.863  0.00  0.00    -0.503 OA
ATOM     19  H   UNL     1       2.721   3.481  21.377  0.00  0.00    +0.292 HD
ENDBRANCH  16  18
BRANCH  15  20
ATOM     20  O   UNL     1       2.878   5.757  22.465  0.00  0.00    -0.503 OA
ATOM     21  H   UNL     1       3.356   6.556  22.764  0.00  0.00    +0.292 HD
ENDBRANCH  15  20
ENDBRANCH   5  12
BRANCH  10  22
ATOM     22  O   UNL     1       4.943  -1.118  30.250  0.00  0.00    -0.506 OA
ATOM     23  H   UNL     1       4.628  -1.588  31.037  0.00  0.00    +0.292 HD
ENDBRANCH  10  22
BRANCH   6  24
ATOM     24  O   UNL     1       5.067   3.296  27.869  0.00  0.00    -0.453 OA
BRANCH  24  25
ATOM     25  C   UNL     1       6.502   3.115  27.871  0.00  0.00    +0.339 C 
ATOM     26  O   UNL     1       7.173   4.376  28.062  0.00  0.00    -0.334 OA
ATOM     27  C   UNL     1       6.973   5.318  27.005  0.00  0.00    +0.151 C 
ATOM     28  C   UNL     1       7.661   6.615  27.416  0.00  0.00    +0.041 C 
ATOM     29  C   UNL     1       7.431   4.788  25.615  0.00  0.00    +0.181 C 
ATOM     30  C   UNL     1       6.757   3.413  25.398  0.00  0.00    +0.180 C 
ATOM     31  C   UNL     1       7.009   2.467  26.571  0.00  0.00    +0.214 C 
BRANCH  31  32
ATOM     32  O   UNL     1       6.403   1.194  26.292  0.00  0.00    -0.383 OA
ATOM     33  H   UNL     1       5.448   1.347  26.153  0.00  0.00    +0.210 HD
ENDBRANCH  31  32
BRANCH  30  34
ATOM     34  O   UNL     1       7.091   2.760  24.170  0.00  0.00    -0.386 OA
ATOM     35  H   UNL     1       7.931   2.278  24.310  0.00  0.00    +0.210 HD
ENDBRANCH  30  34
BRANCH  29  36
ATOM     36  O   UNL     1       8.873   4.817  25.467  0.00  0.00    -0.340 OA
BRANCH  36  37
ATOM     37  C   UNL     1       9.367   5.258  24.188  0.00  0.00    +0.282 C 
ATOM     38  O   UNL     1       9.415   4.164  23.244  0.00  0.00    -0.341 OA
ATOM     39  C   UNL     1      10.519   3.260  23.392  0.00  0.00    +0.178 C 
ATOM     40  C   UNL     1      11.840   4.029  23.256  0.00  0.00    +0.177 C 
ATOM     41  C   UNL     1      11.888   5.095  24.350  0.00  0.00    +0.179 C 
ATOM     42  C   UNL     1      10.705   6.052  24.195  0.00  0.00    +0.201 C 
BRANCH  42  43
ATOM     43  O   UNL     1      10.784   7.108  25.153  0.00  0.00    -0.384 OA
ATOM     44  H   UNL     1       9.873   7.402  25.340  0.00  0.00    +0.210 HD
ENDBRANCH  42  43
BRANCH  41  45
ATOM     45  O   UNL     1      13.114   5.834  24.286  0.00  0.00    -0.386 OA
ATOM     46  H   UNL     1      13.716   5.324  23.710  0.00  0.00    +0.210 HD
ENDBRANCH  41  45
BRANCH  40  47
ATOM     47  O   UNL     1      11.939   4.669  21.967  0.00  0.00    -0.386 OA
ATOM     48  H   UNL     1      11.594   5.580  22.054  0.00  0.00    +0.210 HD
ENDBRANCH  40  47
BRANCH  39  49
ATOM     49  C   UNL     1      10.393   2.176  22.310  0.00  0.00    +0.190 C 
BRANCH  49  50
ATOM     50  O   UNL     1       9.179   2.300  21.579  0.00  0.00    -0.392 OA
ATOM     51  H   UNL     1       8.448   2.321  22.223  0.00  0.00    +0.210 HD
ENDBRANCH  49  50
ENDBRANCH  39  49
ENDBRANCH  36  37
ENDBRANCH  29  36
ENDBRANCH  24  25
ENDBRANCH   6  24
BRANCH   1  52
ATOM     52  O   UNL     1       1.854  -3.786  27.708  0.00  0.00    -0.461 OA
BRANCH  52  55
ATOM     53  C   UNL     1       3.288  -5.522  24.766  0.00  0.00    +0.179 C 
ATOM     54  O   UNL     1       2.636  -4.523  25.587  0.00  0.00    -0.331 OA
ATOM     55  C   UNL     1       2.560  -4.831  26.991  0.00  0.00    +0.339 C 
ATOM     56  C   UNL     1       1.809  -6.166  27.192  0.00  0.00    +0.214 C 
ATOM     57  C   UNL     1       2.509  -7.275  26.395  0.00  0.00    +0.180 C 
ATOM     58  C   UNL     1       2.579  -6.885  24.908  0.00  0.00    +0.177 C 
BRANCH  58  59
ATOM     59  O   UNL     1       3.164  -7.906  24.105  0.00  0.00    -0.386 OA
ATOM     60  H   UNL     1       3.417  -8.652  24.673  0.00  0.00    +0.210 HD
ENDBRANCH  58  59
BRANCH  57  61
ATOM     61  O   UNL     1       1.806  -8.509  26.560  0.00  0.00    -0.386 OA
ATOM     62  H   UNL     1       1.927  -9.001  25.723  0.00  0.00    +0.210 HD
ENDBRANCH  57  61
BRANCH  56  63
ATOM     63  O   UNL     1       0.443  -6.093  26.728  0.00  0.00    -0.383 OA
ATOM     64  H   UNL     1       0.386  -5.335  26.113  0.00  0.00    +0.210 HD
ENDBRANCH  56  63
BRANCH  53  65
ATOM     65  C   UNL     1       4.814  -5.544  25.015  0.00  0.00    +0.197 C 
BRANCH  65  66
ATOM     66  O   UNL     1       5.556  -5.250  23.830  0.00  0.00    -0.346 OA
BRANCH  66  70
ATOM     67  C   UNL     1       8.903  -3.898  26.154  0.00  0.00    +0.041 C 
ATOM     68  C   UNL     1       7.741  -3.009  25.702  0.00  0.00    +0.149 C 
ATOM     69  O   UNL     1       6.604  -3.796  25.324  0.00  0.00    -0.343 OA
ATOM     70  C   UNL     1       6.762  -4.526  24.107  0.00  0.00    +0.282 C 
ATOM     71  C   UNL     1       7.050  -3.557  22.937  0.00  0.00    +0.201 C 
ATOM     72  C   UNL     1       8.303  -2.736  23.255  0.00  0.00    +0.179 C 
ATOM     73  C   UNL     1       8.133  -2.010  24.601  0.00  0.00    +0.174 C 
BRANCH  73  74
ATOM     74  O   UNL     1       9.318  -1.310  24.988  0.00  0.00    -0.387 OA
ATOM     75  H   UNL     1       9.632  -1.690  25.828  0.00  0.00    +0.210 HD
ENDBRANCH  73  74
BRANCH  72  76
ATOM     76  O   UNL     1       8.549  -1.774  22.221  0.00  0.00    -0.386 OA
ATOM     77  H   UNL     1       9.373  -2.065  21.778  0.00  0.00    +0.210 HD
ENDBRANCH  72  76
BRANCH  71  78
ATOM     78  O   UNL     1       5.969  -2.620  22.734  0.00  0.00    -0.384 OA
ATOM     79  H   UNL     1       5.891  -2.487  21.769  0.00  0.00    +0.210 HD
ENDBRANCH  71  78
ENDBRANCH  66  70
ENDBRANCH  65  66
ENDBRANCH  53  65
ENDBRANCH  52  55
ENDBRANCH   1  52
TORSDOF 26
ENDMDL
MODEL 2
REMARK VINA RESULT:      -5.8      1.671      2.329
REMARK  Name = 
REMARK  28 active torsions:
REMARK  status: ('A' for Active; 'I' for Inactive)
REMARK    1  A    between atoms: C_1  and  C_2
REMARK    2  A    between atoms: C_3  and  O_64
REMARK    3  A    between atoms: C_4  and  O_63
REMARK    4  A    between atoms: C_5  and  O_62
REMARK    5  A    between atoms: C_6  and  O_8
REMARK    6  A    between atoms: O_8  and  C_9
REMARK    7  A    between atoms: C_9  and  C_10
REMARK    8  A    between atoms: C_11  and  O_61
REMARK    9  A    between atoms: C_12  and  O_60
REMARK   10  A    between atoms: C_13  and  O_59
REMARK   11  A    between atoms: C_14  and  O_16
REMARK   12  A    between atoms: O_16  and  C_17
REMARK   13  A    between atoms: C_19  and  O_58
REMARK   14  A    between atoms: C_24  and  C_50
REMARK   15  A    between atoms: C_25  and  O_28
REMARK   16  A    between atoms: O_28  and  C_29
REMARK   17  A    between atoms: C_30  and  O_49
REMARK   18  A    between atoms: C_31  and  O_48
REMARK   19  A    between atoms: C_32  and  O_36
REMARK   20  A    between atoms: C_33  and  C_35
REMARK   21  A    between atoms: O_36  and  C_37
REMARK   22  A    between atoms: C_38  and  O_47
REMARK   23  A    between atoms: C_39  and  O_46
REMARK   24  A    between atoms: C_40  and  O_45
REMARK   25  A    between atoms: C_41  and  C_43
REMARK   26  A    between atoms: C_43  and  O_44
REMARK   27  A    between atoms: C_52  and  O_57
REMARK   28  A    between atoms: C_53  and  O_56
REMARK                            x       y       z     vdW  Elec       q    Type
REMARK                         _______ _______ _______ _____ _____    ______ ____
ROOT
ATOM      1  C   UNL     1       2.222  -4.319  27.457  0.00  0.00    +0.131 A 
ATOM      2  C   UNL     1       1.714  -3.043  27.128  0.00  0.00    +0.093 A 
ATOM      3  C   UNL     1       2.374  -1.883  27.576  0.00  0.00    +0.147 A 
ATOM      4  O   UNL     1       1.878  -0.630  27.261  0.00  0.00    -0.451 OA
ATOM      5  C   UNL     1       2.666   0.497  27.574  0.00  0.00    +0.181 A 
ATOM      6  C   UNL     1       3.773   0.451  28.360  0.00  0.00    +0.214 A 
ATOM      7  C   UNL     1       3.985  -0.843  29.056  0.00  0.00    +0.238 A 
ATOM      8  O   UNL     1       4.405  -0.907  30.207  0.00  0.00    -0.283 OA
ATOM      9  C   UNL     1       3.505  -2.030  28.375  0.00  0.00    +0.109 A 
ATOM     10  C   UNL     1       4.083  -3.284  28.583  0.00  0.00    +0.135 A 
ATOM     11  C   UNL     1       3.450  -4.423  28.114  0.00  0.00    +0.092 A 
ENDROOT
BRANCH   5  12
ATOM     12  C   UNL     1       2.148   1.789  27.025  0.00  0.00    +0.025 A 
ATOM     13  C   UNL     1       1.286   2.626  27.759  0.00  0.00    +0.015 A 
ATOM     14  C   UNL     1       0.819   3.835  27.213  0.00  0.00    +0.050 A 
ATOM     15  C   UNL     1       1.210   4.214  25.939  0.00  0.00    +0.158 A 
ATOM     16  C   UNL     1       2.080   3.418  25.208  0.00  0.00    +0.159 A 
ATOM     17  C   UNL     1       2.563   2.227  25.749  0.00  0.00    +0.060 A 
BRANCH  16  18
ATOM     18  O   UNL     1       2.443   3.839  23.960  0.00  0.00    -0.503 OA
ATOM     19  H   UNL     1       3.219   4.418  24.048  0.00  0.00    +0.292 HD
ENDBRANCH  16  18
BRANCH  15  20
ATOM     20  O   UNL     1       0.754   5.382  25.403  0.00  0.00    -0.503 OA
ATOM     21  H   UNL     1      -0.026   5.132  24.868  0.00  0.00    +0.292 HD
ENDBRANCH  15  20
ENDBRANCH   5  12
BRANCH  10  22
ATOM     22  O   UNL     1       5.266  -3.384  29.251  0.00  0.00    -0.506 OA
ATOM     23  H   UNL     1       6.012  -3.265  28.644  0.00  0.00    +0.292 HD
ENDBRANCH  10  22
BRANCH   6  24
ATOM     24  O   UNL     1       4.590   1.546  28.614  0.00  0.00    -0.453 OA
BRANCH  24  25
ATOM     25  C   UNL     1       5.998   1.443  28.295  0.00  0.00    +0.339 C 
ATOM     26  O   UNL     1       6.647   2.721  28.446  0.00  0.00    -0.334 OA
ATOM     27  C   UNL     1       6.189   3.727  27.540  0.00  0.00    +0.151 C 
ATOM     28  C   UNL     1       6.902   5.025  27.905  0.00  0.00    +0.041 C 
ATOM     29  C   UNL     1       6.354   3.329  26.045  0.00  0.00    +0.181 C 
ATOM     30  C   UNL     1       5.700   1.940  25.859  0.00  0.00    +0.180 C 
ATOM     31  C   UNL     1       6.234   0.923  26.866  0.00  0.00    +0.214 C 
BRANCH  31  32
ATOM     32  O   UNL     1       5.629  -0.356  26.615  0.00  0.00    -0.383 OA
ATOM     33  H   UNL     1       6.306  -0.925  26.200  0.00  0.00    +0.210 HD
ENDBRANCH  31  32
BRANCH  30  34
ATOM     34  O   UNL     1       5.783   1.401  24.537  0.00  0.00    -0.386 OA
ATOM     35  H   UNL     1       5.126   0.680  24.470  0.00  0.00    +0.210 HD
ENDBRANCH  30  34
BRANCH  29  36
ATOM     36  O   UNL     1       7.727   3.447  25.596  0.00  0.00    -0.340 OA
BRANCH  36  37
ATOM     37  C   UNL     1       7.944   3.294  24.181  0.00  0.00    +0.282 C 
ATOM     38  O   UNL     1       8.407   1.960  23.867  0.00  0.00    -0.341 OA
ATOM     39  C   UNL     1       9.792   1.701  24.137  0.00  0.00    +0.178 C 
ATOM     40  C   UNL     1      10.667   2.680  23.341  0.00  0.00    +0.177 C 
ATOM     41  C   UNL     1      10.308   4.101  23.772  0.00  0.00    +0.179 C 
ATOM     42  C   UNL     1       8.829   4.371  23.491  0.00  0.00    +0.201 C 
BRANCH  42  43
ATOM     43  O   UNL     1       8.498   5.725  23.802  0.00  0.00    -0.384 OA
ATOM     44  H   UNL     1       7.531   5.818  23.710  0.00  0.00    +0.210 HD
ENDBRANCH  42  43
BRANCH  41  45
ATOM     45  O   UNL     1      11.112   5.061  23.075  0.00  0.00    -0.386 OA
ATOM     46  H   UNL     1      11.292   4.684  22.191  0.00  0.00    +0.210 HD
ENDBRANCH  41  45
BRANCH  40  47
ATOM     47  O   UNL     1      10.442   2.543  21.924  0.00  0.00    -0.386 OA
ATOM     48  H   UNL     1      10.840   1.699  21.633  0.00  0.00    +0.210 HD
ENDBRANCH  40  47
BRANCH  39  49
ATOM     49  C   UNL     1      10.089   0.245  23.745  0.00  0.00    +0.190 C 
BRANCH  49  50
ATOM     50  O   UNL     1       9.145  -0.248  22.801  0.00  0.00    -0.392 OA
ATOM     51  H   UNL     1       8.840   0.508  22.267  0.00  0.00    +0.210 HD
ENDBRANCH  49  50
ENDBRANCH  39  49
ENDBRANCH  36  37
ENDBRANCH  29  36
ENDBRANCH  24  25
ENDBRANCH   6  24
BRANCH   1  52
ATOM     52  O   UNL     1       1.476  -5.420  27.101  0.00  0.00    -0.461 OA
BRANCH  52  55
ATOM     53  C   UNL     1       1.489  -6.456  23.545  0.00  0.00    +0.179 C 
ATOM     54  O   UNL     1       1.146  -5.770  24.772  0.00  0.00    -0.331 OA
ATOM     55  C   UNL     1       1.930  -6.135  25.923  0.00  0.00    +0.339 C 
ATOM     56  C   UNL     1       1.801  -7.652  26.183  0.00  0.00    +0.214 C 
ATOM     57  C   UNL     1       2.225  -8.427  24.927  0.00  0.00    +0.180 C 
ATOM     58  C   UNL     1       1.369  -7.984  23.727  0.00  0.00    +0.177 C 
BRANCH  58  59
ATOM     59  O   UNL     1       1.673  -8.715  22.543  0.00  0.00    -0.386 OA
ATOM     60  H   UNL     1       1.632  -8.116  21.779  0.00  0.00    +0.210 HD
ENDBRANCH  58  59
BRANCH  57  61
ATOM     61  O   UNL     1       2.088  -9.831  25.154  0.00  0.00    -0.386 OA
ATOM     62  H   UNL     1       2.658 -10.268  24.489  0.00  0.00    +0.210 HD
ENDBRANCH  57  61
BRANCH  56  63
ATOM     63  O   UNL     1       0.443  -8.034  26.491  0.00  0.00    -0.383 OA
ATOM     64  H   UNL     1       0.012  -7.261  26.907  0.00  0.00    +0.210 HD
ENDBRANCH  56  63
BRANCH  53  65
ATOM     65  C   UNL     1       2.844  -5.965  22.985  0.00  0.00    +0.197 C 
BRANCH  65  66
ATOM     66  O   UNL     1       3.300  -4.781  23.642  0.00  0.00    -0.346 OA
BRANCH  66  70
ATOM     67  C   UNL     1       7.201  -5.277  21.919  0.00  0.00    +0.041 C 
ATOM     68  C   UNL     1       6.931  -5.016  23.404  0.00  0.00    +0.149 C 
ATOM     69  O   UNL     1       5.570  -5.311  23.742  0.00  0.00    -0.343 OA
ATOM     70  C   UNL     1       4.612  -4.392  23.217  0.00  0.00    +0.282 C 
ATOM     71  C   UNL     1       4.906  -2.963  23.730  0.00  0.00    +0.201 C 
ATOM     72  C   UNL     1       6.331  -2.564  23.331  0.00  0.00    +0.179 C 
ATOM     73  C   UNL     1       7.337  -3.603  23.855  0.00  0.00    +0.174 C 
BRANCH  73  74
ATOM     74  O   UNL     1       8.671  -3.325  23.422  0.00  0.00    -0.387 OA
ATOM     75  H   UNL     1       9.218  -3.168  24.212  0.00  0.00    +0.210 HD
ENDBRANCH  73  74
BRANCH  72  76
ATOM     76  O   UNL     1       6.657  -1.273  23.862  0.00  0.00    -0.386 OA
ATOM     77  H   UNL     1       7.626  -1.175  23.744  0.00  0.00    +0.210 HD
ENDBRANCH  72  76
BRANCH  71  78
ATOM     78  O   UNL     1       4.830  -2.880  25.170  0.00  0.00    -0.384 OA
ATOM     79  H   UNL     1       5.046  -3.770  25.513  0.00  0.00    +0.210 HD
ENDBRANCH  71  78
ENDBRANCH  66  70
ENDBRANCH  65  66
ENDBRANCH  53  65
ENDBRANCH  52  55
ENDBRANCH   1  52
TORSDOF 26
ENDMDL
MODEL 3
REMARK VINA RESULT:      -5.3      2.136     11.048
REMARK  Name = 
REMARK  28 active torsions:
REMARK  status: ('A' for Active; 'I' for Inactive)
REMARK    1  A    between atoms: C_1  and  C_2
REMARK    2  A    between atoms: C_3  and  O_64
REMARK    3  A    between atoms: C_4  and  O_63
REMARK    4  A    between atoms: C_5  and  O_62
REMARK    5  A    between atoms: C_6  and  O_8
REMARK    6  A    between atoms: O_8  and  C_9
REMARK    7  A    between atoms: C_9  and  C_10
REMARK    8  A    between atoms: C_11  and  O_61
REMARK    9  A    between atoms: C_12  and  O_60
REMARK   10  A    between atoms: C_13  and  O_59
REMARK   11  A    between atoms: C_14  and  O_16
REMARK   12  A    between atoms: O_16  and  C_17
REMARK   13  A    between atoms: C_19  and  O_58
REMARK   14  A    between atoms: C_24  and  C_50
REMARK   15  A    between atoms: C_25  and  O_28
REMARK   16  A    between atoms: O_28  and  C_29
REMARK   17  A    between atoms: C_30  and  O_49
REMARK   18  A    between atoms: C_31  and  O_48
REMARK   19  A    between atoms: C_32  and  O_36
REMARK   20  A    between atoms: C_33  and  C_35
REMARK   21  A    between atoms: O_36  and  C_37
REMARK   22  A    between atoms: C_38  and  O_47
REMARK   23  A    between atoms: C_39  and  O_46
REMARK   24  A    between atoms: C_40  and  O_45
REMARK   25  A    between atoms: C_41  and  C_43
REMARK   26  A    between atoms: C_43  and  O_44
REMARK   27  A    between atoms: C_52  and  O_57
REMARK   28  A    between atoms: C_53  and  O_56
REMARK                            x       y       z     vdW  Elec       q    Type
REMARK                         _______ _______ _______ _____ _____    ______ ____
ROOT
ATOM      1  C   UNL     1       9.073   0.692  24.461  0.00  0.00    +0.131 A 
ATOM      2  C   UNL     1       7.855   0.803  25.166  0.00  0.00    +0.093 A 
ATOM      3  C   UNL     1       7.101  -0.348  25.461  0.00  0.00    +0.147 A 
ATOM      4  O   UNL     1       5.904  -0.245  26.148  0.00  0.00    -0.451 OA
ATOM      5  C   UNL     1       5.278  -1.432  26.579  0.00  0.00    +0.181 A 
ATOM      6  C   UNL     1       5.652  -2.674  26.175  0.00  0.00    +0.214 A 
ATOM      7  C   UNL     1       6.640  -2.693  25.067  0.00  0.00    +0.238 A 
ATOM      8  O   UNL     1       6.592  -3.519  24.160  0.00  0.00    -0.283 OA
ATOM      9  C   UNL     1       7.567  -1.580  25.007  0.00  0.00    +0.109 A 
ATOM     10  C   UNL     1       8.834  -1.705  24.435  0.00  0.00    +0.135 A 
ATOM     11  C   UNL     1       9.590  -0.574  24.173  0.00  0.00    +0.092 A 
ENDROOT
BRANCH   5  12
ATOM     12  C   UNL     1       4.100  -1.222  27.477  0.00  0.00    +0.025 A 
ATOM     13  C   UNL     1       4.197  -1.317  28.879  0.00  0.00    +0.015 A 
ATOM     14  C   UNL     1       3.069  -1.111  29.695  0.00  0.00    +0.050 A 
ATOM     15  C   UNL     1       1.846  -0.809  29.118  0.00  0.00    +0.158 A 
ATOM     16  C   UNL     1       1.734  -0.684  27.740  0.00  0.00    +0.159 A 
ATOM     17  C   UNL     1       2.850  -0.868  26.926  0.00  0.00    +0.060 A 
BRANCH  16  18
ATOM     18  O   UNL     1       0.508  -0.376  27.221  0.00  0.00    -0.503 OA
ATOM     19  H   UNL     1      -0.097  -0.189  27.958  0.00  0.00    +0.292 HD
ENDBRANCH  16  18
BRANCH  15  20
ATOM     20  O   UNL     1       0.749  -0.615  29.904  0.00  0.00    -0.503 OA
ATOM     21  H   UNL     1       0.993  -0.977  30.779  0.00  0.00    +0.292 HD
ENDBRANCH  15  20
ENDBRANCH   5  12
BRANCH  10  22
ATOM     22  O   UNL     1       9.322  -2.939  24.128  0.00  0.00    -0.506 OA
ATOM     23  H   UNL     1       9.414  -3.479  24.928  0.00  0.00    +0.292 HD
ENDBRANCH  10  22
BRANCH   6  24
ATOM     24  O   UNL     1       5.082  -3.849  26.649  0.00  0.00    -0.453 OA
BRANCH  24  25
ATOM     25  C   UNL     1       4.557  -4.796  25.689  0.00  0.00    +0.339 C 
ATOM     26  O   UNL     1       3.278  -4.357  25.189  0.00  0.00    -0.334 OA
ATOM     27  C   UNL     1       2.246  -4.301  26.177  0.00  0.00    +0.151 C 
ATOM     28  C   UNL     1       1.004  -3.725  25.504  0.00  0.00    +0.041 C 
ATOM     29  C   UNL     1       1.993  -5.666  26.879  0.00  0.00    +0.181 C 
ATOM     30  C   UNL     1       3.357  -6.184  27.392  0.00  0.00    +0.180 C 
ATOM     31  C   UNL     1       4.408  -6.207  26.284  0.00  0.00    +0.214 C 
BRANCH  31  32
ATOM     32  O   UNL     1       5.636  -6.741  26.805  0.00  0.00    -0.383 OA
ATOM     33  H   UNL     1       6.139  -5.997  27.190  0.00  0.00    +0.210 HD
ENDBRANCH  31  32
BRANCH  30  34
ATOM     34  O   UNL     1       3.317  -7.455  28.047  0.00  0.00    -0.386 OA
ATOM     35  H   UNL     1       4.091  -7.505  28.643  0.00  0.00    +0.210 HD
ENDBRANCH  30  34
BRANCH  29  36
ATOM     36  O   UNL     1       1.243  -6.581  26.041  0.00  0.00    -0.340 OA
BRANCH  36  37
ATOM     37  C   UNL     1       2.000  -7.280  25.034  0.00  0.00    +0.282 C 
ATOM     38  O   UNL     1       1.756  -6.724  23.721  0.00  0.00    -0.341 OA
ATOM     39  C   UNL     1       0.521  -7.109  23.101  0.00  0.00    +0.178 C 
ATOM     40  C   UNL     1       0.465  -8.637  22.961  0.00  0.00    +0.177 C 
ATOM     41  C   UNL     1       0.561  -9.249  24.358  0.00  0.00    +0.179 C 
ATOM     42  C   UNL     1       1.875  -8.830  25.020  0.00  0.00    +0.201 C 
BRANCH  42  43
ATOM     43  O   UNL     1       2.023  -9.467  26.289  0.00  0.00    -0.384 OA
ATOM     44  H   UNL     1       2.937  -9.309  26.590  0.00  0.00    +0.210 HD
ENDBRANCH  42  43
BRANCH  41  45
ATOM     45  O   UNL     1       0.492 -10.678  24.291  0.00  0.00    -0.386 OA
ATOM     46  H   UNL     1       1.272 -11.018  24.773  0.00  0.00    +0.210 HD
ENDBRANCH  41  45
BRANCH  40  47
ATOM     47  O   UNL     1       1.557  -9.125  22.154  0.00  0.00    -0.386 OA
ATOM     48  H   UNL     1       1.185  -9.704  21.460  0.00  0.00    +0.210 HD
ENDBRANCH  40  47
BRANCH  39  49
ATOM     49  C   UNL     1       0.445  -6.422  21.729  0.00  0.00    +0.190 C 
BRANCH  49  50
ATOM     50  O   UNL     1       0.725  -7.329  20.670  0.00  0.00    -0.392 OA
ATOM     51  H   UNL     1       0.753  -8.226  21.050  0.00  0.00    +0.210 HD
ENDBRANCH  49  50
ENDBRANCH  39  49
ENDBRANCH  36  37
ENDBRANCH  29  36
ENDBRANCH  24  25
ENDBRANCH   6  24
BRANCH   1  52
ATOM     52  O   UNL     1       9.711   1.854  24.089  0.00  0.00    -0.461 OA
BRANCH  52  55
ATOM     53  C   UNL     1       7.242   4.184  22.606  0.00  0.00    +0.179 C 
ATOM     54  O   UNL     1       8.090   3.028  22.805  0.00  0.00    -0.331 OA
ATOM     55  C   UNL     1       8.872   3.035  24.013  0.00  0.00    +0.339 C 
ATOM     56  C   UNL     1       9.775   4.288  24.041  0.00  0.00    +0.214 C 
ATOM     57  C   UNL     1       8.910   5.549  23.906  0.00  0.00    +0.180 C 
ATOM     58  C   UNL     1       8.083   5.478  22.610  0.00  0.00    +0.177 C 
BRANCH  58  59
ATOM     59  O   UNL     1       7.305   6.652  22.396  0.00  0.00    -0.386 OA
ATOM     60  H   UNL     1       7.881   7.358  22.056  0.00  0.00    +0.210 HD
ENDBRANCH  58  59
BRANCH  57  61
ATOM     61  O   UNL     1       9.742   6.712  23.910  0.00  0.00    -0.386 OA
ATOM     62  H   UNL     1      10.459   6.526  24.550  0.00  0.00    +0.210 HD
ENDBRANCH  57  61
BRANCH  56  63
ATOM     63  O   UNL     1      10.726   4.294  22.954  0.00  0.00    -0.383 OA
ATOM     64  H   UNL     1      10.358   3.732  22.244  0.00  0.00    +0.210 HD
ENDBRANCH  56  63
BRANCH  53  65
ATOM     65  C   UNL     1       6.042   4.176  23.581  0.00  0.00    +0.197 C 
BRANCH  65  66
ATOM     66  O   UNL     1       5.062   5.158  23.236  0.00  0.00    -0.346 OA
BRANCH  66  70
ATOM     67  C   UNL     1       2.007   5.342  26.247  0.00  0.00    +0.041 C 
ATOM     68  C   UNL     1       2.786   4.076  25.872  0.00  0.00    +0.149 C 
ATOM     69  O   UNL     1       3.990   4.401  25.166  0.00  0.00    -0.343 OA
ATOM     70  C   UNL     1       3.790   4.894  23.840  0.00  0.00    +0.282 C 
ATOM     71  C   UNL     1       3.035   3.845  22.990  0.00  0.00    +0.201 C 
ATOM     72  C   UNL     1       1.700   3.512  23.663  0.00  0.00    +0.179 C 
ATOM     73  C   UNL     1       1.939   3.045  25.110  0.00  0.00    +0.174 C 
BRANCH  73  74
ATOM     74  O   UNL     1       0.713   2.818  25.811  0.00  0.00    -0.387 OA
ATOM     75  H   UNL     1       0.861   3.023  26.751  0.00  0.00    +0.210 HD
ENDBRANCH  73  74
BRANCH  72  76
ATOM     76  O   UNL     1       1.014   2.485  22.937  0.00  0.00    -0.386 OA
ATOM     77  H   UNL     1       1.020   2.773  22.000  0.00  0.00    +0.210 HD
ENDBRANCH  72  76
BRANCH  71  78
ATOM     78  O   UNL     1       3.774   2.609  22.878  0.00  0.00    -0.384 OA
ATOM     79  H   UNL     1       3.180   1.966  22.442  0.00  0.00    +0.210 HD
ENDBRANCH  71  78
ENDBRANCH  66  70
ENDBRANCH  65  66
ENDBRANCH  53  65
ENDBRANCH  52  55
ENDBRANCH   1  52
TORSDOF 26
ENDMDL
MODEL 4
REMARK VINA RESULT:      -4.9      1.820      2.421
REMARK  Name = 
REMARK  28 active torsions:
REMARK  status: ('A' for Active; 'I' for Inactive)
REMARK    1  A    between atoms: C_1  and  C_2
REMARK    2  A    between atoms: C_3  and  O_64
REMARK    3  A    between atoms: C_4  and  O_63
REMARK    4  A    between atoms: C_5  and  O_62
REMARK    5  A    between atoms: C_6  and  O_8
REMARK    6  A    between atoms: O_8  and  C_9
REMARK    7  A    between atoms: C_9  and  C_10
REMARK    8  A    between atoms: C_11  and  O_61
REMARK    9  A    between atoms: C_12  and  O_60
REMARK   10  A    between atoms: C_13  and  O_59
REMARK   11  A    between atoms: C_14  and  O_16
REMARK   12  A    between atoms: O_16  and  C_17
REMARK   13  A    between atoms: C_19  and  O_58
REMARK   14  A    between atoms: C_24  and  C_50
REMARK   15  A    between atoms: C_25  and  O_28
REMARK   16  A    between atoms: O_28  and  C_29
REMARK   17  A    between atoms: C_30  and  O_49
REMARK   18  A    between atoms: C_31  and  O_48
REMARK   19  A    between atoms: C_32  and  O_36
REMARK   20  A    between atoms: C_33  and  C_35
REMARK   21  A    between atoms: O_36  and  C_37
REMARK   22  A    between atoms: C_38  and  O_47
REMARK   23  A    between atoms: C_39  and  O_46
REMARK   24  A    between atoms: C_40  and  O_45
REMARK   25  A    between atoms: C_41  and  C_43
REMARK   26  A    between atoms: C_43  and  O_44
REMARK   27  A    between atoms: C_52  and  O_57
REMARK   28  A    between atoms: C_53  and  O_56
REMARK                            x       y       z     vdW  Elec       q    Type
REMARK                         _______ _______ _______ _____ _____    ______ ____
ROOT
ATOM      1  C   UNL     1       3.950  -1.103  28.216  0.00  0.00    +0.131 A 
ATOM      2  C   UNL     1       3.441  -0.361  27.128  0.00  0.00    +0.093 A 
ATOM      3  C   UNL     1       3.398   1.044  27.189  0.00  0.00    +0.147 A 
ATOM      4  O   UNL     1       2.897   1.777  26.128  0.00  0.00    -0.451 OA
ATOM      5  C   UNL     1       3.041   3.180  26.158  0.00  0.00    +0.181 A 
ATOM      6  C   UNL     1       3.437   3.876  27.256  0.00  0.00    +0.214 A 
ATOM      7  C   UNL     1       3.505   3.076  28.505  0.00  0.00    +0.238 A 
ATOM      8  O   UNL     1       3.161   3.529  29.592  0.00  0.00    -0.283 OA
ATOM      9  C   UNL     1       3.829   1.670  28.357  0.00  0.00    +0.109 A 
ATOM     10  C   UNL     1       4.458   0.948  29.372  0.00  0.00    +0.135 A 
ATOM     11  C   UNL     1       4.529  -0.434  29.297  0.00  0.00    +0.092 A 
ENDROOT
BRANCH   5  12
ATOM     12  C   UNL     1       2.652   3.871  24.890  0.00  0.00    +0.025 A 
ATOM     13  C   UNL     1       1.790   4.985  24.875  0.00  0.00    +0.015 A 
ATOM     14  C   UNL     1       1.446   5.613  23.664  0.00  0.00    +0.050 A 
ATOM     15  C   UNL     1       1.959   5.136  22.469  0.00  0.00    +0.158 A 
ATOM     16  C   UNL     1       2.832   4.056  22.463  0.00  0.00    +0.159 A 
ATOM     17  C   UNL     1       3.193   3.440  23.660  0.00  0.00    +0.060 A 
BRANCH  16  18
ATOM     18  O   UNL     1       3.318   3.630  21.259  0.00  0.00    -0.503 OA
ATOM     19  H   UNL     1       2.805   4.058  20.554  0.00  0.00    +0.292 HD
ENDBRANCH  16  18
BRANCH  15  20
ATOM     20  O   UNL     1       1.623   5.737  21.292  0.00  0.00    -0.503 OA
ATOM     21  H   UNL     1       2.462   6.099  20.940  0.00  0.00    +0.292 HD
ENDBRANCH  15  20
ENDBRANCH   5  12
BRANCH  10  22
ATOM     22  O   UNL     1       4.995   1.602  30.439  0.00  0.00    -0.506 OA
ATOM     23  H   UNL     1       4.774   1.145  31.266  0.00  0.00    +0.292 HD
ENDBRANCH  10  22
BRANCH   6  24
ATOM     24  O   UNL     1       3.645   5.249  27.270  0.00  0.00    -0.453 OA
BRANCH  24  25
ATOM     25  C   UNL     1       5.004   5.738  27.351  0.00  0.00    +0.339 C 
ATOM     26  O   UNL     1       5.306   6.588  26.227  0.00  0.00    -0.334 OA
ATOM     27  C   UNL     1       5.282   5.924  24.961  0.00  0.00    +0.151 C 
ATOM     28  C   UNL     1       5.519   6.982  23.888  0.00  0.00    +0.041 C 
ATOM     29  C   UNL     1       6.271   4.725  24.877  0.00  0.00    +0.181 C 
ATOM     30  C   UNL     1       5.998   3.813  26.096  0.00  0.00    +0.180 C 
ATOM     31  C   UNL     1       6.033   4.595  27.408  0.00  0.00    +0.214 C 
BRANCH  31  32
ATOM     32  O   UNL     1       5.822   3.690  28.505  0.00  0.00    -0.383 OA
ATOM     33  H   UNL     1       5.045   3.139  28.286  0.00  0.00    +0.210 HD
ENDBRANCH  31  32
BRANCH  30  34
ATOM     34  O   UNL     1       6.844   2.663  26.196  0.00  0.00    -0.386 OA
ATOM     35  H   UNL     1       7.671   2.862  25.713  0.00  0.00    +0.210 HD
ENDBRANCH  30  34
BRANCH  29  36
ATOM     36  O   UNL     1       7.643   5.159  24.706  0.00  0.00    -0.340 OA
BRANCH  36  37
ATOM     37  C   UNL     1       8.218   4.935  23.405  0.00  0.00    +0.282 C 
ATOM     38  O   UNL     1       7.490   3.915  22.683  0.00  0.00    -0.341 OA
ATOM     39  C   UNL     1       7.764   2.561  23.070  0.00  0.00    +0.178 C 
ATOM     40  C   UNL     1       9.259   2.262  22.885  0.00  0.00    +0.177 C 
ATOM     41  C   UNL     1      10.051   3.228  23.766  0.00  0.00    +0.179 C 
ATOM     42  C   UNL     1       9.750   4.670  23.357  0.00  0.00    +0.201 C 
BRANCH  42  43
ATOM     43  O   UNL     1      10.552   5.583  24.107  0.00  0.00    -0.384 OA
ATOM     44  H   UNL     1      10.753   6.341  23.527  0.00  0.00    +0.210 HD
ENDBRANCH  42  43
BRANCH  41  45
ATOM     45  O   UNL     1      11.458   2.981  23.651  0.00  0.00    -0.386 OA
ATOM     46  H   UNL     1      11.654   2.925  22.695  0.00  0.00    +0.210 HD
ENDBRANCH  41  45
BRANCH  40  47
ATOM     47  O   UNL     1       9.658   2.438  21.511  0.00  0.00    -0.386 OA
ATOM     48  H   UNL     1       8.945   2.921  21.047  0.00  0.00    +0.210 HD
ENDBRANCH  40  47
BRANCH  39  49
ATOM     49  C   UNL     1       6.901   1.635  22.200  0.00  0.00    +0.190 C 
BRANCH  49  50
ATOM     50  O   UNL     1       6.376   0.546  22.950  0.00  0.00    -0.392 OA
ATOM     51  H   UNL     1       6.815   0.549  23.820  0.00  0.00    +0.210 HD
ENDBRANCH  49  50
ENDBRANCH  39  49
ENDBRANCH  36  37
ENDBRANCH  29  36
ENDBRANCH  24  25
ENDBRANCH   6  24
BRANCH   1  52
ATOM     52  O   UNL     1       3.857  -2.476  28.158  0.00  0.00    -0.461 OA
BRANCH  52  55
ATOM     53  C   UNL     1       4.153  -4.066  24.826  0.00  0.00    +0.179 C 
ATOM     54  O   UNL     1       3.595  -3.398  25.982  0.00  0.00    -0.331 OA
ATOM     55  C   UNL     1       4.529  -3.106  27.038  0.00  0.00    +0.339 C 
ATOM     56  C   UNL     1       5.189  -4.414  27.526  0.00  0.00    +0.214 C 
ATOM     57  C   UNL     1       5.860  -5.125  26.343  0.00  0.00    +0.180 C 
ATOM     58  C   UNL     1       4.821  -5.394  25.240  0.00  0.00    +0.177 C 
BRANCH  58  59
ATOM     59  O   UNL     1       5.372  -6.111  24.138  0.00  0.00    -0.386 OA
ATOM     60  H   UNL     1       6.334  -5.982  24.123  0.00  0.00    +0.210 HD
ENDBRANCH  58  59
BRANCH  57  61
ATOM     61  O   UNL     1       6.455  -6.347  26.785  0.00  0.00    -0.386 OA
ATOM     62  H   UNL     1       6.581  -6.251  27.750  0.00  0.00    +0.210 HD
ENDBRANCH  57  61
BRANCH  56  63
ATOM     63  O   UNL     1       4.225  -5.328  28.093  0.00  0.00    -0.383 OA
ATOM     64  H   UNL     1       3.338  -5.020  27.819  0.00  0.00    +0.210 HD
ENDBRANCH  56  63
BRANCH  53  65
ATOM     65  C   UNL     1       5.044  -3.110  23.999  0.00  0.00    +0.197 C 
BRANCH  65  66
ATOM     66  O   UNL     1       6.247  -3.743  23.558  0.00  0.00    -0.346 OA
BRANCH  66  70
ATOM     67  C   UNL     1       8.693  -1.969  26.607  0.00  0.00    +0.041 C 
ATOM     68  C   UNL     1       8.147  -1.224  25.385  0.00  0.00    +0.149 C 
ATOM     69  O   UNL     1       7.053  -1.935  24.793  0.00  0.00    -0.343 OA
ATOM     70  C   UNL     1       7.418  -3.142  24.123  0.00  0.00    +0.282 C 
ATOM     71  C   UNL     1       8.428  -2.840  22.991  0.00  0.00    +0.201 C 
ATOM     72  C   UNL     1       9.657  -2.141  23.581  0.00  0.00    +0.179 C 
ATOM     73  C   UNL     1       9.230  -0.879  24.350  0.00  0.00    +0.174 C 
BRANCH  73  74
ATOM     74  O   UNL     1      10.334  -0.247  25.002  0.00  0.00    -0.387 OA
ATOM     75  H   UNL     1      10.693   0.430  24.401  0.00  0.00    +0.210 HD
ENDBRANCH  73  74
BRANCH  72  76
ATOM     76  O   UNL     1      10.575  -1.779  22.541  0.00  0.00    -0.386 OA
ATOM     77  H   UNL     1      11.356  -1.400  22.998  0.00  0.00    +0.210 HD
ENDBRANCH  72  76
BRANCH  71  78
ATOM     78  O   UNL     1       7.871  -1.952  21.996  0.00  0.00    -0.384 OA
ATOM     79  H   UNL     1       7.163  -2.451  21.542  0.00  0.00    +0.210 HD
ENDBRANCH  71  78
ENDBRANCH  66  70
ENDBRANCH  65  66
ENDBRANCH  53  65
ENDBRANCH  52  55
ENDBRANCH   1  52
TORSDOF 26
ENDMDL
MODEL 5
REMARK VINA RESULT:      -4.8      2.566      8.695
REMARK  Name = 
REMARK  28 active torsions:
REMARK  status: ('A' for Active; 'I' for Inactive)
REMARK    1  A    between atoms: C_1  and  C_2
REMARK    2  A    between atoms: C_3  and  O_64
REMARK    3  A    between atoms: C_4  and  O_63
REMARK    4  A    between atoms: C_5  and  O_62
REMARK    5  A    between atoms: C_6  and  O_8
REMARK    6  A    between atoms: O_8  and  C_9
REMARK    7  A    between atoms: C_9  and  C_10
REMARK    8  A    between atoms: C_11  and  O_61
REMARK    9  A    between atoms: C_12  and  O_60
REMARK   10  A    between atoms: C_13  and  O_59
REMARK   11  A    between atoms: C_14  and  O_16
REMARK   12  A    between atoms: O_16  and  C_17
REMARK   13  A    between atoms: C_19  and  O_58
REMARK   14  A    between atoms: C_24  and  C_50
REMARK   15  A    between atoms: C_25  and  O_28
REMARK   16  A    between atoms: O_28  and  C_29
REMARK   17  A    between atoms: C_30  and  O_49
REMARK   18  A    between atoms: C_31  and  O_48
REMARK   19  A    between atoms: C_32  and  O_36
REMARK   20  A    between atoms: C_33  and  C_35
REMARK   21  A    between atoms: O_36  and  C_37
REMARK   22  A    between atoms: C_38  and  O_47
REMARK   23  A    between atoms: C_39  and  O_46
REMARK   24  A    between atoms: C_40  and  O_45
REMARK   25  A    between atoms: C_41  and  C_43
REMARK   26  A    between atoms: C_43  and  O_44
REMARK   27  A    between atoms: C_52  and  O_57
REMARK   28  A    between atoms: C_53  and  O_56
REMARK                            x       y       z     vdW  Elec       q    Type
REMARK                         _______ _______ _______ _____ _____    ______ ____
ROOT
ATOM      1  C   UNL     1       1.612   2.936  27.087  0.00  0.00    +0.131 A 
ATOM      2  C   UNL     1       1.452   1.673  26.477  0.00  0.00    +0.093 A 
ATOM      3  C   UNL     1       1.869   0.507  27.146  0.00  0.00    +0.147 A 
ATOM      4  O   UNL     1       1.719  -0.734  26.551  0.00  0.00    -0.451 OA
ATOM      5  C   UNL     1       1.981  -1.881  27.328  0.00  0.00    +0.181 A 
ATOM      6  C   UNL     1       2.583  -1.850  28.545  0.00  0.00    +0.214 A 
ATOM      7  C   UNL     1       3.151  -0.530  28.921  0.00  0.00    +0.238 A 
ATOM      8  O   UNL     1       4.217  -0.421  29.519  0.00  0.00    -0.283 OA
ATOM      9  C   UNL     1       2.474   0.640  28.393  0.00  0.00    +0.109 A 
ATOM     10  C   UNL     1       2.506   1.870  29.052  0.00  0.00    +0.135 A 
ATOM     11  C   UNL     1       2.065   3.012  28.406  0.00  0.00    +0.092 A 
ENDROOT
BRANCH   5  12
ATOM     12  C   UNL     1       1.606  -3.173  26.673  0.00  0.00    +0.025 A 
ATOM     13  C   UNL     1       0.777  -4.122  27.301  0.00  0.00    +0.015 A 
ATOM     14  C   UNL     1       0.443  -5.326  26.654  0.00  0.00    +0.050 A 
ATOM     15  C   UNL     1       0.930  -5.586  25.383  0.00  0.00    +0.158 A 
ATOM     16  C   UNL     1       1.727  -4.653  24.735  0.00  0.00    +0.159 A 
ATOM     17  C   UNL     1       2.048  -3.449  25.360  0.00  0.00    +0.060 A 
BRANCH  16  18
ATOM     18  O   UNL     1       2.175  -4.952  23.479  0.00  0.00    -0.503 OA
ATOM     19  H   UNL     1       3.058  -4.561  23.369  0.00  0.00    +0.292 HD
ENDBRANCH  16  18
BRANCH  15  20
ATOM     20  O   UNL     1       0.615  -6.754  24.756  0.00  0.00    -0.503 OA
ATOM     21  H   UNL     1      -0.297  -6.629  24.424  0.00  0.00    +0.292 HD
ENDBRANCH  15  20
ENDBRANCH   5  12
BRANCH  10  22
ATOM     22  O   UNL     1       2.977   1.945  30.328  0.00  0.00    -0.506 OA
ATOM     23  H   UNL     1       3.696   2.592  30.389  0.00  0.00    +0.292 HD
ENDBRANCH  10  22
BRANCH   6  24
ATOM     24  O   UNL     1       2.783  -2.970  29.342  0.00  0.00    -0.453 OA
BRANCH  24  25
ATOM     25  C   UNL     1       4.140  -3.399  29.600  0.00  0.00    +0.339 C 
ATOM     26  O   UNL     1       5.057  -2.753  28.696  0.00  0.00    -0.334 OA
ATOM     27  C   UNL     1       4.872  -3.096  27.321  0.00  0.00    +0.151 C 
ATOM     28  C   UNL     1       5.847  -2.254  26.506  0.00  0.00    +0.041 C 
ATOM     29  C   UNL     1       4.994  -4.623  27.047  0.00  0.00    +0.181 C 
ATOM     30  C   UNL     1       4.049  -5.349  28.032  0.00  0.00    +0.180 C 
ATOM     31  C   UNL     1       4.303  -4.924  29.478  0.00  0.00    +0.214 C 
BRANCH  31  32
ATOM     32  O   UNL     1       3.432  -5.664  30.350  0.00  0.00    -0.383 OA
ATOM     33  H   UNL     1       2.655  -5.101  30.537  0.00  0.00    +0.210 HD
ENDBRANCH  31  32
BRANCH  30  34
ATOM     34  O   UNL     1       4.054  -6.776  27.940  0.00  0.00    -0.386 OA
ATOM     35  H   UNL     1       3.211  -7.100  28.316  0.00  0.00    +0.210 HD
ENDBRANCH  30  34
BRANCH  29  36
ATOM     36  O   UNL     1       6.374  -5.070  27.048  0.00  0.00    -0.340 OA
BRANCH  36  37
ATOM     37  C   UNL     1       6.820  -5.744  25.857  0.00  0.00    +0.282 C 
ATOM     38  O   UNL     1       8.088  -5.216  25.404  0.00  0.00    -0.341 OA
ATOM     39  C   UNL     1       8.028  -3.963  24.708  0.00  0.00    +0.178 C 
ATOM     40  C   UNL     1       7.130  -4.099  23.470  0.00  0.00    +0.177 C 
ATOM     41  C   UNL     1       5.732  -4.505  23.937  0.00  0.00    +0.179 C 
ATOM     42  C   UNL     1       5.800  -5.836  24.686  0.00  0.00    +0.201 C 
BRANCH  42  43
ATOM     43  O   UNL     1       4.491  -6.276  25.048  0.00  0.00    -0.384 OA
ATOM     44  H   UNL     1       4.564  -7.206  25.334  0.00  0.00    +0.210 HD
ENDBRANCH  42  43
BRANCH  41  45
ATOM     45  O   UNL     1       4.841  -4.627  22.821  0.00  0.00    -0.386 OA
ATOM     46  H   UNL     1       4.249  -5.379  23.018  0.00  0.00    +0.210 HD
ENDBRANCH  41  45
BRANCH  40  47
ATOM     47  O   UNL     1       7.638  -5.103  22.568  0.00  0.00    -0.386 OA
ATOM     48  H   UNL     1       7.354  -4.868  21.662  0.00  0.00    +0.210 HD
ENDBRANCH  40  47
BRANCH  39  49
ATOM     49  C   UNL     1       9.461  -3.569  24.314  0.00  0.00    +0.190 C 
BRANCH  49  50
ATOM     50  O   UNL     1       9.484  -2.792  23.123  0.00  0.00    -0.392 OA
ATOM     51  H   UNL     1       8.564  -2.692  22.817  0.00  0.00    +0.210 HD
ENDBRANCH  49  50
ENDBRANCH  39  49
ENDBRANCH  36  37
ENDBRANCH  29  36
ENDBRANCH  24  25
ENDBRANCH   6  24
BRANCH   1  52
ATOM     52  O   UNL     1       1.303   4.053  26.344  0.00  0.00    -0.461 OA
BRANCH  52  55
ATOM     53  C   UNL     1       4.235   4.640  24.157  0.00  0.00    +0.179 C 
ATOM     54  O   UNL     1       3.422   4.440  25.339  0.00  0.00    -0.331 OA
ATOM     55  C   UNL     1       2.025   4.199  25.094  0.00  0.00    +0.339 C 
ATOM     56  C   UNL     1       1.422   5.383  24.307  0.00  0.00    +0.214 C 
ATOM     57  C   UNL     1       2.208   5.589  23.004  0.00  0.00    +0.180 C 
ATOM     58  C   UNL     1       3.695   5.822  23.325  0.00  0.00    +0.177 C 
BRANCH  58  59
ATOM     59  O   UNL     1       4.468   6.083  22.157  0.00  0.00    -0.386 OA
ATOM     60  H   UNL     1       5.367   6.339  22.421  0.00  0.00    +0.210 HD
ENDBRANCH  58  59
BRANCH  57  61
ATOM     61  O   UNL     1       1.668   6.697  22.281  0.00  0.00    -0.386 OA
ATOM     62  H   UNL     1       1.107   6.312  21.578  0.00  0.00    +0.210 HD
ENDBRANCH  57  61
BRANCH  56  63
ATOM     63  O   UNL     1       1.486   6.617  25.054  0.00  0.00    -0.383 OA
ATOM     64  H   UNL     1       0.837   6.551  25.781  0.00  0.00    +0.210 HD
ENDBRANCH  56  63
BRANCH  53  65
ATOM     65  C   UNL     1       4.428   3.319  23.376  0.00  0.00    +0.197 C 
BRANCH  65  66
ATOM     66  O   UNL     1       5.453   3.424  22.387  0.00  0.00    -0.346 OA
BRANCH  66  70
ATOM     67  C   UNL     1       6.901  -0.474  23.455  0.00  0.00    +0.041 C 
ATOM     68  C   UNL     1       7.465   0.844  23.996  0.00  0.00    +0.149 C 
ATOM     69  O   UNL     1       6.540   1.921  23.802  0.00  0.00    -0.343 OA
ATOM     70  C   UNL     1       6.380   2.333  22.444  0.00  0.00    +0.282 C 
ATOM     71  C   UNL     1       7.737   2.792  21.862  0.00  0.00    +0.201 C 
ATOM     72  C   UNL     1       8.751   1.649  21.977  0.00  0.00    +0.179 C 
ATOM     73  C   UNL     1       8.858   1.182  23.439  0.00  0.00    +0.174 C 
BRANCH  73  74
ATOM     74  O   UNL     1       9.719   0.049  23.579  0.00  0.00    -0.387 OA
ATOM     75  H   UNL     1      10.490   0.320  24.110  0.00  0.00    +0.210 HD
ENDBRANCH  73  74
BRANCH  72  76
ATOM     76  O   UNL     1      10.040   2.074  21.516  0.00  0.00    -0.386 OA
ATOM     77  H   UNL     1      10.570   1.254  21.419  0.00  0.00    +0.210 HD
ENDBRANCH  72  76
BRANCH  71  78
ATOM     78  O   UNL     1       8.282   3.917  22.587  0.00  0.00    -0.384 OA
ATOM     79  H   UNL     1       9.252   3.797  22.601  0.00  0.00    +0.210 HD
ENDBRANCH  71  78
ENDBRANCH  66  70
ENDBRANCH  65  66
ENDBRANCH  53  65
ENDBRANCH  52  55
ENDBRANCH   1  52
TORSDOF 26
ENDMDL
MODEL 6
REMARK VINA RESULT:      -4.5      2.014      4.093
REMARK  Name = 
REMARK  28 active torsions:
REMARK  status: ('A' for Active; 'I' for Inactive)
REMARK    1  A    between atoms: C_1  and  C_2
REMARK    2  A    between atoms: C_3  and  O_64
REMARK    3  A    between atoms: C_4  and  O_63
REMARK    4  A    between atoms: C_5  and  O_62
REMARK    5  A    between atoms: C_6  and  O_8
REMARK    6  A    between atoms: O_8  and  C_9
REMARK    7  A    between atoms: C_9  and  C_10
REMARK    8  A    between atoms: C_11  and  O_61
REMARK    9  A    between atoms: C_12  and  O_60
REMARK   10  A    between atoms: C_13  and  O_59
REMARK   11  A    between atoms: C_14  and  O_16
REMARK   12  A    between atoms: O_16  and  C_17
REMARK   13  A    between atoms: C_19  and  O_58
REMARK   14  A    between atoms: C_24  and  C_50
REMARK   15  A    between atoms: C_25  and  O_28
REMARK   16  A    between atoms: O_28  and  C_29
REMARK   17  A    between atoms: C_30  and  O_49
REMARK   18  A    between atoms: C_31  and  O_48
REMARK   19  A    between atoms: C_32  and  O_36
REMARK   20  A    between atoms: C_33  and  C_35
REMARK   21  A    between atoms: O_36  and  C_37
REMARK   22  A    between atoms: C_38  and  O_47
REMARK   23  A    between atoms: C_39  and  O_46
REMARK   24  A    between atoms: C_40  and  O_45
REMARK   25  A    between atoms: C_41  and  C_43
REMARK   26  A    between atoms: C_43  and  O_44
REMARK   27  A    between atoms: C_52  and  O_57
REMARK   28  A    between atoms: C_53  and  O_56
REMARK                            x       y       z     vdW  Elec       q    Type
REMARK                         _______ _______ _______ _____ _____    ______ ____
ROOT
ATOM      1  C   UNL     1       7.269  -1.546  25.940  0.00  0.00    +0.131 A 
ATOM      2  C   UNL     1       6.194  -0.865  25.329  0.00  0.00    +0.093 A 
ATOM      3  C   UNL     1       5.693   0.320  25.899  0.00  0.00    +0.147 A 
ATOM      4  O   UNL     1       4.636   0.990  25.308  0.00  0.00    -0.451 OA
ATOM      5  C   UNL     1       4.288   2.262  25.809  0.00  0.00    +0.181 A 
ATOM      6  C   UNL     1       4.771   2.775  26.970  0.00  0.00    +0.214 A 
ATOM      7  C   UNL     1       5.537   1.812  27.802  0.00  0.00    +0.238 A 
ATOM      8  O   UNL     1       5.455   1.794  29.026  0.00  0.00    -0.283 OA
ATOM      9  C   UNL     1       6.255   0.771  27.092  0.00  0.00    +0.109 A 
ATOM     10  C   UNL     1       7.402   0.177  27.618  0.00  0.00    +0.135 A 
ATOM     11  C   UNL     1       7.915  -0.972  27.037  0.00  0.00    +0.092 A 
ENDROOT
BRANCH   5  12
ATOM     12  C   UNL     1       3.272   2.995  24.991  0.00  0.00    +0.025 A 
ATOM     13  C   UNL     1       2.224   3.730  25.576  0.00  0.00    +0.015 A 
ATOM     14  C   UNL     1       1.286   4.409  24.777  0.00  0.00    +0.050 A 
ATOM     15  C   UNL     1       1.393   4.360  23.396  0.00  0.00    +0.158 A 
ATOM     16  C   UNL     1       2.434   3.664  22.798  0.00  0.00    +0.159 A 
ATOM     17  C   UNL     1       3.378   3.004  23.583  0.00  0.00    +0.060 A 
BRANCH  16  18
ATOM     18  O   UNL     1       2.500   3.653  21.434  0.00  0.00    -0.503 OA
ATOM     19  H   UNL     1       1.855   3.007  21.102  0.00  0.00    +0.292 HD
ENDBRANCH  16  18
BRANCH  15  20
ATOM     20  O   UNL     1       0.483   5.011  22.617  0.00  0.00    -0.503 OA
ATOM     21  H   UNL     1       0.324   4.416  21.857  0.00  0.00    +0.292 HD
ENDBRANCH  15  20
ENDBRANCH   5  12
BRANCH  10  22
ATOM     22  O   UNL     1       8.013   0.723  28.706  0.00  0.00    -0.506 OA
ATOM     23  H   UNL     1       7.724   1.639  28.836  0.00  0.00    +0.292 HD
ENDBRANCH  10  22
BRANCH   6  24
ATOM     24  O   UNL     1       4.484   4.053  27.433  0.00  0.00    -0.453 OA
BRANCH  24  25
ATOM     25  C   UNL     1       5.497   5.077  27.301  0.00  0.00    +0.339 C 
ATOM     26  O   UNL     1       5.278   5.859  26.111  0.00  0.00    -0.334 OA
ATOM     27  C   UNL     1       5.407   5.125  24.891  0.00  0.00    +0.151 C 
ATOM     28  C   UNL     1       5.046   6.072  23.751  0.00  0.00    +0.041 C 
ATOM     29  C   UNL     1       6.801   4.456  24.720  0.00  0.00    +0.181 C 
ATOM     30  C   UNL     1       7.084   3.639  26.003  0.00  0.00    +0.180 C 
ATOM     31  C   UNL     1       6.918   4.488  27.263  0.00  0.00    +0.214 C 
BRANCH  31  32
ATOM     32  O   UNL     1       7.240   3.693  28.416  0.00  0.00    -0.383 OA
ATOM     33  H   UNL     1       7.543   4.301  29.118  0.00  0.00    +0.210 HD
ENDBRANCH  31  32
BRANCH  30  34
ATOM     34  O   UNL     1       8.349   2.972  26.032  0.00  0.00    -0.386 OA
ATOM     35  H   UNL     1       8.622   2.897  26.969  0.00  0.00    +0.210 HD
ENDBRANCH  30  34
BRANCH  29  36
ATOM     36  O   UNL     1       7.824   5.411  24.340  0.00  0.00    -0.340 OA
BRANCH  36  37
ATOM     37  C   UNL     1       8.516   5.136  23.107  0.00  0.00    +0.282 C 
ATOM     38  O   UNL     1       7.850   4.095  22.357  0.00  0.00    -0.341 OA
ATOM     39  C   UNL     1       8.074   2.754  22.816  0.00  0.00    +0.178 C 
ATOM     40  C   UNL     1       9.577   2.441  22.785  0.00  0.00    +0.177 C 
ATOM     41  C   UNL     1      10.292   3.433  23.701  0.00  0.00    +0.179 C 
ATOM     42  C   UNL     1      10.044   4.861  23.214  0.00  0.00    +0.201 C 
BRANCH  42  43
ATOM     43  O   UNL     1      10.780   5.796  24.004  0.00  0.00    -0.384 OA
ATOM     44  H   UNL     1      10.606   5.588  24.941  0.00  0.00    +0.210 HD
ENDBRANCH  42  43
BRANCH  41  45
ATOM     45  O   UNL     1      11.701   3.174  23.728  0.00  0.00    -0.386 OA
ATOM     46  H   UNL     1      12.029   3.321  22.819  0.00  0.00    +0.210 HD
ENDBRANCH  41  45
BRANCH  40  47
ATOM     47  O   UNL     1      10.106   2.564  21.449  0.00  0.00    -0.386 OA
ATOM     48  H   UNL     1      10.720   3.325  21.435  0.00  0.00    +0.210 HD
ENDBRANCH  40  47
BRANCH  39  49
ATOM     49  C   UNL     1       7.289   1.801  21.902  0.00  0.00    +0.190 C 
BRANCH  49  50
ATOM     50  O   UNL     1       6.149   1.262  22.560  0.00  0.00    -0.392 OA
ATOM     51  H   UNL     1       6.455   0.849  23.388  0.00  0.00    +0.210 HD
ENDBRANCH  49  50
ENDBRANCH  39  49
ENDBRANCH  36  37
ENDBRANCH  29  36
ENDBRANCH  24  25
ENDBRANCH   6  24
BRANCH   1  52
ATOM     52  O   UNL     1       7.642  -2.762  25.414  0.00  0.00    -0.461 OA
BRANCH  52  55
ATOM     53  C   UNL     1       5.885  -5.718  24.035  0.00  0.00    +0.179 C 
ATOM     54  O   UNL     1       6.839  -4.901  24.755  0.00  0.00    -0.331 OA
ATOM     55  C   UNL     1       6.607  -3.482  24.695  0.00  0.00    +0.339 C 
ATOM     56  C   UNL     1       6.609  -3.015  23.223  0.00  0.00    +0.214 C 
ATOM     57  C   UNL     1       5.557  -3.805  22.432  0.00  0.00    +0.180 C 
ATOM     58  C   UNL     1       5.842  -5.313  22.546  0.00  0.00    +0.177 C 
BRANCH  58  59
ATOM     59  O   UNL     1       4.934  -6.098  21.778  0.00  0.00    -0.386 OA
ATOM     60  H   UNL     1       5.032  -7.032  22.027  0.00  0.00    +0.210 HD
ENDBRANCH  58  59
BRANCH  57  61
ATOM     61  O   UNL     1       5.567  -3.392  21.063  0.00  0.00    -0.386 OA
ATOM     62  H   UNL     1       6.483  -3.102  20.877  0.00  0.00    +0.210 HD
ENDBRANCH  57  61
BRANCH  56  63
ATOM     63  O   UNL     1       7.887  -3.235  22.587  0.00  0.00    -0.383 OA
ATOM     64  H   UNL     1       7.827  -4.081  22.101  0.00  0.00    +0.210 HD
ENDBRANCH  56  63
BRANCH  53  65
ATOM     65  C   UNL     1       4.514  -5.743  24.750  0.00  0.00    +0.197 C 
BRANCH  65  66
ATOM     66  O   UNL     1       4.439  -6.777  25.733  0.00  0.00    -0.346 OA
BRANCH  66  70
ATOM     67  C   UNL     1       2.335  -4.601  28.777  0.00  0.00    +0.041 C 
ATOM     68  C   UNL     1       3.711  -4.217  28.225  0.00  0.00    +0.149 C 
ATOM     69  O   UNL     1       3.960  -4.856  26.966  0.00  0.00    -0.343 OA
ATOM     70  C   UNL     1       4.180  -6.264  27.045  0.00  0.00    +0.282 C 
ATOM     71  C   UNL     1       5.396  -6.563  27.953  0.00  0.00    +0.201 C 
ATOM     72  C   UNL     1       5.153  -5.963  29.341  0.00  0.00    +0.179 C 
ATOM     73  C   UNL     1       4.855  -4.458  29.223  0.00  0.00    +0.174 C 
BRANCH  73  74
ATOM     74  O   UNL     1       4.523  -3.875  30.485  0.00  0.00    -0.387 OA
ATOM     75  H   UNL     1       4.597  -2.907  30.399  0.00  0.00    +0.210 HD
ENDBRANCH  73  74
BRANCH  72  76
ATOM     76  O   UNL     1       6.299  -6.159  30.180  0.00  0.00    -0.386 OA
ATOM     77  H   UNL     1       7.023  -5.644  29.764  0.00  0.00    +0.210 HD
ENDBRANCH  72  76
BRANCH  71  78
ATOM     78  O   UNL     1       6.611  -5.971  27.441  0.00  0.00    -0.384 OA
ATOM     79  H   UNL     1       7.082  -6.675  26.954  0.00  0.00    +0.210 HD
ENDBRANCH  71  78
ENDBRANCH  66  70
ENDBRANCH  65  66
ENDBRANCH  53  65
ENDBRANCH  52  55
ENDBRANCH   1  52
TORSDOF 26
ENDMDL
MODEL 7
REMARK VINA RESULT:      -4.4      2.125      4.860
REMARK  Name = 
REMARK  28 active torsions:
REMARK  status: ('A' for Active; 'I' for Inactive)
REMARK    1  A    between atoms: C_1  and  C_2
REMARK    2  A    between atoms: C_3  and  O_64
REMARK    3  A    between atoms: C_4  and  O_63
REMARK    4  A    between atoms: C_5  and  O_62
REMARK    5  A    between atoms: C_6  and  O_8
REMARK    6  A    between atoms: O_8  and  C_9
REMARK    7  A    between atoms: C_9  and  C_10
REMARK    8  A    between atoms: C_11  and  O_61
REMARK    9  A    between atoms: C_12  and  O_60
REMARK   10  A    between atoms: C_13  and  O_59
REMARK   11  A    between atoms: C_14  and  O_16
REMARK   12  A    between atoms: O_16  and  C_17
REMARK   13  A    between atoms: C_19  and  O_58
REMARK   14  A    between atoms: C_24  and  C_50
REMARK   15  A    between atoms: C_25  and  O_28
REMARK   16  A    between atoms: O_28  and  C_29
REMARK   17  A    between atoms: C_30  and  O_49
REMARK   18  A    between atoms: C_31  and  O_48
REMARK   19  A    between atoms: C_32  and  O_36
REMARK   20  A    between atoms: C_33  and  C_35
REMARK   21  A    between atoms: O_36  and  C_37
REMARK   22  A    between atoms: C_38  and  O_47
REMARK   23  A    between atoms: C_39  and  O_46
REMARK   24  A    between atoms: C_40  and  O_45
REMARK   25  A    between atoms: C_41  and  C_43
REMARK   26  A    between atoms: C_43  and  O_44
REMARK   27  A    between atoms: C_52  and  O_57
REMARK   28  A    between atoms: C_53  and  O_56
REMARK                            x       y       z     vdW  Elec       q    Type
REMARK                         _______ _______ _______ _____ _____    ______ ____
ROOT
ATOM      1  C   UNL     1       5.478  -4.391  24.269  0.00  0.00    +0.131 A 
ATOM      2  C   UNL     1       4.959  -3.559  25.285  0.00  0.00    +0.093 A 
ATOM      3  C   UNL     1       5.207  -2.174  25.260  0.00  0.00    +0.147 A 
ATOM      4  O   UNL     1       4.705  -1.353  26.256  0.00  0.00    -0.451 OA
ATOM      5  C   UNL     1       4.823   0.042  26.092  0.00  0.00    +0.181 A 
ATOM      6  C   UNL     1       5.589   0.630  25.137  0.00  0.00    +0.214 A 
ATOM      7  C   UNL     1       6.478  -0.301  24.397  0.00  0.00    +0.238 A 
ATOM      8  O   UNL     1       7.619   0.008  24.064  0.00  0.00    -0.283 OA
ATOM      9  C   UNL     1       6.002  -1.662  24.237  0.00  0.00    +0.109 A 
ATOM     10  C   UNL     1       6.397  -2.459  23.162  0.00  0.00    +0.135 A 
ATOM     11  C   UNL     1       6.124  -3.817  23.172  0.00  0.00    +0.092 A 
ENDROOT
BRANCH   5  12
ATOM     12  C   UNL     1       4.085   0.851  27.111  0.00  0.00    +0.025 A 
ATOM     13  C   UNL     1       4.746   1.691  28.028  0.00  0.00    +0.015 A 
ATOM     14  C   UNL     1       4.019   2.439  28.972  0.00  0.00    +0.050 A 
ATOM     15  C   UNL     1       2.637   2.355  29.005  0.00  0.00    +0.158 A 
ATOM     16  C   UNL     1       1.963   1.553  28.093  0.00  0.00    +0.159 A 
ATOM     17  C   UNL     1       2.673   0.823  27.142  0.00  0.00    +0.060 A 
BRANCH  16  18
ATOM     18  O   UNL     1       0.599   1.511  28.161  0.00  0.00    -0.503 OA
ATOM     19  H   UNL     1       0.288   0.790  27.588  0.00  0.00    +0.292 HD
ENDBRANCH  16  18
BRANCH  15  20
ATOM     20  O   UNL     1       1.929   3.073  29.923  0.00  0.00    -0.503 OA
ATOM     21  H   UNL     1       2.330   2.851  30.787  0.00  0.00    +0.292 HD
ENDBRANCH  15  20
ENDBRANCH   5  12
BRANCH  10  22
ATOM     22  O   UNL     1       7.054  -1.902  22.108  0.00  0.00    -0.506 OA
ATOM     23  H   UNL     1       7.966  -1.680  22.353  0.00  0.00    +0.292 HD
ENDBRANCH  10  22
BRANCH   6  24
ATOM     24  O   UNL     1       5.655   2.002  24.930  0.00  0.00    -0.453 OA
BRANCH  24  25
ATOM     25  C   UNL     1       6.021   2.483  23.616  0.00  0.00    +0.339 C 
ATOM     26  O   UNL     1       7.436   2.329  23.394  0.00  0.00    -0.334 OA
ATOM     27  C   UNL     1       8.258   3.115  24.260  0.00  0.00    +0.151 C 
ATOM     28  C   UNL     1       9.710   2.755  23.960  0.00  0.00    +0.041 C 
ATOM     29  C   UNL     1       7.967   4.641  24.167  0.00  0.00    +0.181 C 
ATOM     30  C   UNL     1       6.445   4.836  24.361  0.00  0.00    +0.180 C 
ATOM     31  C   UNL     1       5.636   3.958  23.407  0.00  0.00    +0.214 C 
BRANCH  31  32
ATOM     32  O   UNL     1       4.235   4.217  23.599  0.00  0.00    -0.383 OA
ATOM     33  H   UNL     1       3.997   4.980  23.037  0.00  0.00    +0.210 HD
ENDBRANCH  31  32
BRANCH  30  34
ATOM     34  O   UNL     1       5.990   6.189  24.276  0.00  0.00    -0.386 OA
ATOM     35  H   UNL     1       5.242   6.289  24.898  0.00  0.00    +0.210 HD
ENDBRANCH  30  34
BRANCH  29  36
ATOM     36  O   UNL     1       8.534   5.233  22.971  0.00  0.00    -0.340 OA
BRANCH  36  37
ATOM     37  C   UNL     1       9.429   6.342  23.179  0.00  0.00    +0.282 C 
ATOM     38  O   UNL     1      10.734   6.070  22.618  0.00  0.00    -0.341 OA
ATOM     39  C   UNL     1      11.577   5.206  23.393  0.00  0.00    +0.178 C 
ATOM     40  C   UNL     1      11.803   5.814  24.785  0.00  0.00    +0.177 C 
ATOM     41  C   UNL     1      10.444   5.965  25.466  0.00  0.00    +0.179 C 
ATOM     42  C   UNL     1       9.544   6.880  24.634  0.00  0.00    +0.201 C 
BRANCH  42  43
ATOM     43  O   UNL     1       8.303   7.107  25.302  0.00  0.00    -0.384 OA
ATOM     44  H   UNL     1       7.869   6.240  25.414  0.00  0.00    +0.210 HD
ENDBRANCH  42  43
BRANCH  41  45
ATOM     45  O   UNL     1      10.595   6.511  26.783  0.00  0.00    -0.386 OA
ATOM     46  H   UNL     1      11.408   7.053  26.768  0.00  0.00    +0.210 HD
ENDBRANCH  41  45
BRANCH  40  47
ATOM     47  O   UNL     1      12.433   7.108  24.690  0.00  0.00    -0.386 OA
ATOM     48  H   UNL     1      12.850   7.178  23.809  0.00  0.00    +0.210 HD
ENDBRANCH  40  47
BRANCH  39  49
ATOM     49  C   UNL     1      12.905   5.037  22.638  0.00  0.00    +0.190 C 
BRANCH  49  50
ATOM     50  O   UNL     1      14.021   5.366  23.457  0.00  0.00    -0.392 OA
ATOM     51  H   UNL     1      14.641   4.615  23.427  0.00  0.00    +0.210 HD
ENDBRANCH  49  50
ENDBRANCH  39  49
ENDBRANCH  36  37
ENDBRANCH  29  36
ENDBRANCH  24  25
ENDBRANCH   6  24
BRANCH   1  52
ATOM     52  O   UNL     1       5.312  -5.751  24.404  0.00  0.00    -0.461 OA
BRANCH  52  55
ATOM     53  C   UNL     1       2.583  -8.191  24.969  0.00  0.00    +0.179 C 
ATOM     54  O   UNL     1       3.906  -7.620  24.833  0.00  0.00    -0.331 OA
ATOM     55  C   UNL     1       3.944  -6.207  24.561  0.00  0.00    +0.339 C 
ATOM     56  C   UNL     1       3.168  -5.906  23.259  0.00  0.00    +0.214 C 
ATOM     57  C   UNL     1       1.731  -6.431  23.384  0.00  0.00    +0.180 C 
ATOM     58  C   UNL     1       1.752  -7.939  23.694  0.00  0.00    +0.177 C 
BRANCH  58  59
ATOM     59  O   UNL     1       0.443  -8.499  23.758  0.00  0.00    -0.386 OA
ATOM     60  H   UNL     1       0.431  -9.204  24.426  0.00  0.00    +0.210 HD
ENDBRANCH  58  59
BRANCH  57  61
ATOM     61  O   UNL     1       1.014  -6.175  22.174  0.00  0.00    -0.386 OA
ATOM     62  H   UNL     1       0.106  -5.931  22.447  0.00  0.00    +0.210 HD
ENDBRANCH  57  61
BRANCH  56  63
ATOM     63  O   UNL     1       3.768  -6.547  22.112  0.00  0.00    -0.383 OA
ATOM     64  H   UNL     1       3.984  -7.464  22.373  0.00  0.00    +0.210 HD
ENDBRANCH  56  63
BRANCH  53  65
ATOM     65  C   UNL     1       1.912  -7.749  26.290  0.00  0.00    +0.197 C 
BRANCH  65  66
ATOM     66  O   UNL     1       2.738  -8.011  27.427  0.00  0.00    -0.346 OA
BRANCH  66  70
ATOM     67  C   UNL     1       1.724  -4.287  29.306  0.00  0.00    +0.041 C 
ATOM     68  C   UNL     1       2.753  -4.444  28.182  0.00  0.00    +0.149 C 
ATOM     69  O   UNL     1       2.574  -5.685  27.487  0.00  0.00    -0.343 OA
ATOM     70  C   UNL     1       2.940  -6.845  28.235  0.00  0.00    +0.282 C 
ATOM     71  C   UNL     1       4.429  -6.767  28.646  0.00  0.00    +0.201 C 
ATOM     72  C   UNL     1       4.664  -5.490  29.458  0.00  0.00    +0.179 C 
ATOM     73  C   UNL     1       4.204  -4.260  28.656  0.00  0.00    +0.174 C 
BRANCH  73  74
ATOM     74  O   UNL     1       4.312  -3.053  29.414  0.00  0.00    -0.387 OA
ATOM     75  H   UNL     1       4.726  -3.269  30.269  0.00  0.00    +0.210 HD
ENDBRANCH  73  74
BRANCH  72  76
ATOM     76  O   UNL     1       6.053  -5.353  29.786  0.00  0.00    -0.386 OA
ATOM     77  H   UNL     1       6.528  -5.346  28.928  0.00  0.00    +0.210 HD
ENDBRANCH  72  76
BRANCH  71  78
ATOM     78  O   UNL     1       5.303  -6.707  27.497  0.00  0.00    -0.384 OA
ATOM     79  H   UNL     1       5.302  -5.778  27.193  0.00  0.00    +0.210 HD
ENDBRANCH  71  78
ENDBRANCH  66  70
ENDBRANCH  65  66
ENDBRANCH  53  65
ENDBRANCH  52  55
ENDBRANCH   1  52
TORSDOF 26
ENDMDL
MODEL 8
REMARK VINA RESULT:      -4.2      2.238     10.517
REMARK  Name = 
REMARK  28 active torsions:
REMARK  status: ('A' for Active; 'I' for Inactive)
REMARK    1  A    between atoms: C_1  and  C_2
REMARK    2  A    between atoms: C_3  and  O_64
REMARK    3  A    between atoms: C_4  and  O_63
REMARK    4  A    between atoms: C_5  and  O_62
REMARK    5  A    between atoms: C_6  and  O_8
REMARK    6  A    between atoms: O_8  and  C_9
REMARK    7  A    between atoms: C_9  and  C_10
REMARK    8  A    between atoms: C_11  and  O_61
REMARK    9  A    between atoms: C_12  and  O_60
REMARK   10  A    between atoms: C_13  and  O_59
REMARK   11  A    between atoms: C_14  and  O_16
REMARK   12  A    between atoms: O_16  and  C_17
REMARK   13  A    between atoms: C_19  and  O_58
REMARK   14  A    between atoms: C_24  and  C_50
REMARK   15  A    between atoms: C_25  and  O_28
REMARK   16  A    between atoms: O_28  and  C_29
REMARK   17  A    between atoms: C_30  and  O_49
REMARK   18  A    between atoms: C_31  and  O_48
REMARK   19  A    between atoms: C_32  and  O_36
REMARK   20  A    between atoms: C_33  and  C_35
REMARK   21  A    between atoms: O_36  and  C_37
REMARK   22  A    between atoms: C_38  and  O_47
REMARK   23  A    between atoms: C_39  and  O_46
REMARK   24  A    between atoms: C_40  and  O_45
REMARK   25  A    between atoms: C_41  and  C_43
REMARK   26  A    between atoms: C_43  and  O_44
REMARK   27  A    between atoms: C_52  and  O_57
REMARK   28  A    between atoms: C_53  and  O_56
REMARK                            x       y       z     vdW  Elec       q    Type
REMARK                         _______ _______ _______ _____ _____    ______ ____
ROOT
ATOM      1  C   UNL     1       4.976   1.619  28.644  0.00  0.00    +0.131 A 
ATOM      2  C   UNL     1       6.017   1.415  27.713  0.00  0.00    +0.093 A 
ATOM      3  C   UNL     1       6.202   0.151  27.124  0.00  0.00    +0.147 A 
ATOM      4  O   UNL     1       7.224  -0.057  26.214  0.00  0.00    -0.451 OA
ATOM      5  C   UNL     1       7.258  -1.282  25.517  0.00  0.00    +0.181 A 
ATOM      6  C   UNL     1       6.491  -2.356  25.837  0.00  0.00    +0.214 A 
ATOM      7  C   UNL     1       5.754  -2.230  27.121  0.00  0.00    +0.238 A 
ATOM      8  O   UNL     1       5.610  -3.177  27.889  0.00  0.00    -0.283 OA
ATOM      9  C   UNL     1       5.362  -0.891  27.513  0.00  0.00    +0.109 A 
ATOM     10  C   UNL     1       4.251  -0.656  28.325  0.00  0.00    +0.135 A 
ATOM     11  C   UNL     1       4.052   0.598  28.878  0.00  0.00    +0.092 A 
ENDROOT
BRANCH   5  12
ATOM     12  C   UNL     1       8.272  -1.344  24.419  0.00  0.00    +0.025 A 
ATOM     13  C   UNL     1       9.303  -2.303  24.400  0.00  0.00    +0.015 A 
ATOM     14  C   UNL     1      10.240  -2.333  23.350  0.00  0.00    +0.050 A 
ATOM     15  C   UNL     1      10.150  -1.412  22.319  0.00  0.00    +0.158 A 
ATOM     16  C   UNL     1       9.126  -0.475  22.303  0.00  0.00    +0.159 A 
ATOM     17  C   UNL     1       8.183  -0.450  23.329  0.00  0.00    +0.060 A 
BRANCH  16  18
ATOM     18  O   UNL     1       9.076   0.405  21.260  0.00  0.00    -0.503 OA
ATOM     19  H   UNL     1       9.573   0.025  20.516  0.00  0.00    +0.292 HD
ENDBRANCH  16  18
BRANCH  15  20
ATOM     20  O   UNL     1      11.059  -1.433  21.303  0.00  0.00    -0.503 OA
ATOM     21  H   UNL     1      11.218  -2.381  21.120  0.00  0.00    +0.292 HD
ENDBRANCH  15  20
ENDBRANCH   5  12
BRANCH  10  22
ATOM     22  O   UNL     1       3.368  -1.662  28.576  0.00  0.00    -0.506 OA
ATOM     23  H   UNL     1       3.311  -1.835  29.529  0.00  0.00    +0.292 HD
ENDBRANCH  10  22
BRANCH   6  24
ATOM     24  O   UNL     1       6.472  -3.541  25.112  0.00  0.00    -0.453 OA
BRANCH  24  25
ATOM     25  C   UNL     1       5.550  -3.655  24.003  0.00  0.00    +0.339 C 
ATOM     26  O   UNL     1       4.237  -3.201  24.386  0.00  0.00    -0.334 OA
ATOM     27  C   UNL     1       3.612  -3.989  25.401  0.00  0.00    +0.151 C 
ATOM     28  C   UNL     1       2.290  -3.313  25.751  0.00  0.00    +0.041 C 
ATOM     29  C   UNL     1       3.456  -5.486  25.008  0.00  0.00    +0.181 C 
ATOM     30  C   UNL     1       4.844  -5.994  24.553  0.00  0.00    +0.180 C 
ATOM     31  C   UNL     1       5.450  -5.097  23.475  0.00  0.00    +0.214 C 
BRANCH  31  32
ATOM     32  O   UNL     1       6.713  -5.643  23.058  0.00  0.00    -0.383 OA
ATOM     33  H   UNL     1       6.638  -5.864  22.109  0.00  0.00    +0.210 HD
ENDBRANCH  31  32
BRANCH  30  34
ATOM     34  O   UNL     1       4.882  -7.358  24.125  0.00  0.00    -0.386 OA
ATOM     35  H   UNL     1       5.393  -7.392  23.292  0.00  0.00    +0.210 HD
ENDBRANCH  30  34
BRANCH  29  36
ATOM     36  O   UNL     1       2.368  -5.695  24.072  0.00  0.00    -0.340 OA
BRANCH  36  37
ATOM     37  C   UNL     1       1.231  -6.420  24.579  0.00  0.00    +0.282 C 
ATOM     38  O   UNL     1       1.143  -6.310  26.018  0.00  0.00    -0.341 OA
ATOM     39  C   UNL     1       2.043  -7.143  26.763  0.00  0.00    +0.178 C 
ATOM     40  C   UNL     1       1.799  -8.617  26.409  0.00  0.00    +0.177 C 
ATOM     41  C   UNL     1       2.042  -8.794  24.910  0.00  0.00    +0.179 C 
ATOM     42  C   UNL     1       1.087  -7.899  24.119  0.00  0.00    +0.201 C 
BRANCH  42  43
ATOM     43  O   UNL     1       1.237  -8.121  22.716  0.00  0.00    -0.384 OA
ATOM     44  H   UNL     1       2.185  -8.275  22.545  0.00  0.00    +0.210 HD
ENDBRANCH  42  43
BRANCH  41  45
ATOM     45  O   UNL     1       1.849 -10.161  24.524  0.00  0.00    -0.386 OA
ATOM     46  H   UNL     1       2.731 -10.512  24.292  0.00  0.00    +0.210 HD
ENDBRANCH  41  45
BRANCH  40  47
ATOM     47  O   UNL     1       0.446  -9.008  26.718  0.00  0.00    -0.386 OA
ATOM     48  H   UNL     1       0.342  -9.952  26.484  0.00  0.00    +0.210 HD
ENDBRANCH  40  47
BRANCH  39  49
ATOM     49  C   UNL     1       1.802  -6.884  28.258  0.00  0.00    +0.190 C 
BRANCH  49  50
ATOM     50  O   UNL     1       1.744  -5.493  28.549  0.00  0.00    -0.392 OA
ATOM     51  H   UNL     1       2.476  -5.288  29.158  0.00  0.00    +0.210 HD
ENDBRANCH  49  50
ENDBRANCH  39  49
ENDBRANCH  36  37
ENDBRANCH  29  36
ENDBRANCH  24  25
ENDBRANCH   6  24
BRANCH   1  52
ATOM     52  O   UNL     1       4.913   2.837  29.282  0.00  0.00    -0.461 OA
BRANCH  52  55
ATOM     53  C   UNL     1       3.754   6.289  28.600  0.00  0.00    +0.179 C 
ATOM     54  O   UNL     1       4.406   5.159  29.229  0.00  0.00    -0.331 OA
ATOM     55  C   UNL     1       4.257   3.901  28.546  0.00  0.00    +0.339 C 
ATOM     56  C   UNL     1       2.758   3.558  28.405  0.00  0.00    +0.214 C 
ATOM     57  C   UNL     1       2.035   4.699  27.676  0.00  0.00    +0.180 C 
ATOM     58  C   UNL     1       2.243   6.020  28.439  0.00  0.00    +0.177 C 
BRANCH  58  59
ATOM     59  O   UNL     1       1.541   7.108  27.844  0.00  0.00    -0.386 OA
ATOM     60  H   UNL     1       1.457   6.948  26.889  0.00  0.00    +0.210 HD
ENDBRANCH  58  59
BRANCH  57  61
ATOM     61  O   UNL     1       0.643   4.397  27.562  0.00  0.00    -0.386 OA
ATOM     62  H   UNL     1       0.189   5.258  27.456  0.00  0.00    +0.210 HD
ENDBRANCH  57  61
BRANCH  56  63
ATOM     63  O   UNL     1       2.119   3.389  29.690  0.00  0.00    -0.383 OA
ATOM     64  H   UNL     1       1.301   3.923  29.679  0.00  0.00    +0.210 HD
ENDBRANCH  56  63
BRANCH  53  65
ATOM     65  C   UNL     1       4.489   6.714  27.308  0.00  0.00    +0.197 C 
BRANCH  65  66
ATOM     66  O   UNL     1       5.867   6.335  27.323  0.00  0.00    -0.346 OA
BRANCH  66  70
ATOM     67  C   UNL     1       5.909   4.772  23.325  0.00  0.00    +0.041 C 
ATOM     68  C   UNL     1       6.852   4.323  24.446  0.00  0.00    +0.149 C 
ATOM     69  O   UNL     1       6.340   4.696  25.732  0.00  0.00    -0.343 OA
ATOM     70  C   UNL     1       6.381   6.096  26.007  0.00  0.00    +0.282 C 
ATOM     71  C   UNL     1       7.837   6.613  25.932  0.00  0.00    +0.201 C 
ATOM     72  C   UNL     1       8.414   6.305  24.547  0.00  0.00    +0.179 C 
ATOM     73  C   UNL     1       8.300   4.800  24.249  0.00  0.00    +0.174 C 
BRANCH  73  74
ATOM     74  O   UNL     1       8.736   4.479  22.925  0.00  0.00    -0.387 OA
ATOM     75  H   UNL     1       8.018   4.708  22.308  0.00  0.00    +0.210 HD
ENDBRANCH  73  74
BRANCH  72  76
ATOM     76  O   UNL     1       9.789   6.703  24.476  0.00  0.00    -0.386 OA
ATOM     77  H   UNL     1       9.792   7.563  24.003  0.00  0.00    +0.210 HD
ENDBRANCH  72  76
BRANCH  71  78
ATOM     78  O   UNL     1       8.690   5.964  26.901  0.00  0.00    -0.384 OA
ATOM     79  H   UNL     1       9.035   6.668  27.485  0.00  0.00    +0.210 HD
ENDBRANCH  71  78
ENDBRANCH  66  70
ENDBRANCH  65  66
ENDBRANCH  53  65
ENDBRANCH  52  55
ENDBRANCH   1  52
TORSDOF 26
ENDMDL
MODEL 9
REMARK VINA RESULT:      -4.2      1.921     11.019
REMARK  Name = 
REMARK  28 active torsions:
REMARK  status: ('A' for Active; 'I' for Inactive)
REMARK    1  A    between atoms: C_1  and  C_2
REMARK    2  A    between atoms: C_3  and  O_64
REMARK    3  A    between atoms: C_4  and  O_63
REMARK    4  A    between atoms: C_5  and  O_62
REMARK    5  A    between atoms: C_6  and  O_8
REMARK    6  A    between atoms: O_8  and  C_9
REMARK    7  A    between atoms: C_9  and  C_10
REMARK    8  A    between atoms: C_11  and  O_61
REMARK    9  A    between atoms: C_12  and  O_60
REMARK   10  A    between atoms: C_13  and  O_59
REMARK   11  A    between atoms: C_14  and  O_16
REMARK   12  A    between atoms: O_16  and  C_17
REMARK   13  A    between atoms: C_19  and  O_58
REMARK   14  A    between atoms: C_24  and  C_50
REMARK   15  A    between atoms: C_25  and  O_28
REMARK   16  A    between atoms: O_28  and  C_29
REMARK   17  A    between atoms: C_30  and  O_49
REMARK   18  A    between atoms: C_31  and  O_48
REMARK   19  A    between atoms: C_32  and  O_36
REMARK   20  A    between atoms: C_33  and  C_35
REMARK   21  A    between atoms: O_36  and  C_37
REMARK   22  A    between atoms: C_38  and  O_47
REMARK   23  A    between atoms: C_39  and  O_46
REMARK   24  A    between atoms: C_40  and  O_45
REMARK   25  A    between atoms: C_41  and  C_43
REMARK   26  A    between atoms: C_43  and  O_44
REMARK   27  A    between atoms: C_52  and  O_57
REMARK   28  A    between atoms: C_53  and  O_56
REMARK                            x       y       z     vdW  Elec       q    Type
REMARK                         _______ _______ _______ _____ _____    ______ ____
ROOT
ATOM      1  C   UNL     1       9.995   0.803  22.976  0.00  0.00    +0.131 A 
ATOM      2  C   UNL     1       8.981   0.947  23.948  0.00  0.00    +0.093 A 
ATOM      3  C   UNL     1       7.911   0.034  23.994  0.00  0.00    +0.147 A 
ATOM      4  O   UNL     1       6.912   0.172  24.942  0.00  0.00    -0.451 OA
ATOM      5  C   UNL     1       5.963  -0.864  25.066  0.00  0.00    +0.181 A 
ATOM      6  C   UNL     1       5.830  -1.879  24.173  0.00  0.00    +0.214 A 
ATOM      7  C   UNL     1       6.616  -1.712  22.925  0.00  0.00    +0.238 A 
ATOM      8  O   UNL     1       6.179  -2.042  21.826  0.00  0.00    -0.283 OA
ATOM      9  C   UNL     1       7.861  -0.977  23.037  0.00  0.00    +0.109 A 
ATOM     10  C   UNL     1       8.930  -1.201  22.168  0.00  0.00    +0.135 A 
ATOM     11  C   UNL     1       9.999  -0.320  22.146  0.00  0.00    +0.092 A 
ENDROOT
BRANCH   5  12
ATOM     12  C   UNL     1       5.044  -0.726  26.238  0.00  0.00    +0.025 A 
ATOM     13  C   UNL     1       5.400  -1.161  27.529  0.00  0.00    +0.015 A 
ATOM     14  C   UNL     1       4.512  -1.014  28.610  0.00  0.00    +0.050 A 
ATOM     15  C   UNL     1       3.271  -0.432  28.409  0.00  0.00    +0.158 A 
ATOM     16  C   UNL     1       2.909   0.029  27.151  0.00  0.00    +0.159 A 
ATOM     17  C   UNL     1       3.790  -0.096  26.078  0.00  0.00    +0.060 A 
BRANCH  16  18
ATOM     18  O   UNL     1       1.678   0.603  27.006  0.00  0.00    -0.503 OA
ATOM     19  H   UNL     1       1.289   0.286  26.173  0.00  0.00    +0.292 HD
ENDBRANCH  16  18
BRANCH  15  20
ATOM     20  O   UNL     1       2.403  -0.293  29.452  0.00  0.00    -0.503 OA
ATOM     21  H   UNL     1       2.069  -1.196  29.629  0.00  0.00    +0.292 HD
ENDBRANCH  15  20
ENDBRANCH   5  12
BRANCH  10  22
ATOM     22  O   UNL     1       8.917  -2.281  21.338  0.00  0.00    -0.506 OA
ATOM     23  H   UNL     1       8.065  -2.349  20.880  0.00  0.00    +0.292 HD
ENDBRANCH  10  22
BRANCH   6  24
ATOM     24  O   UNL     1       4.942  -2.936  24.327  0.00  0.00    -0.453 OA
BRANCH  24  25
ATOM     25  C   UNL     1       4.477  -3.256  25.660  0.00  0.00    +0.339 C 
ATOM     26  O   UNL     1       5.433  -4.087  26.346  0.00  0.00    -0.334 OA
ATOM     27  C   UNL     1       5.624  -5.376  25.759  0.00  0.00    +0.151 C 
ATOM     28  C   UNL     1       6.730  -6.074  26.543  0.00  0.00    +0.041 C 
ATOM     29  C   UNL     1       4.313  -6.209  25.664  0.00  0.00    +0.181 C 
ATOM     30  C   UNL     1       3.252  -5.326  24.966  0.00  0.00    +0.180 C 
ATOM     31  C   UNL     1       3.111  -3.965  25.645  0.00  0.00    +0.214 C 
BRANCH  31  32
ATOM     32  O   UNL     1       2.081  -3.210  24.986  0.00  0.00    -0.383 OA
ATOM     33  H   UNL     1       1.797  -2.503  25.598  0.00  0.00    +0.210 HD
ENDBRANCH  31  32
BRANCH  30  34
ATOM     34  O   UNL     1       1.962  -5.928  24.819  0.00  0.00    -0.386 OA
ATOM     35  H   UNL     1       1.323  -5.213  24.624  0.00  0.00    +0.210 HD
ENDBRANCH  30  34
BRANCH  29  36
ATOM     36  O   UNL     1       3.927  -6.768  26.945  0.00  0.00    -0.340 OA
BRANCH  36  37
ATOM     37  C   UNL     1       2.665  -6.319  27.476  0.00  0.00    +0.282 C 
ATOM     38  O   UNL     1       2.846  -5.192  28.364  0.00  0.00    -0.341 OA
ATOM     39  C   UNL     1       3.322  -5.506  29.681  0.00  0.00    +0.178 C 
ATOM     40  C   UNL     1       2.345  -6.469  30.369  0.00  0.00    +0.177 C 
ATOM     41  C   UNL     1       2.257  -7.742  29.529  0.00  0.00    +0.179 C 
ATOM     42  C   UNL     1       1.758  -7.404  28.124  0.00  0.00    +0.201 C 
BRANCH  42  43
ATOM     43  O   UNL     1       1.581  -8.593  27.353  0.00  0.00    -0.384 OA
ATOM     44  H   UNL     1       1.212  -8.330  26.489  0.00  0.00    +0.210 HD
ENDBRANCH  42  43
BRANCH  41  45
ATOM     45  O   UNL     1       1.371  -8.691  30.137  0.00  0.00    -0.386 OA
ATOM     46  H   UNL     1       0.677  -8.886  29.478  0.00  0.00    +0.210 HD
ENDBRANCH  41  45
BRANCH  40  47
ATOM     47  O   UNL     1       1.031  -5.884  30.482  0.00  0.00    -0.386 OA
ATOM     48  H   UNL     1       1.003  -5.359  31.307  0.00  0.00    +0.210 HD
ENDBRANCH  40  47
BRANCH  39  49
ATOM     49  C   UNL     1       3.451  -4.190  30.465  0.00  0.00    +0.190 C 
BRANCH  49  50
ATOM     50  O   UNL     1       2.367  -3.309  30.196  0.00  0.00    -0.392 OA
ATOM     51  H   UNL     1       2.317  -2.671  30.931  0.00  0.00    +0.210 HD
ENDBRANCH  49  50
ENDBRANCH  39  49
ENDBRANCH  36  37
ENDBRANCH  29  36
ENDBRANCH  24  25
ENDBRANCH   6  24
BRANCH   1  52
ATOM     52  O   UNL     1      10.952   1.789  22.894  0.00  0.00    -0.461 OA
BRANCH  52  55
ATOM     53  C   UNL     1       9.174   4.856  23.969  0.00  0.00    +0.179 C 
ATOM     54  O   UNL     1       9.498   3.633  23.264  0.00  0.00    -0.331 OA
ATOM     55  C   UNL     1      10.705   2.975  23.691  0.00  0.00    +0.339 C 
ATOM     56  C   UNL     1      11.904   3.936  23.538  0.00  0.00    +0.214 C 
ATOM     57  C   UNL     1      11.637   5.223  24.332  0.00  0.00    +0.180 C 
ATOM     58  C   UNL     1      10.328   5.872  23.847  0.00  0.00    +0.177 C 
BRANCH  58  59
ATOM     59  O   UNL     1      10.058   7.107  24.504  0.00  0.00    -0.386 OA
ATOM     60  H   UNL     1       9.160   7.399  24.278  0.00  0.00    +0.210 HD
ENDBRANCH  58  59
BRANCH  57  61
ATOM     61  O   UNL     1      12.735   6.126  24.176  0.00  0.00    -0.386 OA
ATOM     62  H   UNL     1      13.363   5.683  23.570  0.00  0.00    +0.210 HD
ENDBRANCH  57  61
BRANCH  56  63
ATOM     63  O   UNL     1      12.123   4.312  22.161  0.00  0.00    -0.383 OA
ATOM     64  H   UNL     1      11.319   4.069  21.662  0.00  0.00    +0.210 HD
ENDBRANCH  56  63
BRANCH  53  65
ATOM     65  C   UNL     1       8.702   4.565  25.413  0.00  0.00    +0.197 C 
BRANCH  65  66
ATOM     66  O   UNL     1       7.331   4.167  25.461  0.00  0.00    -0.346 OA
BRANCH  66  70
ATOM     67  C   UNL     1       5.798   6.785  22.424  0.00  0.00    +0.041 C 
ATOM     68  C   UNL     1       4.938   6.060  23.463  0.00  0.00    +0.149 C 
ATOM     69  O   UNL     1       5.732   5.614  24.571  0.00  0.00    -0.343 OA
ATOM     70  C   UNL     1       6.615   4.532  24.275  0.00  0.00    +0.282 C 
ATOM     71  C   UNL     1       5.812   3.310  23.773  0.00  0.00    +0.201 C 
ATOM     72  C   UNL     1       4.996   3.710  22.540  0.00  0.00    +0.179 C 
ATOM     73  C   UNL     1       4.100   4.917  22.867  0.00  0.00    +0.174 C 
BRANCH  73  74
ATOM     74  O   UNL     1       3.393   5.389  21.718  0.00  0.00    -0.387 OA
ATOM     75  H   UNL     1       3.280   4.641  21.105  0.00  0.00    +0.210 HD
ENDBRANCH  73  74
BRANCH  72  76
ATOM     76  O   UNL     1       4.181   2.616  22.101  0.00  0.00    -0.386 OA
ATOM     77  H   UNL     1       4.799   1.970  21.697  0.00  0.00    +0.210 HD
ENDBRANCH  72  76
BRANCH  71  78
ATOM     78  O   UNL     1       4.875   2.836  24.766  0.00  0.00    -0.384 OA
ATOM     79  H   UNL     1       4.020   3.269  24.574  0.00  0.00    +0.210 HD
ENDBRANCH  71  78
ENDBRANCH  66  70
ENDBRANCH  65  66
ENDBRANCH  53  65
ENDBRANCH  52  55
ENDBRANCH   1  52
TORSDOF 26
ENDMDL
