MODEL 1
REMARK VINA RESULT:      -7.6      0.000      0.000
REMARK  Name = 
REMARK  23 active torsions:
REMARK  status: ('A' for Active; 'I' for Inactive)
REMARK    1  A    between atoms: C_1  and  O_2
REMARK    2  A    between atoms: O_2  and  C_3
REMARK    3  A    between atoms: C_5  and  O_62
REMARK    4  A    between atoms: C_10  and  C_54
REMARK    5  A    between atoms: C_11  and  O_14
REMARK    6  A    between atoms: O_14  and  C_15
REMARK    7  A    between atoms: C_17  and  O_53
REMARK    8  A    between atoms: C_18  and  O_41
REMARK    9  A    between atoms: C_20  and  O_40
REMARK   10  A    between atoms: C_22  and  C_24
REMARK   11  A    between atoms: C_24  and  O_25
REMARK   12  A    between atoms: O_25  and  C_26
REMARK   13  A    between atoms: C_28  and  O_39
REMARK   14  A    between atoms: C_29  and  O_38
REMARK   15  A    between atoms: C_31  and  O_37
REMARK   16  A    between atoms: C_33  and  C_35
REMARK   17  A    between atoms: C_35  and  O_36
REMARK   18  A    between atoms: O_41  and  C_42
REMARK   19  A    between atoms: C_44  and  O_52
REMARK   20  A    between atoms: C_45  and  O_51
REMARK   21  A    between atoms: C_47  and  O_50
REMARK   22  A    between atoms: C_56  and  O_61
REMARK   23  A    between atoms: C_57  and  O_60
REMARK                            x       y       z     vdW  Elec       q    Type
REMARK                         _______ _______ _______ _____ _____    ______ ____
ROOT
ATOM      1  C   UNL     1       7.122  -1.470  22.867  0.00  0.00    +0.340 C 
ATOM      2  O   UNL     1       5.827  -2.134  22.859  0.00  0.00    -0.331 OA
ATOM      3  C   UNL     1       5.701  -3.573  22.974  0.00  0.00    +0.179 C 
ATOM      4  C   UNL     1       6.685  -4.322  22.048  0.00  0.00    +0.177 C 
ATOM      5  C   UNL     1       8.080  -3.809  22.427  0.00  0.00    +0.187 C 
ATOM      6  C   UNL     1       7.996  -2.301  21.924  0.00  0.00    +0.214 C 
ENDROOT
BRANCH   6   7
ATOM      7  O   UNL     1       9.241  -1.672  21.661  0.00  0.00    -0.383 OA
ATOM      8  H   UNL     1       9.079  -0.709  21.751  0.00  0.00    +0.210 HD
ENDBRANCH   6   7
BRANCH   4   9
ATOM      9  O   UNL     1       6.559  -5.739  22.051  0.00  0.00    -0.386 OA
ATOM     10  H   UNL     1       7.440  -6.148  21.957  0.00  0.00    +0.210 HD
ENDBRANCH   4   9
BRANCH   5  11
ATOM     11  O   UNL     1       8.249  -3.958  23.885  0.00  0.00    -0.340 OA
BRANCH  11  12
ATOM     12  C   UNL     1       8.180  -5.290  24.457  0.00  0.00    +0.282 C 
ATOM     13  O   UNL     1       6.884  -5.680  24.937  0.00  0.00    -0.346 OA
ATOM     14  C   UNL     1       6.407  -5.125  26.174  0.00  0.00    +0.197 C 
ATOM     15  C   UNL     1       7.403  -5.065  27.328  0.00  0.00    +0.171 C 
ATOM     16  C   UNL     1       8.796  -4.674  26.850  0.00  0.00    +0.178 C 
ATOM     17  C   UNL     1       9.207  -5.470  25.611  0.00  0.00    +0.201 C 
BRANCH  17  18
ATOM     18  O   UNL     1      10.520  -5.086  25.188  0.00  0.00    -0.384 OA
ATOM     19  H   UNL     1      11.084  -5.890  25.240  0.00  0.00    +0.210 HD
ENDBRANCH  17  18
BRANCH  16  20
ATOM     20  O   UNL     1       8.857  -3.287  26.558  0.00  0.00    -0.386 OA
ATOM     21  H   UNL     1       8.495  -3.106  25.668  0.00  0.00    +0.210 HD
ENDBRANCH  16  20
BRANCH  15  22
ATOM     22  O   UNL     1       7.472  -6.322  28.008  0.00  0.00    -0.387 OA
ATOM     23  H   UNL     1       7.889  -6.201  28.878  0.00  0.00    +0.210 HD
ENDBRANCH  15  22
ENDBRANCH  11  12
ENDBRANCH   5  11
BRANCH   3  24
ATOM     24  C   UNL     1       4.267  -4.107  22.674  0.00  0.00    +0.197 C 
BRANCH  24  25
ATOM     25  O   UNL     1       3.805  -5.210  23.472  0.00  0.00    -0.346 OA
BRANCH  25  26
ATOM     26  C   UNL     1       2.376  -5.271  23.559  0.00  0.00    +0.282 C 
ATOM     27  O   UNL     1       1.956  -4.919  24.858  0.00  0.00    -0.341 OA
ATOM     28  C   UNL     1       2.583  -5.696  25.884  0.00  0.00    +0.178 C 
ATOM     29  C   UNL     1       2.013  -7.093  25.812  0.00  0.00    +0.177 C 
ATOM     30  C   UNL     1       2.371  -7.649  24.426  0.00  0.00    +0.179 C 
ATOM     31  C   UNL     1       1.873  -6.704  23.308  0.00  0.00    +0.201 C 
BRANCH  31  32
ATOM     32  O   UNL     1       2.288  -7.181  22.029  0.00  0.00    -0.384 OA
ATOM     33  H   UNL     1       3.152  -6.763  21.855  0.00  0.00    +0.210 HD
ENDBRANCH  31  32
BRANCH  30  34
ATOM     34  O   UNL     1       3.807  -7.813  24.345  0.00  0.00    -0.386 OA
ATOM     35  H   UNL     1       4.214  -6.935  24.500  0.00  0.00    +0.210 HD
ENDBRANCH  30  34
BRANCH  29  36
ATOM     36  O   UNL     1       2.541  -7.903  26.860  0.00  0.00    -0.386 OA
ATOM     37  H   UNL     1       1.774  -8.168  27.406  0.00  0.00    +0.210 HD
ENDBRANCH  29  36
BRANCH  28  38
ATOM     38  C   UNL     1       2.298  -5.005  27.180  0.00  0.00    +0.190 C 
BRANCH  38  39
ATOM     39  O   UNL     1       3.380  -4.581  27.975  0.00  0.00    -0.392 OA
ATOM     40  H   UNL     1       3.444  -3.614  27.878  0.00  0.00    +0.210 HD
ENDBRANCH  38  39
ENDBRANCH  28  38
ENDBRANCH  25  26
ENDBRANCH  24  25
ENDBRANCH   3  24
BRANCH   1  41
ATOM     41  O   UNL     1       7.887  -1.292  24.100  0.00  0.00    -0.453 OA
BRANCH  41  47
ATOM     42  C   UNL     1       9.153   4.983  24.537  0.00  0.00    +0.127 A 
ATOM     43  C   UNL     1       8.382   4.161  25.394  0.00  0.00    +0.092 A 
ATOM     44  C   UNL     1       8.284   2.777  25.160  0.00  0.00    +0.147 A 
ATOM     45  O   UNL     1       7.551   1.952  25.990  0.00  0.00    -0.451 OA
ATOM     46  C   UNL     1       7.344   0.591  25.608  0.00  0.00    +0.181 A 
ATOM     47  C   UNL     1       8.133  -0.044  24.697  0.00  0.00    +0.214 A 
ATOM     48  C   UNL     1       9.286   0.784  24.234  0.00  0.00    +0.238 A 
ATOM     49  O   UNL     1      10.395   0.309  24.036  0.00  0.00    -0.283 OA
ATOM     50  C   UNL     1       9.020   2.239  24.121  0.00  0.00    +0.109 A 
ATOM     51  C   UNL     1       9.645   3.067  23.180  0.00  0.00    +0.135 A 
ATOM     52  C   UNL     1       9.690   4.441  23.373  0.00  0.00    +0.092 A 
BRANCH  46  53
ATOM     53  C   UNL     1       6.213  -0.046  26.366  0.00  0.00    +0.025 A 
ATOM     54  C   UNL     1       6.016   0.212  27.742  0.00  0.00    +0.015 A 
ATOM     55  C   UNL     1       4.954  -0.365  28.473  0.00  0.00    +0.050 A 
ATOM     56  C   UNL     1       4.055  -1.193  27.832  0.00  0.00    +0.158 A 
ATOM     57  C   UNL     1       4.230  -1.475  26.492  0.00  0.00    +0.159 A 
ATOM     58  C   UNL     1       5.301  -0.933  25.777  0.00  0.00    +0.060 A 
BRANCH  57  59
ATOM     59  O   UNL     1       3.280  -2.237  25.860  0.00  0.00    -0.503 OA
ATOM     60  H   UNL     1       2.674  -2.523  26.579  0.00  0.00    +0.292 HD
ENDBRANCH  57  59
BRANCH  56  61
ATOM     61  O   UNL     1       2.981  -1.698  28.505  0.00  0.00    -0.503 OA
ATOM     62  H   UNL     1       3.375  -2.259  29.205  0.00  0.00    +0.292 HD
ENDBRANCH  56  61
ENDBRANCH  46  53
BRANCH  51  63
ATOM     63  O   UNL     1      10.235   2.556  22.059  0.00  0.00    -0.506 OA
ATOM     64  H   UNL     1       9.609   2.000  21.568  0.00  0.00    +0.292 HD
ENDBRANCH  51  63
BRANCH  42  66
ATOM     65  C   UNL     1      10.713   6.696  25.114  0.00  0.00    +0.277 C 
ATOM     66  O   UNL     1       9.351   6.287  24.921  0.00  0.00    -0.495 OA
ENDBRANCH  42  66
ENDBRANCH  41  47
ENDBRANCH   1  41
TORSDOF 22
ENDMDL
MODEL 2
REMARK VINA RESULT:      -7.2      2.784      6.496
REMARK  Name = 
REMARK  23 active torsions:
REMARK  status: ('A' for Active; 'I' for Inactive)
REMARK    1  A    between atoms: C_1  and  O_2
REMARK    2  A    between atoms: O_2  and  C_3
REMARK    3  A    between atoms: C_5  and  O_62
REMARK    4  A    between atoms: C_10  and  C_54
REMARK    5  A    between atoms: C_11  and  O_14
REMARK    6  A    between atoms: O_14  and  C_15
REMARK    7  A    between atoms: C_17  and  O_53
REMARK    8  A    between atoms: C_18  and  O_41
REMARK    9  A    between atoms: C_20  and  O_40
REMARK   10  A    between atoms: C_22  and  C_24
REMARK   11  A    between atoms: C_24  and  O_25
REMARK   12  A    between atoms: O_25  and  C_26
REMARK   13  A    between atoms: C_28  and  O_39
REMARK   14  A    between atoms: C_29  and  O_38
REMARK   15  A    between atoms: C_31  and  O_37
REMARK   16  A    between atoms: C_33  and  C_35
REMARK   17  A    between atoms: C_35  and  O_36
REMARK   18  A    between atoms: O_41  and  C_42
REMARK   19  A    between atoms: C_44  and  O_52
REMARK   20  A    between atoms: C_45  and  O_51
REMARK   21  A    between atoms: C_47  and  O_50
REMARK   22  A    between atoms: C_56  and  O_61
REMARK   23  A    between atoms: C_57  and  O_60
REMARK                            x       y       z     vdW  Elec       q    Type
REMARK                         _______ _______ _______ _____ _____    ______ ____
ROOT
ATOM      1  C   UNL     1       6.670   0.790  26.210  0.00  0.00    +0.340 C 
ATOM      2  O   UNL     1       5.746  -0.319  26.403  0.00  0.00    -0.331 OA
ATOM      3  C   UNL     1       4.409  -0.122  26.926  0.00  0.00    +0.179 C 
ATOM      4  C   UNL     1       4.396   0.800  28.165  0.00  0.00    +0.177 C 
ATOM      5  C   UNL     1       5.063   2.106  27.715  0.00  0.00    +0.187 C 
ATOM      6  C   UNL     1       6.562   1.619  27.492  0.00  0.00    +0.214 C 
ENDROOT
BRANCH   6   7
ATOM      7  O   UNL     1       7.552   2.635  27.551  0.00  0.00    -0.383 OA
ATOM      8  H   UNL     1       7.775   2.738  28.500  0.00  0.00    +0.210 HD
ENDBRANCH   6   7
BRANCH   4   9
ATOM      9  O   UNL     1       3.123   0.970  28.778  0.00  0.00    -0.386 OA
ATOM     10  H   UNL     1       2.784   0.106  29.076  0.00  0.00    +0.210 HD
ENDBRANCH   4   9
BRANCH   5  11
ATOM     11  O   UNL     1       4.385   2.577  26.494  0.00  0.00    -0.340 OA
BRANCH  11  12
ATOM     12  C   UNL     1       3.349   3.586  26.621  0.00  0.00    +0.282 C 
ATOM     13  O   UNL     1       2.004   3.089  26.562  0.00  0.00    -0.346 OA
ATOM     14  C   UNL     1       1.464   2.699  25.288  0.00  0.00    +0.197 C 
ATOM     15  C   UNL     1       1.736   3.634  24.114  0.00  0.00    +0.171 C 
ATOM     16  C   UNL     1       3.151   4.196  24.157  0.00  0.00    +0.178 C 
ATOM     17  C   UNL     1       3.509   4.706  25.554  0.00  0.00    +0.201 C 
BRANCH  17  18
ATOM     18  O   UNL     1       4.840   5.233  25.564  0.00  0.00    -0.384 OA
ATOM     19  H   UNL     1       4.760   6.211  25.623  0.00  0.00    +0.210 HD
ENDBRANCH  17  18
BRANCH  16  20
ATOM     20  O   UNL     1       4.095   3.215  23.759  0.00  0.00    -0.386 OA
ATOM     21  H   UNL     1       4.855   3.199  24.375  0.00  0.00    +0.210 HD
ENDBRANCH  16  20
BRANCH  15  22
ATOM     22  O   UNL     1       0.798   4.714  24.093  0.00  0.00    -0.387 OA
ATOM     23  H   UNL     1      -0.022   4.427  23.655  0.00  0.00    +0.210 HD
ENDBRANCH  15  22
ENDBRANCH  11  12
ENDBRANCH   5  11
BRANCH   3  24
ATOM     24  C   UNL     1       3.681  -1.446  27.310  0.00  0.00    +0.197 C 
BRANCH  24  25
ATOM     25  O   UNL     1       4.505  -2.606  27.510  0.00  0.00    -0.346 OA
BRANCH  25  26
ATOM     26  C   UNL     1       4.133  -3.703  26.667  0.00  0.00    +0.282 C 
ATOM     27  O   UNL     1       4.189  -4.911  27.393  0.00  0.00    -0.341 OA
ATOM     28  C   UNL     1       5.455  -5.133  28.023  0.00  0.00    +0.178 C 
ATOM     29  C   UNL     1       6.455  -5.452  26.938  0.00  0.00    +0.177 C 
ATOM     30  C   UNL     1       6.524  -4.224  26.019  0.00  0.00    +0.179 C 
ATOM     31  C   UNL     1       5.118  -3.851  25.493  0.00  0.00    +0.201 C 
BRANCH  31  32
ATOM     32  O   UNL     1       5.177  -2.657  24.715  0.00  0.00    -0.384 OA
ATOM     33  H   UNL     1       5.304  -1.928  25.351  0.00  0.00    +0.210 HD
ENDBRANCH  31  32
BRANCH  30  34
ATOM     34  O   UNL     1       7.096  -3.119  26.758  0.00  0.00    -0.386 OA
ATOM     35  H   UNL     1       6.581  -3.019  27.586  0.00  0.00    +0.210 HD
ENDBRANCH  30  34
BRANCH  29  36
ATOM     36  O   UNL     1       7.727  -5.761  27.506  0.00  0.00    -0.386 OA
ATOM     37  H   UNL     1       7.690  -6.708  27.746  0.00  0.00    +0.210 HD
ENDBRANCH  29  36
BRANCH  28  38
ATOM     38  C   UNL     1       5.259  -6.251  28.998  0.00  0.00    +0.190 C 
BRANCH  38  39
ATOM     39  O   UNL     1       5.463  -7.574  28.562  0.00  0.00    -0.392 OA
ATOM     40  H   UNL     1       4.832  -8.135  29.047  0.00  0.00    +0.210 HD
ENDBRANCH  38  39
ENDBRANCH  28  38
ENDBRANCH  25  26
ENDBRANCH  24  25
ENDBRANCH   3  24
BRANCH   1  41
ATOM     41  O   UNL     1       6.528   1.722  25.093  0.00  0.00    -0.453 OA
BRANCH  41  47
ATOM     42  C   UNL     1      11.562   5.431  23.657  0.00  0.00    +0.127 A 
ATOM     43  C   UNL     1      11.313   4.082  23.307  0.00  0.00    +0.092 A 
ATOM     44  C   UNL     1      10.101   3.464  23.664  0.00  0.00    +0.147 A 
ATOM     45  O   UNL     1       9.827   2.154  23.320  0.00  0.00    -0.451 OA
ATOM     46  C   UNL     1       8.661   1.526  23.857  0.00  0.00    +0.181 A 
ATOM     47  C   UNL     1       7.609   2.235  24.357  0.00  0.00    +0.214 A 
ATOM     48  C   UNL     1       7.754   3.710  24.182  0.00  0.00    +0.238 A 
ATOM     49  O   UNL     1       6.811   4.431  23.892  0.00  0.00    -0.283 OA
ATOM     50  C   UNL     1       9.139   4.231  24.294  0.00  0.00    +0.109 A 
ATOM     51  C   UNL     1       9.446   5.506  24.784  0.00  0.00    +0.135 A 
ATOM     52  C   UNL     1      10.668   6.098  24.488  0.00  0.00    +0.092 A 
BRANCH  46  53
ATOM     53  C   UNL     1       8.720   0.029  23.744  0.00  0.00    +0.025 A 
ATOM     54  C   UNL     1       9.682  -0.723  24.456  0.00  0.00    +0.015 A 
ATOM     55  C   UNL     1       9.749  -2.132  24.376  0.00  0.00    +0.050 A 
ATOM     56  C   UNL     1       8.837  -2.815  23.598  0.00  0.00    +0.158 A 
ATOM     57  C   UNL     1       7.894  -2.107  22.879  0.00  0.00    +0.159 A 
ATOM     58  C   UNL     1       7.850  -0.711  22.931  0.00  0.00    +0.060 A 
BRANCH  57  59
ATOM     59  O   UNL     1       6.951  -2.813  22.176  0.00  0.00    -0.503 OA
ATOM     60  H   UNL     1       6.269  -3.047  22.843  0.00  0.00    +0.292 HD
ENDBRANCH  57  59
BRANCH  56  61
ATOM     61  O   UNL     1       8.840  -4.180  23.569  0.00  0.00    -0.503 OA
ATOM     62  H   UNL     1       9.724  -4.413  23.217  0.00  0.00    +0.292 HD
ENDBRANCH  56  61
ENDBRANCH  46  53
BRANCH  51  63
ATOM     63  O   UNL     1       8.562   6.210  25.551  0.00  0.00    -0.506 OA
ATOM     64  H   UNL     1       7.944   6.705  24.989  0.00  0.00    +0.292 HD
ENDBRANCH  51  63
BRANCH  42  66
ATOM     65  C   UNL     1      13.201   5.449  21.919  0.00  0.00    +0.277 C 
ATOM     66  O   UNL     1      12.683   6.025  23.127  0.00  0.00    -0.495 OA
ENDBRANCH  42  66
ENDBRANCH  41  47
ENDBRANCH   1  41
TORSDOF 22
ENDMDL
MODEL 3
REMARK VINA RESULT:      -7.1      1.978      4.746
REMARK  Name = 
REMARK  23 active torsions:
REMARK  status: ('A' for Active; 'I' for Inactive)
REMARK    1  A    between atoms: C_1  and  O_2
REMARK    2  A    between atoms: O_2  and  C_3
REMARK    3  A    between atoms: C_5  and  O_62
REMARK    4  A    between atoms: C_10  and  C_54
REMARK    5  A    between atoms: C_11  and  O_14
REMARK    6  A    between atoms: O_14  and  C_15
REMARK    7  A    between atoms: C_17  and  O_53
REMARK    8  A    between atoms: C_18  and  O_41
REMARK    9  A    between atoms: C_20  and  O_40
REMARK   10  A    between atoms: C_22  and  C_24
REMARK   11  A    between atoms: C_24  and  O_25
REMARK   12  A    between atoms: O_25  and  C_26
REMARK   13  A    between atoms: C_28  and  O_39
REMARK   14  A    between atoms: C_29  and  O_38
REMARK   15  A    between atoms: C_31  and  O_37
REMARK   16  A    between atoms: C_33  and  C_35
REMARK   17  A    between atoms: C_35  and  O_36
REMARK   18  A    between atoms: O_41  and  C_42
REMARK   19  A    between atoms: C_44  and  O_52
REMARK   20  A    between atoms: C_45  and  O_51
REMARK   21  A    between atoms: C_47  and  O_50
REMARK   22  A    between atoms: C_56  and  O_61
REMARK   23  A    between atoms: C_57  and  O_60
REMARK                            x       y       z     vdW  Elec       q    Type
REMARK                         _______ _______ _______ _____ _____    ______ ____
ROOT
ATOM      1  C   UNL     1       5.725  -2.554  23.376  0.00  0.00    +0.340 C 
ATOM      2  O   UNL     1       4.442  -3.234  23.261  0.00  0.00    -0.331 OA
ATOM      3  C   UNL     1       4.277  -4.626  23.627  0.00  0.00    +0.179 C 
ATOM      4  C   UNL     1       5.401  -5.519  23.057  0.00  0.00    +0.177 C 
ATOM      5  C   UNL     1       6.712  -4.914  23.578  0.00  0.00    +0.187 C 
ATOM      6  C   UNL     1       6.743  -3.533  22.786  0.00  0.00    +0.214 C 
ENDROOT
BRANCH   6   7
ATOM      7  O   UNL     1       8.025  -2.939  22.638  0.00  0.00    -0.383 OA
ATOM      8  H   UNL     1       8.632  -3.470  23.196  0.00  0.00    +0.210 HD
ENDBRANCH   6   7
BRANCH   4   9
ATOM      9  O   UNL     1       5.256  -6.911  23.310  0.00  0.00    -0.386 OA
ATOM     10  H   UNL     1       6.114  -7.358  23.191  0.00  0.00    +0.210 HD
ENDBRANCH   4   9
BRANCH   5  11
ATOM     11  O   UNL     1       6.610  -4.776  25.042  0.00  0.00    -0.340 OA
BRANCH  11  12
ATOM     12  C   UNL     1       6.784  -5.961  25.863  0.00  0.00    +0.282 C 
ATOM     13  O   UNL     1       5.608  -6.767  26.027  0.00  0.00    -0.346 OA
ATOM     14  C   UNL     1       4.572  -6.309  26.912  0.00  0.00    +0.197 C 
ATOM     15  C   UNL     1       5.019  -5.744  28.256  0.00  0.00    +0.171 C 
ATOM     16  C   UNL     1       6.279  -4.899  28.121  0.00  0.00    +0.178 C 
ATOM     17  C   UNL     1       7.338  -5.603  27.271  0.00  0.00    +0.201 C 
BRANCH  17  18
ATOM     18  O   UNL     1       8.511  -4.789  27.166  0.00  0.00    -0.384 OA
ATOM     19  H   UNL     1       8.979  -4.850  28.029  0.00  0.00    +0.210 HD
ENDBRANCH  17  18
BRANCH  16  20
ATOM     20  O   UNL     1       5.979  -3.637  27.547  0.00  0.00    -0.386 OA
ATOM     21  H   UNL     1       5.389  -3.123  28.133  0.00  0.00    +0.210 HD
ENDBRANCH  16  20
BRANCH  15  22
ATOM     22  O   UNL     1       5.252  -6.794  29.199  0.00  0.00    -0.387 OA
ATOM     23  H   UNL     1       4.791  -6.595  30.032  0.00  0.00    +0.210 HD
ENDBRANCH  15  22
ENDBRANCH  11  12
ENDBRANCH   5  11
BRANCH   3  24
ATOM     24  C   UNL     1       2.913  -5.238  23.180  0.00  0.00    +0.197 C 
BRANCH  24  25
ATOM     25  O   UNL     1       2.523  -6.475  23.797  0.00  0.00    -0.346 OA
BRANCH  25  26
ATOM     26  C   UNL     1       1.113  -6.719  23.708  0.00  0.00    +0.282 C 
ATOM     27  O   UNL     1       0.480  -6.330  24.907  0.00  0.00    -0.341 OA
ATOM     28  C   UNL     1       1.050  -6.938  26.070  0.00  0.00    +0.178 C 
ATOM     29  C   UNL     1       0.670  -8.400  26.054  0.00  0.00    +0.177 C 
ATOM     30  C   UNL     1       1.279  -9.006  24.782  0.00  0.00    +0.179 C 
ATOM     31  C   UNL     1       0.828  -8.221  23.528  0.00  0.00    +0.201 C 
BRANCH  31  32
ATOM     32  O   UNL     1       1.469  -8.732  22.361  0.00  0.00    -0.384 OA
ATOM     33  H   UNL     1       2.166  -9.337  22.681  0.00  0.00    +0.210 HD
ENDBRANCH  31  32
BRANCH  30  34
ATOM     34  O   UNL     1       2.722  -8.983  24.898  0.00  0.00    -0.386 OA
ATOM     35  H   UNL     1       2.998  -9.822  25.324  0.00  0.00    +0.210 HD
ENDBRANCH  30  34
BRANCH  29  36
ATOM     36  O   UNL     1       1.144  -9.052  27.231  0.00  0.00    -0.386 OA
ATOM     37  H   UNL     1       1.843  -9.669  26.932  0.00  0.00    +0.210 HD
ENDBRANCH  29  36
BRANCH  28  38
ATOM     38  C   UNL     1       0.508  -6.197  27.251  0.00  0.00    +0.190 C 
BRANCH  38  39
ATOM     39  O   UNL     1       1.220  -6.241  28.465  0.00  0.00    -0.392 OA
ATOM     40  H   UNL     1       1.782  -5.446  28.495  0.00  0.00    +0.210 HD
ENDBRANCH  38  39
ENDBRANCH  28  38
ENDBRANCH  25  26
ENDBRANCH  24  25
ENDBRANCH   3  24
BRANCH   1  41
ATOM     41  O   UNL     1       6.254  -2.126  24.671  0.00  0.00    -0.453 OA
BRANCH  41  47
ATOM     42  C   UNL     1       4.461   1.552  29.612  0.00  0.00    +0.127 A 
ATOM     43  C   UNL     1       5.122   1.917  28.415  0.00  0.00    +0.092 A 
ATOM     44  C   UNL     1       5.365   0.961  27.412  0.00  0.00    +0.147 A 
ATOM     45  O   UNL     1       5.995   1.296  26.229  0.00  0.00    -0.451 OA
ATOM     46  C   UNL     1       6.370   0.255  25.325  0.00  0.00    +0.181 A 
ATOM     47  C   UNL     1       5.810  -0.986  25.361  0.00  0.00    +0.214 A 
ATOM     48  C   UNL     1       4.701  -1.106  26.354  0.00  0.00    +0.238 A 
ATOM     49  O   UNL     1       3.686  -1.747  26.127  0.00  0.00    -0.283 OA
ATOM     50  C   UNL     1       4.873  -0.316  27.598  0.00  0.00    +0.109 A 
ATOM     51  C   UNL     1       4.369  -0.717  28.841  0.00  0.00    +0.135 A 
ATOM     52  C   UNL     1       4.186   0.211  29.858  0.00  0.00    +0.092 A 
BRANCH  46  53
ATOM     53  C   UNL     1       7.389   0.715  24.321  0.00  0.00    +0.025 A 
ATOM     54  C   UNL     1       7.036   0.948  22.972  0.00  0.00    +0.015 A 
ATOM     55  C   UNL     1       7.972   1.393  22.013  0.00  0.00    +0.050 A 
ATOM     56  C   UNL     1       9.277   1.635  22.393  0.00  0.00    +0.158 A 
ATOM     57  C   UNL     1       9.655   1.402  23.700  0.00  0.00    +0.159 A 
ATOM     58  C   UNL     1       8.737   0.928  24.642  0.00  0.00    +0.060 A 
BRANCH  57  59
ATOM     59  O   UNL     1      10.936   1.723  24.071  0.00  0.00    -0.503 OA
ATOM     60  H   UNL     1      11.479   1.543  23.272  0.00  0.00    +0.292 HD
ENDBRANCH  57  59
BRANCH  56  61
ATOM     61  O   UNL     1      10.176   2.136  21.497  0.00  0.00    -0.503 OA
ATOM     62  H   UNL     1       9.630   2.392  20.724  0.00  0.00    +0.292 HD
ENDBRANCH  56  61
ENDBRANCH  46  53
BRANCH  51  63
ATOM     63  O   UNL     1       4.032  -2.018  29.091  0.00  0.00    -0.506 OA
ATOM     64  H   UNL     1       4.749  -2.470  29.564  0.00  0.00    +0.292 HD
ENDBRANCH  51  63
BRANCH  42  66
ATOM     65  C   UNL     1       3.339   3.641  29.900  0.00  0.00    +0.277 C 
ATOM     66  O   UNL     1       4.098   2.564  30.468  0.00  0.00    -0.495 OA
ENDBRANCH  42  66
ENDBRANCH  41  47
ENDBRANCH   1  41
TORSDOF 22
ENDMDL
MODEL 4
REMARK VINA RESULT:      -6.8      2.555      6.318
REMARK  Name = 
REMARK  23 active torsions:
REMARK  status: ('A' for Active; 'I' for Inactive)
REMARK    1  A    between atoms: C_1  and  O_2
REMARK    2  A    between atoms: O_2  and  C_3
REMARK    3  A    between atoms: C_5  and  O_62
REMARK    4  A    between atoms: C_10  and  C_54
REMARK    5  A    between atoms: C_11  and  O_14
REMARK    6  A    between atoms: O_14  and  C_15
REMARK    7  A    between atoms: C_17  and  O_53
REMARK    8  A    between atoms: C_18  and  O_41
REMARK    9  A    between atoms: C_20  and  O_40
REMARK   10  A    between atoms: C_22  and  C_24
REMARK   11  A    between atoms: C_24  and  O_25
REMARK   12  A    between atoms: O_25  and  C_26
REMARK   13  A    between atoms: C_28  and  O_39
REMARK   14  A    between atoms: C_29  and  O_38
REMARK   15  A    between atoms: C_31  and  O_37
REMARK   16  A    between atoms: C_33  and  C_35
REMARK   17  A    between atoms: C_35  and  O_36
REMARK   18  A    between atoms: O_41  and  C_42
REMARK   19  A    between atoms: C_44  and  O_52
REMARK   20  A    between atoms: C_45  and  O_51
REMARK   21  A    between atoms: C_47  and  O_50
REMARK   22  A    between atoms: C_56  and  O_61
REMARK   23  A    between atoms: C_57  and  O_60
REMARK                            x       y       z     vdW  Elec       q    Type
REMARK                         _______ _______ _______ _____ _____    ______ ____
ROOT
ATOM      1  C   UNL     1       6.786   0.554  26.892  0.00  0.00    +0.340 C 
ATOM      2  O   UNL     1       6.007  -0.640  27.186  0.00  0.00    -0.331 OA
ATOM      3  C   UNL     1       4.708  -0.569  27.827  0.00  0.00    +0.179 C 
ATOM      4  C   UNL     1       4.708   0.377  29.047  0.00  0.00    +0.177 C 
ATOM      5  C   UNL     1       5.189   1.734  28.517  0.00  0.00    +0.187 C 
ATOM      6  C   UNL     1       6.706   1.401  28.165  0.00  0.00    +0.214 C 
ENDROOT
BRANCH   6   7
ATOM      7  O   UNL     1       7.584   2.516  28.116  0.00  0.00    -0.383 OA
ATOM      8  H   UNL     1       7.142   3.181  27.548  0.00  0.00    +0.210 HD
ENDBRANCH   6   7
BRANCH   4   9
ATOM      9  O   UNL     1       3.485   0.430  29.771  0.00  0.00    -0.386 OA
ATOM     10  H   UNL     1       3.033   1.276  29.592  0.00  0.00    +0.210 HD
ENDBRANCH   4   9
BRANCH   5  11
ATOM     11  O   UNL     1       4.358   2.100  27.355  0.00  0.00    -0.340 OA
BRANCH  11  12
ATOM     12  C   UNL     1       3.262   3.030  27.553  0.00  0.00    +0.282 C 
ATOM     13  O   UNL     1       1.958   2.431  27.604  0.00  0.00    -0.346 OA
ATOM     14  C   UNL     1       1.353   1.982  26.381  0.00  0.00    +0.197 C 
ATOM     15  C   UNL     1       1.460   2.916  25.180  0.00  0.00    +0.171 C 
ATOM     16  C   UNL     1       2.827   3.584  25.107  0.00  0.00    +0.178 C 
ATOM     17  C   UNL     1       3.252   4.141  26.466  0.00  0.00    +0.201 C 
BRANCH  17  18
ATOM     18  O   UNL     1       4.535   4.768  26.366  0.00  0.00    -0.384 OA
ATOM     19  H   UNL     1       5.038   4.281  25.676  0.00  0.00    +0.210 HD
ENDBRANCH  17  18
BRANCH  16  20
ATOM     20  O   UNL     1       3.810   2.672  24.646  0.00  0.00    -0.386 OA
ATOM     21  H   UNL     1       3.545   1.751  24.843  0.00  0.00    +0.210 HD
ENDBRANCH  16  20
BRANCH  15  22
ATOM     22  O   UNL     1       0.443   3.920  25.222  0.00  0.00    -0.387 OA
ATOM     23  H   UNL     1       0.596   4.510  25.980  0.00  0.00    +0.210 HD
ENDBRANCH  15  22
ENDBRANCH  11  12
ENDBRANCH   5  11
BRANCH   3  24
ATOM     24  C   UNL     1       4.162  -1.952  28.298  0.00  0.00    +0.197 C 
BRANCH  24  25
ATOM     25  O   UNL     1       3.966  -2.952  27.285  0.00  0.00    -0.346 OA
BRANCH  25  26
ATOM     26  C   UNL     1       4.035  -4.287  27.802  0.00  0.00    +0.282 C 
ATOM     27  O   UNL     1       5.380  -4.699  27.895  0.00  0.00    -0.341 OA
ATOM     28  C   UNL     1       6.097  -4.571  26.663  0.00  0.00    +0.178 C 
ATOM     29  C   UNL     1       5.579  -5.632  25.721  0.00  0.00    +0.177 C 
ATOM     30  C   UNL     1       4.087  -5.346  25.503  0.00  0.00    +0.179 C 
ATOM     31  C   UNL     1       3.336  -5.278  26.854  0.00  0.00    +0.201 C 
BRANCH  31  32
ATOM     32  O   UNL     1       1.970  -4.922  26.649  0.00  0.00    -0.384 OA
ATOM     33  H   UNL     1       1.741  -5.242  25.755  0.00  0.00    +0.210 HD
ENDBRANCH  31  32
BRANCH  30  34
ATOM     34  O   UNL     1       3.951  -4.095  24.788  0.00  0.00    -0.386 OA
ATOM     35  H   UNL     1       4.290  -4.235  23.878  0.00  0.00    +0.210 HD
ENDBRANCH  30  34
BRANCH  29  36
ATOM     36  O   UNL     1       6.308  -5.610  24.495  0.00  0.00    -0.386 OA
ATOM     37  H   UNL     1       7.150  -5.153  24.692  0.00  0.00    +0.210 HD
ENDBRANCH  29  36
BRANCH  28  38
ATOM     38  C   UNL     1       7.548  -4.726  26.993  0.00  0.00    +0.190 C 
BRANCH  38  39
ATOM     39  O   UNL     1       8.228  -5.871  26.536  0.00  0.00    -0.392 OA
ATOM     40  H   UNL     1       8.750  -5.602  25.759  0.00  0.00    +0.210 HD
ENDBRANCH  38  39
ENDBRANCH  28  38
ENDBRANCH  25  26
ENDBRANCH  24  25
ENDBRANCH   3  24
BRANCH   1  41
ATOM     41  O   UNL     1       6.446   1.438  25.777  0.00  0.00    -0.453 OA
BRANCH  41  47
ATOM     42  C   UNL     1      11.090   5.329  23.669  0.00  0.00    +0.127 A 
ATOM     43  C   UNL     1      10.841   3.974  23.346  0.00  0.00    +0.092 A 
ATOM     44  C   UNL     1       9.714   3.311  23.867  0.00  0.00    +0.147 A 
ATOM     45  O   UNL     1       9.440   1.994  23.555  0.00  0.00    -0.451 OA
ATOM     46  C   UNL     1       8.386   1.323  24.248  0.00  0.00    +0.181 A 
ATOM     47  C   UNL     1       7.392   1.991  24.899  0.00  0.00    +0.214 A 
ATOM     48  C   UNL     1       7.459   3.472  24.718  0.00  0.00    +0.238 A 
ATOM     49  O   UNL     1       6.459   4.159  24.572  0.00  0.00    -0.283 OA
ATOM     50  C   UNL     1       8.827   4.041  24.635  0.00  0.00    +0.109 A 
ATOM     51  C   UNL     1       9.156   5.325  25.087  0.00  0.00    +0.135 A 
ATOM     52  C   UNL     1      10.301   5.961  24.624  0.00  0.00    +0.092 A 
BRANCH  46  53
ATOM     53  C   UNL     1       8.480  -0.171  24.115  0.00  0.00    +0.025 A 
ATOM     54  C   UNL     1       9.671  -0.862  24.436  0.00  0.00    +0.015 A 
ATOM     55  C   UNL     1       9.780  -2.266  24.332  0.00  0.00    +0.050 A 
ATOM     56  C   UNL     1       8.689  -3.008  23.924  0.00  0.00    +0.158 A 
ATOM     57  C   UNL     1       7.517  -2.359  23.589  0.00  0.00    +0.159 A 
ATOM     58  C   UNL     1       7.420  -0.967  23.658  0.00  0.00    +0.060 A 
BRANCH  57  59
ATOM     59  O   UNL     1       6.425  -3.122  23.262  0.00  0.00    -0.503 OA
ATOM     60  H   UNL     1       6.240  -2.900  22.323  0.00  0.00    +0.292 HD
ENDBRANCH  57  59
BRANCH  56  61
ATOM     61  O   UNL     1       8.754  -4.370  23.890  0.00  0.00    -0.503 OA
ATOM     62  H   UNL     1       9.713  -4.566  23.845  0.00  0.00    +0.292 HD
ENDBRANCH  56  61
ENDBRANCH  46  53
BRANCH  51  63
ATOM     63  O   UNL     1       8.366   5.995  25.978  0.00  0.00    -0.506 OA
ATOM     64  H   UNL     1       8.880   6.250  26.762  0.00  0.00    +0.292 HD
ENDBRANCH  51  63
BRANCH  42  66
ATOM     65  C   UNL     1      13.304   5.209  22.778  0.00  0.00    +0.277 C 
ATOM     66  O   UNL     1      12.102   5.965  22.989  0.00  0.00    -0.495 OA
ENDBRANCH  42  66
ENDBRANCH  41  47
ENDBRANCH   1  41
TORSDOF 22
ENDMDL
MODEL 5
REMARK VINA RESULT:      -6.8      1.600      2.020
REMARK  Name = 
REMARK  23 active torsions:
REMARK  status: ('A' for Active; 'I' for Inactive)
REMARK    1  A    between atoms: C_1  and  O_2
REMARK    2  A    between atoms: O_2  and  C_3
REMARK    3  A    between atoms: C_5  and  O_62
REMARK    4  A    between atoms: C_10  and  C_54
REMARK    5  A    between atoms: C_11  and  O_14
REMARK    6  A    between atoms: O_14  and  C_15
REMARK    7  A    between atoms: C_17  and  O_53
REMARK    8  A    between atoms: C_18  and  O_41
REMARK    9  A    between atoms: C_20  and  O_40
REMARK   10  A    between atoms: C_22  and  C_24
REMARK   11  A    between atoms: C_24  and  O_25
REMARK   12  A    between atoms: O_25  and  C_26
REMARK   13  A    between atoms: C_28  and  O_39
REMARK   14  A    between atoms: C_29  and  O_38
REMARK   15  A    between atoms: C_31  and  O_37
REMARK   16  A    between atoms: C_33  and  C_35
REMARK   17  A    between atoms: C_35  and  O_36
REMARK   18  A    between atoms: O_41  and  C_42
REMARK   19  A    between atoms: C_44  and  O_52
REMARK   20  A    between atoms: C_45  and  O_51
REMARK   21  A    between atoms: C_47  and  O_50
REMARK   22  A    between atoms: C_56  and  O_61
REMARK   23  A    between atoms: C_57  and  O_60
REMARK                            x       y       z     vdW  Elec       q    Type
REMARK                         _______ _______ _______ _____ _____    ______ ____
ROOT
ATOM      1  C   UNL     1       5.894  -2.176  23.560  0.00  0.00    +0.340 C 
ATOM      2  O   UNL     1       4.539  -2.703  23.644  0.00  0.00    -0.331 OA
ATOM      3  C   UNL     1       4.275  -4.099  23.929  0.00  0.00    +0.179 C 
ATOM      4  C   UNL     1       5.160  -5.046  23.089  0.00  0.00    +0.177 C 
ATOM      5  C   UNL     1       6.607  -4.635  23.392  0.00  0.00    +0.187 C 
ATOM      6  C   UNL     1       6.661  -3.195  22.714  0.00  0.00    +0.214 C 
ENDROOT
BRANCH   6   7
ATOM      7  O   UNL     1       7.957  -2.729  22.367  0.00  0.00    -0.383 OA
ATOM      8  H   UNL     1       7.816  -1.966  21.768  0.00  0.00    +0.210 HD
ENDBRANCH   6   7
BRANCH   4   9
ATOM      9  O   UNL     1       4.895  -6.433  23.261  0.00  0.00    -0.386 OA
ATOM     10  H   UNL     1       4.314  -6.563  24.034  0.00  0.00    +0.210 HD
ENDBRANCH   4   9
BRANCH   5  11
ATOM     11  O   UNL     1       6.792  -4.629  24.855  0.00  0.00    -0.340 OA
BRANCH  11  12
ATOM     12  C   UNL     1       7.065  -5.888  25.523  0.00  0.00    +0.282 C 
ATOM     13  O   UNL     1       5.924  -6.740  25.708  0.00  0.00    -0.346 OA
ATOM     14  C   UNL     1       4.969  -6.408  26.728  0.00  0.00    +0.197 C 
ATOM     15  C   UNL     1       5.530  -5.975  28.079  0.00  0.00    +0.171 C 
ATOM     16  C   UNL     1       6.756  -5.085  27.920  0.00  0.00    +0.178 C 
ATOM     17  C   UNL     1       7.743  -5.665  26.905  0.00  0.00    +0.201 C 
BRANCH  17  18
ATOM     18  O   UNL     1       8.885  -4.812  26.781  0.00  0.00    -0.384 OA
ATOM     19  H   UNL     1       9.636  -5.273  27.217  0.00  0.00    +0.210 HD
ENDBRANCH  17  18
BRANCH  16  20
ATOM     20  O   UNL     1       6.380  -3.778  27.515  0.00  0.00    -0.386 OA
ATOM     21  H   UNL     1       6.339  -3.718  26.539  0.00  0.00    +0.210 HD
ENDBRANCH  16  20
BRANCH  15  22
ATOM     22  O   UNL     1       5.871  -7.112  28.877  0.00  0.00    -0.387 OA
ATOM     23  H   UNL     1       6.612  -7.590  28.467  0.00  0.00    +0.210 HD
ENDBRANCH  15  22
ENDBRANCH  11  12
ENDBRANCH   5  11
BRANCH   3  24
ATOM     24  C   UNL     1       2.789  -4.517  23.709  0.00  0.00    +0.197 C 
BRANCH  24  25
ATOM     25  O   UNL     1       2.412  -5.832  24.149  0.00  0.00    -0.346 OA
BRANCH  25  26
ATOM     26  C   UNL     1       0.992  -6.014  24.201  0.00  0.00    +0.282 C 
ATOM     27  O   UNL     1       0.592  -6.318  25.519  0.00  0.00    -0.341 OA
ATOM     28  C   UNL     1       1.290  -7.436  26.077  0.00  0.00    +0.178 C 
ATOM     29  C   UNL     1       0.795  -8.679  25.377  0.00  0.00    +0.177 C 
ATOM     30  C   UNL     1       1.141  -8.522  23.890  0.00  0.00    +0.179 C 
ATOM     31  C   UNL     1       0.560  -7.205  23.326  0.00  0.00    +0.201 C 
BRANCH  31  32
ATOM     32  O   UNL     1       0.962  -7.022  21.970  0.00  0.00    -0.384 OA
ATOM     33  H   UNL     1       0.814  -6.078  21.771  0.00  0.00    +0.210 HD
ENDBRANCH  31  32
BRANCH  30  34
ATOM     34  O   UNL     1       2.581  -8.542  23.741  0.00  0.00    -0.386 OA
ATOM     35  H   UNL     1       2.970  -8.644  24.636  0.00  0.00    +0.210 HD
ENDBRANCH  30  34
BRANCH  29  36
ATOM     36  O   UNL     1       1.397  -9.843  25.942  0.00  0.00    -0.386 OA
ATOM     37  H   UNL     1       2.309  -9.583  26.182  0.00  0.00    +0.210 HD
ENDBRANCH  29  36
BRANCH  28  38
ATOM     38  C   UNL     1       1.006  -7.428  27.546  0.00  0.00    +0.190 C 
BRANCH  38  39
ATOM     39  O   UNL     1       1.828  -8.189  28.399  0.00  0.00    -0.392 OA
ATOM     40  H   UNL     1       1.257  -8.541  29.107  0.00  0.00    +0.210 HD
ENDBRANCH  38  39
ENDBRANCH  28  38
ENDBRANCH  25  26
ENDBRANCH  24  25
ENDBRANCH   3  24
BRANCH   1  41
ATOM     41  O   UNL     1       6.698  -1.933  24.757  0.00  0.00    -0.453 OA
BRANCH  41  47
ATOM     42  C   UNL     1      10.104   3.365  23.533  0.00  0.00    +0.127 A 
ATOM     43  C   UNL     1       9.139   3.132  24.542  0.00  0.00    +0.092 A 
ATOM     44  C   UNL     1       8.550   1.863  24.688  0.00  0.00    +0.147 A 
ATOM     45  O   UNL     1       7.618   1.606  25.675  0.00  0.00    -0.451 OA
ATOM     46  C   UNL     1       6.927   0.355  25.667  0.00  0.00    +0.181 A 
ATOM     47  C   UNL     1       7.397  -0.739  25.003  0.00  0.00    +0.214 A 
ATOM     48  C   UNL     1       8.742  -0.527  24.391  0.00  0.00    +0.238 A 
ATOM     49  O   UNL     1       9.602  -1.395  24.384  0.00  0.00    -0.283 OA
ATOM     50  C   UNL     1       8.997   0.840  23.873  0.00  0.00    +0.109 A 
ATOM     51  C   UNL     1       9.824   1.107  22.775  0.00  0.00    +0.135 A 
ATOM     52  C   UNL     1      10.358   2.375  22.589  0.00  0.00    +0.092 A 
BRANCH  46  53
ATOM     53  C   UNL     1       5.685   0.387  26.512  0.00  0.00    +0.025 A 
ATOM     54  C   UNL     1       4.610   1.250  26.202  0.00  0.00    +0.015 A 
ATOM     55  C   UNL     1       3.427   1.289  26.974  0.00  0.00    +0.050 A 
ATOM     56  C   UNL     1       3.292   0.446  28.059  0.00  0.00    +0.158 A 
ATOM     57  C   UNL     1       4.332  -0.397  28.395  0.00  0.00    +0.159 A 
ATOM     58  C   UNL     1       5.516  -0.411  27.653  0.00  0.00    +0.060 A 
BRANCH  57  59
ATOM     59  O   UNL     1       4.143  -1.279  29.428  0.00  0.00    -0.503 OA
ATOM     60  H   UNL     1       3.287  -1.012  29.829  0.00  0.00    +0.292 HD
ENDBRANCH  57  59
BRANCH  56  61
ATOM     61  O   UNL     1       2.127   0.417  28.770  0.00  0.00    -0.503 OA
ATOM     62  H   UNL     1       1.767  -0.479  28.609  0.00  0.00    +0.292 HD
ENDBRANCH  56  61
ENDBRANCH  46  53
BRANCH  51  63
ATOM     63  O   UNL     1      10.140   0.137  21.865  0.00  0.00    -0.506 OA
ATOM     64  H   UNL     1      10.966   0.359  21.406  0.00  0.00    +0.292 HD
ENDBRANCH  51  63
BRANCH  42  66
ATOM     65  C   UNL     1      10.010   5.705  23.999  0.00  0.00    +0.277 C 
ATOM     66  O   UNL     1      10.767   4.569  23.557  0.00  0.00    -0.495 OA
ENDBRANCH  42  66
ENDBRANCH  41  47
ENDBRANCH   1  41
TORSDOF 22
ENDMDL
MODEL 6
REMARK VINA RESULT:      -6.6      2.903      6.408
REMARK  Name = 
REMARK  23 active torsions:
REMARK  status: ('A' for Active; 'I' for Inactive)
REMARK    1  A    between atoms: C_1  and  O_2
REMARK    2  A    between atoms: O_2  and  C_3
REMARK    3  A    between atoms: C_5  and  O_62
REMARK    4  A    between atoms: C_10  and  C_54
REMARK    5  A    between atoms: C_11  and  O_14
REMARK    6  A    between atoms: O_14  and  C_15
REMARK    7  A    between atoms: C_17  and  O_53
REMARK    8  A    between atoms: C_18  and  O_41
REMARK    9  A    between atoms: C_20  and  O_40
REMARK   10  A    between atoms: C_22  and  C_24
REMARK   11  A    between atoms: C_24  and  O_25
REMARK   12  A    between atoms: O_25  and  C_26
REMARK   13  A    between atoms: C_28  and  O_39
REMARK   14  A    between atoms: C_29  and  O_38
REMARK   15  A    between atoms: C_31  and  O_37
REMARK   16  A    between atoms: C_33  and  C_35
REMARK   17  A    between atoms: C_35  and  O_36
REMARK   18  A    between atoms: O_41  and  C_42
REMARK   19  A    between atoms: C_44  and  O_52
REMARK   20  A    between atoms: C_45  and  O_51
REMARK   21  A    between atoms: C_47  and  O_50
REMARK   22  A    between atoms: C_56  and  O_61
REMARK   23  A    between atoms: C_57  and  O_60
REMARK                            x       y       z     vdW  Elec       q    Type
REMARK                         _______ _______ _______ _____ _____    ______ ____
ROOT
ATOM      1  C   UNL     1       6.653   0.958  25.890  0.00  0.00    +0.340 C 
ATOM      2  O   UNL     1       6.118  -0.395  25.860  0.00  0.00    -0.331 OA
ATOM      3  C   UNL     1       4.692  -0.656  25.864  0.00  0.00    +0.179 C 
ATOM      4  C   UNL     1       3.946   0.184  26.923  0.00  0.00    +0.177 C 
ATOM      5  C   UNL     1       4.287   1.646  26.605  0.00  0.00    +0.187 C 
ATOM      6  C   UNL     1       5.838   1.680  26.966  0.00  0.00    +0.214 C 
ENDROOT
BRANCH   6   7
ATOM      7  O   UNL     1       6.370   2.962  27.263  0.00  0.00    -0.383 OA
ATOM      8  H   UNL     1       6.685   3.327  26.410  0.00  0.00    +0.210 HD
ENDBRANCH   6   7
BRANCH   4   9
ATOM      9  O   UNL     1       2.554  -0.083  27.036  0.00  0.00    -0.386 OA
ATOM     10  H   UNL     1       2.045   0.682  26.708  0.00  0.00    +0.210 HD
ENDBRANCH   4   9
BRANCH   5  11
ATOM     11  O   UNL     1       3.985   1.894  25.184  0.00  0.00    -0.340 OA
BRANCH  11  12
ATOM     12  C   UNL     1       3.853   3.268  24.733  0.00  0.00    +0.282 C 
ATOM     13  O   UNL     1       3.853   4.254  25.777  0.00  0.00    -0.346 OA
ATOM     14  C   UNL     1       2.675   4.408  26.585  0.00  0.00    +0.197 C 
ATOM     15  C   UNL     1       1.337   4.413  25.852  0.00  0.00    +0.171 C 
ATOM     16  C   UNL     1       1.310   3.390  24.723  0.00  0.00    +0.178 C 
ATOM     17  C   UNL     1       2.576   3.465  23.869  0.00  0.00    +0.201 C 
BRANCH  17  18
ATOM     18  O   UNL     1       2.521   2.499  22.814  0.00  0.00    -0.384 OA
ATOM     19  H   UNL     1       3.164   2.788  22.128  0.00  0.00    +0.210 HD
ENDBRANCH  17  18
BRANCH  16  20
ATOM     20  O   UNL     1       1.168   2.076  25.237  0.00  0.00    -0.386 OA
ATOM     21  H   UNL     1       1.782   1.930  25.984  0.00  0.00    +0.210 HD
ENDBRANCH  16  20
BRANCH  15  22
ATOM     22  O   UNL     1       1.050   5.710  25.323  0.00  0.00    -0.387 OA
ATOM     23  H   UNL     1       1.881   6.180  25.137  0.00  0.00    +0.210 HD
ENDBRANCH  15  22
ENDBRANCH  11  12
ENDBRANCH   5  11
BRANCH   3  24
ATOM     24  C   UNL     1       4.326  -2.154  26.102  0.00  0.00    +0.197 C 
BRANCH  24  25
ATOM     25  O   UNL     1       4.642  -3.075  25.045  0.00  0.00    -0.346 OA
BRANCH  25  26
ATOM     26  C   UNL     1       5.805  -3.864  25.326  0.00  0.00    +0.282 C 
ATOM     27  O   UNL     1       6.218  -4.546  24.163  0.00  0.00    -0.341 OA
ATOM     28  C   UNL     1       5.178  -5.328  23.567  0.00  0.00    +0.178 C 
ATOM     29  C   UNL     1       4.925  -6.513  24.469  0.00  0.00    +0.177 C 
ATOM     30  C   UNL     1       4.464  -5.953  25.822  0.00  0.00    +0.179 C 
ATOM     31  C   UNL     1       5.494  -4.943  26.379  0.00  0.00    +0.201 C 
BRANCH  31  32
ATOM     32  O   UNL     1       5.016  -4.360  27.591  0.00  0.00    -0.384 OA
ATOM     33  H   UNL     1       4.902  -5.099  28.218  0.00  0.00    +0.210 HD
ENDBRANCH  31  32
BRANCH  30  34
ATOM     34  O   UNL     1       3.175  -5.317  25.650  0.00  0.00    -0.386 OA
ATOM     35  H   UNL     1       3.308  -4.530  25.080  0.00  0.00    +0.210 HD
ENDBRANCH  30  34
BRANCH  29  36
ATOM     36  O   UNL     1       3.948  -7.379  23.894  0.00  0.00    -0.386 OA
ATOM     37  H   UNL     1       3.388  -6.812  23.327  0.00  0.00    +0.210 HD
ENDBRANCH  29  36
BRANCH  28  38
ATOM     38  C   UNL     1       5.658  -5.713  22.203  0.00  0.00    +0.190 C 
BRANCH  38  39
ATOM     39  O   UNL     1       5.605  -4.756  21.172  0.00  0.00    -0.392 OA
ATOM     40  H   UNL     1       4.695  -4.760  20.824  0.00  0.00    +0.210 HD
ENDBRANCH  38  39
ENDBRANCH  28  38
ENDBRANCH  25  26
ENDBRANCH  24  25
ENDBRANCH   3  24
BRANCH   1  41
ATOM     41  O   UNL     1       6.641   1.816  24.706  0.00  0.00    -0.453 OA
BRANCH  41  47
ATOM     42  C   UNL     1      11.808   5.459  23.616  0.00  0.00    +0.127 A 
ATOM     43  C   UNL     1      11.599   4.089  23.328  0.00  0.00    +0.092 A 
ATOM     44  C   UNL     1      10.354   3.487  23.584  0.00  0.00    +0.147 A 
ATOM     45  O   UNL     1      10.120   2.156  23.297  0.00  0.00    -0.451 OA
ATOM     46  C   UNL     1       8.901   1.556  23.737  0.00  0.00    +0.181 A 
ATOM     47  C   UNL     1       7.799   2.287  24.067  0.00  0.00    +0.214 A 
ATOM     48  C   UNL     1       7.964   3.750  23.814  0.00  0.00    +0.238 A 
ATOM     49  O   UNL     1       7.060   4.443  23.372  0.00  0.00    -0.283 OA
ATOM     50  C   UNL     1       9.327   4.286  24.049  0.00  0.00    +0.109 A 
ATOM     51  C   UNL     1       9.577   5.593  24.487  0.00  0.00    +0.135 A 
ATOM     52  C   UNL     1      10.824   6.172  24.294  0.00  0.00    +0.092 A 
BRANCH  46  53
ATOM     53  C   UNL     1       8.971   0.055  23.730  0.00  0.00    +0.025 A 
ATOM     54  C   UNL     1       9.766  -0.647  24.664  0.00  0.00    +0.015 A 
ATOM     55  C   UNL     1       9.839  -2.058  24.685  0.00  0.00    +0.050 A 
ATOM     56  C   UNL     1       9.097  -2.793  23.783  0.00  0.00    +0.158 A 
ATOM     57  C   UNL     1       8.323  -2.135  22.848  0.00  0.00    +0.159 A 
ATOM     58  C   UNL     1       8.278  -0.739  22.804  0.00  0.00    +0.060 A 
BRANCH  57  59
ATOM     59  O   UNL     1       7.536  -2.887  22.013  0.00  0.00    -0.503 OA
ATOM     60  H   UNL     1       8.141  -3.176  21.295  0.00  0.00    +0.292 HD
ENDBRANCH  57  59
BRANCH  56  61
ATOM     61  O   UNL     1       9.097  -4.156  23.837  0.00  0.00    -0.503 OA
ATOM     62  H   UNL     1       9.463  -4.433  22.972  0.00  0.00    +0.292 HD
ENDBRANCH  56  61
ENDBRANCH  46  53
BRANCH  51  63
ATOM     63  O   UNL     1       8.610   6.339  25.100  0.00  0.00    -0.506 OA
ATOM     64  H   UNL     1       8.902   6.610  25.986  0.00  0.00    +0.292 HD
ENDBRANCH  51  63
BRANCH  42  66
ATOM     65  C   UNL     1      13.416   5.661  21.862  0.00  0.00    +0.277 C 
ATOM     66  O   UNL     1      12.982   6.025  23.180  0.00  0.00    -0.495 OA
ENDBRANCH  42  66
ENDBRANCH  41  47
ENDBRANCH   1  41
TORSDOF 22
ENDMDL
MODEL 7
REMARK VINA RESULT:      -6.5      2.295      5.659
REMARK  Name = 
REMARK  23 active torsions:
REMARK  status: ('A' for Active; 'I' for Inactive)
REMARK    1  A    between atoms: C_1  and  O_2
REMARK    2  A    between atoms: O_2  and  C_3
REMARK    3  A    between atoms: C_5  and  O_62
REMARK    4  A    between atoms: C_10  and  C_54
REMARK    5  A    between atoms: C_11  and  O_14
REMARK    6  A    between atoms: O_14  and  C_15
REMARK    7  A    between atoms: C_17  and  O_53
REMARK    8  A    between atoms: C_18  and  O_41
REMARK    9  A    between atoms: C_20  and  O_40
REMARK   10  A    between atoms: C_22  and  C_24
REMARK   11  A    between atoms: C_24  and  O_25
REMARK   12  A    between atoms: O_25  and  C_26
REMARK   13  A    between atoms: C_28  and  O_39
REMARK   14  A    between atoms: C_29  and  O_38
REMARK   15  A    between atoms: C_31  and  O_37
REMARK   16  A    between atoms: C_33  and  C_35
REMARK   17  A    between atoms: C_35  and  O_36
REMARK   18  A    between atoms: O_41  and  C_42
REMARK   19  A    between atoms: C_44  and  O_52
REMARK   20  A    between atoms: C_45  and  O_51
REMARK   21  A    between atoms: C_47  and  O_50
REMARK   22  A    between atoms: C_56  and  O_61
REMARK   23  A    between atoms: C_57  and  O_60
REMARK                            x       y       z     vdW  Elec       q    Type
REMARK                         _______ _______ _______ _____ _____    ______ ____
ROOT
ATOM      1  C   UNL     1       5.209  -1.746  25.321  0.00  0.00    +0.340 C 
ATOM      2  O   UNL     1       4.041  -2.608  25.202  0.00  0.00    -0.331 OA
ATOM      3  C   UNL     1       2.847  -2.394  25.995  0.00  0.00    +0.179 C 
ATOM      4  C   UNL     1       3.170  -2.142  27.485  0.00  0.00    +0.177 C 
ATOM      5  C   UNL     1       4.125  -0.941  27.502  0.00  0.00    +0.187 C 
ATOM      6  C   UNL     1       5.420  -1.575  26.827  0.00  0.00    +0.214 C 
ENDROOT
BRANCH   6   7
ATOM      7  O   UNL     1       6.646  -0.920  27.120  0.00  0.00    -0.383 OA
ATOM      8  H   UNL     1       7.293  -1.257  26.464  0.00  0.00    +0.210 HD
ENDBRANCH   6   7
BRANCH   4   9
ATOM      9  O   UNL     1       2.038  -2.005  28.334  0.00  0.00    -0.386 OA
ATOM     10  H   UNL     1       1.253  -2.387  27.900  0.00  0.00    +0.210 HD
ENDBRANCH   4   9
BRANCH   5  11
ATOM     11  O   UNL     1       3.508   0.154  26.732  0.00  0.00    -0.340 OA
BRANCH  11  12
ATOM     12  C   UNL     1       3.592   1.504  27.258  0.00  0.00    +0.282 C 
ATOM     13  O   UNL     1       3.199   1.648  28.631  0.00  0.00    -0.346 OA
ATOM     14  C   UNL     1       1.801   1.609  28.960  0.00  0.00    +0.197 C 
ATOM     15  C   UNL     1       0.861   2.400  28.055  0.00  0.00    +0.171 C 
ATOM     16  C   UNL     1       1.262   2.285  26.590  0.00  0.00    +0.178 C 
ATOM     17  C   UNL     1       2.764   2.503  26.401  0.00  0.00    +0.201 C 
BRANCH  17  18
ATOM     18  O   UNL     1       3.111   2.395  25.016  0.00  0.00    -0.384 OA
ATOM     19  H   UNL     1       2.308   2.637  24.501  0.00  0.00    +0.210 HD
ENDBRANCH  17  18
BRANCH  16  20
ATOM     20  O   UNL     1       0.903   1.016  26.067  0.00  0.00    -0.386 OA
ATOM     21  H   UNL     1       0.271   0.565  26.662  0.00  0.00    +0.210 HD
ENDBRANCH  16  20
BRANCH  15  22
ATOM     22  O   UNL     1       0.831   3.779  28.431  0.00  0.00    -0.387 OA
ATOM     23  H   UNL     1       1.112   4.330  27.680  0.00  0.00    +0.210 HD
ENDBRANCH  15  22
ENDBRANCH  11  12
ENDBRANCH   5  11
BRANCH   3  24
ATOM     24  C   UNL     1       1.824  -3.569  25.923  0.00  0.00    +0.197 C 
BRANCH  24  25
ATOM     25  O   UNL     1       1.600  -4.157  24.631  0.00  0.00    -0.346 OA
BRANCH  25  26
ATOM     26  C   UNL     1       0.987  -5.450  24.708  0.00  0.00    +0.282 C 
ATOM     27  O   UNL     1       1.653  -6.244  25.665  0.00  0.00    -0.341 OA
ATOM     28  C   UNL     1       3.063  -6.339  25.437  0.00  0.00    +0.178 C 
ATOM     29  C   UNL     1       3.270  -7.202  24.214  0.00  0.00    +0.177 C 
ATOM     30  C   UNL     1       2.586  -6.485  23.041  0.00  0.00    +0.179 C 
ATOM     31  C   UNL     1       1.102  -6.192  23.365  0.00  0.00    +0.201 C 
BRANCH  31  32
ATOM     32  O   UNL     1       0.499  -5.446  22.309  0.00  0.00    -0.384 OA
ATOM     33  H   UNL     1      -0.131  -4.836  22.738  0.00  0.00    +0.210 HD
ENDBRANCH  31  32
BRANCH  30  34
ATOM     34  O   UNL     1       3.296  -5.253  22.769  0.00  0.00    -0.386 OA
ATOM     35  H   UNL     1       2.879  -4.838  21.984  0.00  0.00    +0.210 HD
ENDBRANCH  30  34
BRANCH  29  36
ATOM     36  O   UNL     1       4.661  -7.402  23.974  0.00  0.00    -0.386 OA
ATOM     37  H   UNL     1       5.126  -6.754  24.541  0.00  0.00    +0.210 HD
ENDBRANCH  29  36
BRANCH  28  38
ATOM     38  C   UNL     1       3.660  -6.918  26.680  0.00  0.00    +0.190 C 
BRANCH  38  39
ATOM     39  O   UNL     1       5.046  -7.161  26.716  0.00  0.00    -0.392 OA
ATOM     40  H   UNL     1       5.453  -6.599  26.032  0.00  0.00    +0.210 HD
ENDBRANCH  38  39
ENDBRANCH  28  38
ENDBRANCH  25  26
ENDBRANCH  24  25
ENDBRANCH   3  24
BRANCH   1  41
ATOM     41  O   UNL     1       5.238  -0.407  24.737  0.00  0.00    -0.453 OA
BRANCH  41  47
ATOM     42  C   UNL     1      10.445   3.145  23.539  0.00  0.00    +0.127 A 
ATOM     43  C   UNL     1      10.112   1.853  23.066  0.00  0.00    +0.092 A 
ATOM     44  C   UNL     1       8.874   1.270  23.392  0.00  0.00    +0.147 A 
ATOM     45  O   UNL     1       8.519   0.017  22.930  0.00  0.00    -0.451 OA
ATOM     46  C   UNL     1       7.330  -0.596  23.433  0.00  0.00    +0.181 A 
ATOM     47  C   UNL     1       6.331   0.116  24.026  0.00  0.00    +0.214 A 
ATOM     48  C   UNL     1       6.556   1.592  23.993  0.00  0.00    +0.238 A 
ATOM     49  O   UNL     1       5.650   2.388  23.799  0.00  0.00    -0.283 OA
ATOM     50  C   UNL     1       7.971   2.022  24.118  0.00  0.00    +0.109 A 
ATOM     51  C   UNL     1       8.360   3.225  24.722  0.00  0.00    +0.135 A 
ATOM     52  C   UNL     1       9.607   3.775  24.453  0.00  0.00    +0.092 A 
BRANCH  46  53
ATOM     53  C   UNL     1       7.301  -2.076  23.173  0.00  0.00    +0.025 A 
ATOM     54  C   UNL     1       8.089  -2.969  23.935  0.00  0.00    +0.015 A 
ATOM     55  C   UNL     1       8.069  -4.365  23.718  0.00  0.00    +0.050 A 
ATOM     56  C   UNL     1       7.241  -4.894  22.749  0.00  0.00    +0.158 A 
ATOM     57  C   UNL     1       6.472  -4.045  21.979  0.00  0.00    +0.159 A 
ATOM     58  C   UNL     1       6.518  -2.661  22.169  0.00  0.00    +0.060 A 
BRANCH  57  59
ATOM     59  O   UNL     1       5.601  -4.599  21.076  0.00  0.00    -0.503 OA
ATOM     60  H   UNL     1       4.740  -4.632  21.549  0.00  0.00    +0.292 HD
ENDBRANCH  57  59
BRANCH  56  61
ATOM     61  O   UNL     1       7.154  -6.245  22.577  0.00  0.00    -0.503 OA
ATOM     62  H   UNL     1       6.194  -6.434  22.627  0.00  0.00    +0.292 HD
ENDBRANCH  56  61
ENDBRANCH  46  53
BRANCH  51  63
ATOM     63  O   UNL     1       7.533   3.897  25.577  0.00  0.00    -0.506 OA
ATOM     64  H   UNL     1       7.940   3.973  26.454  0.00  0.00    +0.292 HD
ENDBRANCH  51  63
BRANCH  42  66
ATOM     65  C   UNL     1      11.842   5.079  23.444  0.00  0.00    +0.277 C 
ATOM     66  O   UNL     1      11.586   3.726  23.040  0.00  0.00    -0.495 OA
ENDBRANCH  42  66
ENDBRANCH  41  47
ENDBRANCH   1  41
TORSDOF 22
ENDMDL
MODEL 8
REMARK VINA RESULT:      -6.4      4.480      9.945
REMARK  Name = 
REMARK  23 active torsions:
REMARK  status: ('A' for Active; 'I' for Inactive)
REMARK    1  A    between atoms: C_1  and  O_2
REMARK    2  A    between atoms: O_2  and  C_3
REMARK    3  A    between atoms: C_5  and  O_62
REMARK    4  A    between atoms: C_10  and  C_54
REMARK    5  A    between atoms: C_11  and  O_14
REMARK    6  A    between atoms: O_14  and  C_15
REMARK    7  A    between atoms: C_17  and  O_53
REMARK    8  A    between atoms: C_18  and  O_41
REMARK    9  A    between atoms: C_20  and  O_40
REMARK   10  A    between atoms: C_22  and  C_24
REMARK   11  A    between atoms: C_24  and  O_25
REMARK   12  A    between atoms: O_25  and  C_26
REMARK   13  A    between atoms: C_28  and  O_39
REMARK   14  A    between atoms: C_29  and  O_38
REMARK   15  A    between atoms: C_31  and  O_37
REMARK   16  A    between atoms: C_33  and  C_35
REMARK   17  A    between atoms: C_35  and  O_36
REMARK   18  A    between atoms: O_41  and  C_42
REMARK   19  A    between atoms: C_44  and  O_52
REMARK   20  A    between atoms: C_45  and  O_51
REMARK   21  A    between atoms: C_47  and  O_50
REMARK   22  A    between atoms: C_56  and  O_61
REMARK   23  A    between atoms: C_57  and  O_60
REMARK                            x       y       z     vdW  Elec       q    Type
REMARK                         _______ _______ _______ _____ _____    ______ ____
ROOT
ATOM      1  C   UNL     1       4.374   1.553  26.217  0.00  0.00    +0.340 C 
ATOM      2  O   UNL     1       3.336   1.954  25.279  0.00  0.00    -0.331 OA
ATOM      3  C   UNL     1       3.542   3.016  24.314  0.00  0.00    +0.179 C 
ATOM      4  C   UNL     1       4.193   4.265  24.949  0.00  0.00    +0.177 C 
ATOM      5  C   UNL     1       5.498   3.772  25.587  0.00  0.00    +0.187 C 
ATOM      6  C   UNL     1       4.934   2.866  26.769  0.00  0.00    +0.214 C 
ENDROOT
BRANCH   6   7
ATOM      7  O   UNL     1       5.825   2.649  27.854  0.00  0.00    -0.383 OA
ATOM      8  H   UNL     1       5.701   1.713  28.119  0.00  0.00    +0.210 HD
ENDBRANCH   6   7
BRANCH   4   9
ATOM      9  O   UNL     1       4.350   5.376  24.075  0.00  0.00    -0.386 OA
ATOM     10  H   UNL     1       5.024   5.172  23.401  0.00  0.00    +0.210 HD
ENDBRANCH   4   9
BRANCH   5  11
ATOM     11  O   UNL     1       6.264   3.034  24.565  0.00  0.00    -0.340 OA
BRANCH  11  12
ATOM     12  C   UNL     1       7.687   3.294  24.445  0.00  0.00    +0.282 C 
ATOM     13  O   UNL     1       8.153   4.463  25.136  0.00  0.00    -0.346 OA
ATOM     14  C   UNL     1       7.871   5.757  24.577  0.00  0.00    +0.197 C 
ATOM     15  C   UNL     1       8.076   5.914  23.074  0.00  0.00    +0.171 C 
ATOM     16  C   UNL     1       7.609   4.680  22.311  0.00  0.00    +0.178 C 
ATOM     17  C   UNL     1       8.125   3.394  22.956  0.00  0.00    +0.201 C 
BRANCH  17  18
ATOM     18  O   UNL     1       7.677   2.253  22.216  0.00  0.00    -0.384 OA
ATOM     19  H   UNL     1       7.350   1.597  22.872  0.00  0.00    +0.210 HD
ENDBRANCH  17  18
BRANCH  16  20
ATOM     20  O   UNL     1       6.193   4.636  22.242  0.00  0.00    -0.386 OA
ATOM     21  H   UNL     1       5.825   5.535  22.129  0.00  0.00    +0.210 HD
ENDBRANCH  16  20
BRANCH  15  22
ATOM     22  O   UNL     1       9.450   6.168  22.769  0.00  0.00    -0.387 OA
ATOM     23  H   UNL     1       9.511   6.825  22.055  0.00  0.00    +0.210 HD
ENDBRANCH  15  22
ENDBRANCH  11  12
ENDBRANCH   5  11
BRANCH   3  24
ATOM     24  C   UNL     1       2.238   3.475  23.592  0.00  0.00    +0.197 C 
BRANCH  24  25
ATOM     25  O   UNL     1       2.397   4.294  22.423  0.00  0.00    -0.346 OA
BRANCH  25  26
ATOM     26  C   UNL     1       1.224   5.057  22.115  0.00  0.00    +0.282 C 
ATOM     27  O   UNL     1       0.802   4.783  20.798  0.00  0.00    -0.341 OA
ATOM     28  C   UNL     1       1.832   4.979  19.823  0.00  0.00    +0.178 C 
ATOM     29  C   UNL     1       2.068   6.467  19.701  0.00  0.00    +0.177 C 
ATOM     30  C   UNL     1       2.535   6.958  21.079  0.00  0.00    +0.179 C 
ATOM     31  C   UNL     1       1.519   6.566  22.177  0.00  0.00    +0.201 C 
BRANCH  31  32
ATOM     32  O   UNL     1       2.003   6.946  23.464  0.00  0.00    -0.384 OA
ATOM     33  H   UNL     1       2.410   7.825  23.349  0.00  0.00    +0.210 HD
ENDBRANCH  31  32
BRANCH  30  34
ATOM     34  O   UNL     1       3.833   6.383  21.364  0.00  0.00    -0.386 OA
ATOM     35  H   UNL     1       3.811   5.446  21.075  0.00  0.00    +0.210 HD
ENDBRANCH  30  34
BRANCH  29  36
ATOM     36  O   UNL     1       3.033   6.738  18.687  0.00  0.00    -0.386 OA
ATOM     37  H   UNL     1       3.898   6.480  19.064  0.00  0.00    +0.210 HD
ENDBRANCH  29  36
BRANCH  28  38
ATOM     38  C   UNL     1       1.348   4.350  18.555  0.00  0.00    +0.190 C 
BRANCH  38  39
ATOM     39  O   UNL     1       2.248   4.209  17.482  0.00  0.00    -0.392 OA
ATOM     40  H   UNL     1       2.558   5.103  17.249  0.00  0.00    +0.210 HD
ENDBRANCH  38  39
ENDBRANCH  28  38
ENDBRANCH  25  26
ENDBRANCH  24  25
ENDBRANCH   3  24
BRANCH   1  41
ATOM     41  O   UNL     1       5.521   0.750  25.797  0.00  0.00    -0.453 OA
BRANCH  41  47
ATOM     42  C   UNL     1       4.762  -4.958  28.627  0.00  0.00    +0.127 A 
ATOM     43  C   UNL     1       5.753  -4.536  27.709  0.00  0.00    +0.092 A 
ATOM     44  C   UNL     1       5.787  -3.205  27.254  0.00  0.00    +0.147 A 
ATOM     45  O   UNL     1       6.754  -2.766  26.371  0.00  0.00    -0.451 OA
ATOM     46  C   UNL     1       6.636  -1.457  25.810  0.00  0.00    +0.181 A 
ATOM     47  C   UNL     1       5.870  -0.481  26.376  0.00  0.00    +0.214 A 
ATOM     48  C   UNL     1       5.268  -0.885  27.681  0.00  0.00    +0.238 A 
ATOM     49  O   UNL     1       5.173  -0.113  28.624  0.00  0.00    -0.283 OA
ATOM     50  C   UNL     1       4.877  -2.312  27.787  0.00  0.00    +0.109 A 
ATOM     51  C   UNL     1       3.801  -2.761  28.562  0.00  0.00    +0.135 A 
ATOM     52  C   UNL     1       3.728  -4.089  28.962  0.00  0.00    +0.092 A 
BRANCH  46  53
ATOM     53  C   UNL     1       7.492  -1.284  24.587  0.00  0.00    +0.025 A 
ATOM     54  C   UNL     1       7.248  -2.029  23.411  0.00  0.00    +0.015 A 
ATOM     55  C   UNL     1       8.031  -1.875  22.245  0.00  0.00    +0.050 A 
ATOM     56  C   UNL     1       9.059  -0.954  22.229  0.00  0.00    +0.158 A 
ATOM     57  C   UNL     1       9.330  -0.223  23.368  0.00  0.00    +0.159 A 
ATOM     58  C   UNL     1       8.579  -0.400  24.533  0.00  0.00    +0.060 A 
BRANCH  57  59
ATOM     59  O   UNL     1      10.305   0.740  23.303  0.00  0.00    -0.503 OA
ATOM     60  H   UNL     1      10.965   0.383  22.668  0.00  0.00    +0.292 HD
ENDBRANCH  57  59
BRANCH  56  61
ATOM     61  O   UNL     1       9.776  -0.740  21.088  0.00  0.00    -0.503 OA
ATOM     62  H   UNL     1      10.651  -1.139  21.273  0.00  0.00    +0.292 HD
ENDBRANCH  56  61
ENDBRANCH  46  53
BRANCH  51  63
ATOM     63  O   UNL     1       2.802  -1.916  28.958  0.00  0.00    -0.506 OA
ATOM     64  H   UNL     1       2.999  -1.545  29.833  0.00  0.00    +0.292 HD
ENDBRANCH  51  63
BRANCH  42  66
ATOM     65  C   UNL     1       5.984  -6.412  30.075  0.00  0.00    +0.277 C 
ATOM     66  O   UNL     1       4.892  -6.216  29.165  0.00  0.00    -0.495 OA
ENDBRANCH  42  66
ENDBRANCH  41  47
ENDBRANCH   1  41
TORSDOF 22
ENDMDL
MODEL 9
REMARK VINA RESULT:      -6.4      2.400      5.750
REMARK  Name = 
REMARK  23 active torsions:
REMARK  status: ('A' for Active; 'I' for Inactive)
REMARK    1  A    between atoms: C_1  and  O_2
REMARK    2  A    between atoms: O_2  and  C_3
REMARK    3  A    between atoms: C_5  and  O_62
REMARK    4  A    between atoms: C_10  and  C_54
REMARK    5  A    between atoms: C_11  and  O_14
REMARK    6  A    between atoms: O_14  and  C_15
REMARK    7  A    between atoms: C_17  and  O_53
REMARK    8  A    between atoms: C_18  and  O_41
REMARK    9  A    between atoms: C_20  and  O_40
REMARK   10  A    between atoms: C_22  and  C_24
REMARK   11  A    between atoms: C_24  and  O_25
REMARK   12  A    between atoms: O_25  and  C_26
REMARK   13  A    between atoms: C_28  and  O_39
REMARK   14  A    between atoms: C_29  and  O_38
REMARK   15  A    between atoms: C_31  and  O_37
REMARK   16  A    between atoms: C_33  and  C_35
REMARK   17  A    between atoms: C_35  and  O_36
REMARK   18  A    between atoms: O_41  and  C_42
REMARK   19  A    between atoms: C_44  and  O_52
REMARK   20  A    between atoms: C_45  and  O_51
REMARK   21  A    between atoms: C_47  and  O_50
REMARK   22  A    between atoms: C_56  and  O_61
REMARK   23  A    between atoms: C_57  and  O_60
REMARK                            x       y       z     vdW  Elec       q    Type
REMARK                         _______ _______ _______ _____ _____    ______ ____
ROOT
ATOM      1  C   UNL     1       5.872  -0.850  25.736  0.00  0.00    +0.340 C 
ATOM      2  O   UNL     1       4.901  -1.932  25.650  0.00  0.00    -0.331 OA
ATOM      3  C   UNL     1       3.549  -1.790  26.154  0.00  0.00    +0.179 C 
ATOM      4  C   UNL     1       3.512  -1.156  27.561  0.00  0.00    +0.177 C 
ATOM      5  C   UNL     1       4.246   0.185  27.429  0.00  0.00    +0.187 C 
ATOM      6  C   UNL     1       5.735  -0.311  27.162  0.00  0.00    +0.214 C 
ENDROOT
BRANCH   6   7
ATOM      7  O   UNL     1       6.758   0.624  27.476  0.00  0.00    -0.383 OA
ATOM      8  H   UNL     1       6.297   1.439  27.764  0.00  0.00    +0.210 HD
ENDBRANCH   6   7
BRANCH   4   9
ATOM      9  O   UNL     1       2.220  -1.063  28.149  0.00  0.00    -0.386 OA
ATOM     10  H   UNL     1       1.812  -1.949  28.187  0.00  0.00    +0.210 HD
ENDBRANCH   4   9
BRANCH   5  11
ATOM     11  O   UNL     1       3.642   0.937  26.314  0.00  0.00    -0.340 OA
BRANCH  11  12
ATOM     12  C   UNL     1       2.649   1.950  26.619  0.00  0.00    +0.282 C 
ATOM     13  O   UNL     1       2.014   2.544  25.476  0.00  0.00    -0.346 OA
ATOM     14  C   UNL     1       2.748   3.501  24.694  0.00  0.00    +0.197 C 
ATOM     15  C   UNL     1       3.542   4.551  25.465  0.00  0.00    +0.171 C 
ATOM     16  C   UNL     1       4.213   3.958  26.697  0.00  0.00    +0.178 C 
ATOM     17  C   UNL     1       3.245   3.086  27.498  0.00  0.00    +0.201 C 
BRANCH  17  18
ATOM     18  O   UNL     1       3.900   2.548  28.651  0.00  0.00    -0.384 OA
ATOM     19  H   UNL     1       3.667   1.593  28.692  0.00  0.00    +0.210 HD
ENDBRANCH  17  18
BRANCH  16  20
ATOM     20  O   UNL     1       5.346   3.187  26.331  0.00  0.00    -0.386 OA
ATOM     21  H   UNL     1       5.467   2.437  26.948  0.00  0.00    +0.210 HD
ENDBRANCH  16  20
BRANCH  15  22
ATOM     22  O   UNL     1       2.700   5.638  25.861  0.00  0.00    -0.387 OA
ATOM     23  H   UNL     1       2.310   5.449  26.732  0.00  0.00    +0.210 HD
ENDBRANCH  15  22
ENDBRANCH  11  12
ENDBRANCH   5  11
BRANCH   3  24
ATOM     24  C   UNL     1       2.756  -3.132  26.216  0.00  0.00    +0.197 C 
BRANCH  24  25
ATOM     25  O   UNL     1       2.591  -3.847  24.980  0.00  0.00    -0.346 OA
BRANCH  25  26
ATOM     26  C   UNL     1       2.156  -5.198  25.174  0.00  0.00    +0.282 C 
ATOM     27  O   UNL     1       3.134  -5.923  25.886  0.00  0.00    -0.341 OA
ATOM     28  C   UNL     1       4.431  -5.865  25.282  0.00  0.00    +0.178 C 
ATOM     29  C   UNL     1       4.382  -6.693  24.019  0.00  0.00    +0.177 C 
ATOM     30  C   UNL     1       3.336  -6.045  23.101  0.00  0.00    +0.179 C 
ATOM     31  C   UNL     1       1.975  -5.915  23.824  0.00  0.00    +0.201 C 
BRANCH  31  32
ATOM     32  O   UNL     1       1.034  -5.231  22.999  0.00  0.00    -0.384 OA
ATOM     33  H   UNL     1       1.137  -5.609  22.104  0.00  0.00    +0.210 HD
ENDBRANCH  31  32
BRANCH  30  34
ATOM     34  O   UNL     1       3.816  -4.742  22.691  0.00  0.00    -0.386 OA
ATOM     35  H   UNL     1       3.157  -4.367  22.069  0.00  0.00    +0.210 HD
ENDBRANCH  30  34
BRANCH  29  36
ATOM     36  O   UNL     1       5.668  -6.741  23.404  0.00  0.00    -0.386 OA
ATOM     37  H   UNL     1       5.714  -7.605  22.947  0.00  0.00    +0.210 HD
ENDBRANCH  29  36
BRANCH  28  38
ATOM     38  C   UNL     1       5.400  -6.385  26.295  0.00  0.00    +0.190 C 
BRANCH  38  39
ATOM     39  O   UNL     1       6.747  -5.985  26.213  0.00  0.00    -0.392 OA
ATOM     40  H   UNL     1       7.278  -6.792  26.081  0.00  0.00    +0.210 HD
ENDBRANCH  38  39
ENDBRANCH  28  38
ENDBRANCH  25  26
ENDBRANCH  24  25
ENDBRANCH   3  24
BRANCH   1  41
ATOM     41  O   UNL     1       5.815   0.305  24.842  0.00  0.00    -0.453 OA
BRANCH  41  47
ATOM     42  C   UNL     1      10.813   4.121  23.569  0.00  0.00    +0.127 A 
ATOM     43  C   UNL     1      10.632   2.750  23.269  0.00  0.00    +0.092 A 
ATOM     44  C   UNL     1       9.419   2.106  23.573  0.00  0.00    +0.147 A 
ATOM     45  O   UNL     1       9.213   0.773  23.277  0.00  0.00    -0.451 OA
ATOM     46  C   UNL     1       8.034   0.129  23.764  0.00  0.00    +0.181 A 
ATOM     47  C   UNL     1       6.927   0.822  24.156  0.00  0.00    +0.214 A 
ATOM     48  C   UNL     1       7.036   2.292  23.920  0.00  0.00    +0.238 A 
ATOM     49  O   UNL     1       6.092   2.964  23.532  0.00  0.00    -0.283 OA
ATOM     50  C   UNL     1       8.392   2.866  24.098  0.00  0.00    +0.109 A 
ATOM     51  C   UNL     1       8.623   4.173  24.545  0.00  0.00    +0.135 A 
ATOM     52  C   UNL     1       9.842   4.794  24.303  0.00  0.00    +0.092 A 
BRANCH  46  53
ATOM     53  C   UNL     1       8.149  -1.369  23.729  0.00  0.00    +0.025 A 
ATOM     54  C   UNL     1       9.045  -2.056  24.580  0.00  0.00    +0.015 A 
ATOM     55  C   UNL     1       9.162  -3.463  24.574  0.00  0.00    +0.050 A 
ATOM     56  C   UNL     1       8.365  -4.211  23.731  0.00  0.00    +0.158 A 
ATOM     57  C   UNL     1       7.492  -3.568  22.877  0.00  0.00    +0.159 A 
ATOM     58  C   UNL     1       7.401  -2.173  22.857  0.00  0.00    +0.060 A 
BRANCH  57  59
ATOM     59  O   UNL     1       6.657  -4.335  22.105  0.00  0.00    -0.503 OA
ATOM     60  H   UNL     1       5.819  -3.823  22.061  0.00  0.00    +0.292 HD
ENDBRANCH  57  59
BRANCH  56  61
ATOM     61  O   UNL     1       8.412  -5.575  23.766  0.00  0.00    -0.503 OA
ATOM     62  H   UNL     1       7.819  -5.819  24.507  0.00  0.00    +0.292 HD
ENDBRANCH  56  61
ENDBRANCH  46  53
BRANCH  51  63
ATOM     63  O   UNL     1       7.665   4.880  25.215  0.00  0.00    -0.506 OA
ATOM     64  H   UNL     1       7.529   5.747  24.799  0.00  0.00    +0.292 HD
ENDBRANCH  51  63
BRANCH  42  66
ATOM     65  C   UNL     1      12.447   5.841  23.845  0.00  0.00    +0.277 C 
ATOM     66  O   UNL     1      11.947   4.730  23.087  0.00  0.00    -0.495 OA
ENDBRANCH  42  66
ENDBRANCH  41  47
ENDBRANCH   1  41
TORSDOF 22
ENDMDL
