MODEL 1
REMARK VINA RESULT:      -6.6      0.000      0.000
REMARK  Name = 
REMARK  16 active torsions:
REMARK  status: ('A' for Active; 'I' for Inactive)
REMARK    1  A    between atoms: C_3  and  O_47
REMARK    2  A    between atoms: C_6  and  C_7
REMARK    3  A    between atoms: C_8  and  C_9
REMARK    4  A    between atoms: C_9  and  O_11
REMARK    5  A    between atoms: O_11  and  C_12
REMARK    6  A    between atoms: C_13  and  O_46
REMARK    7  A    between atoms: C_15  and  O_24
REMARK    8  A    between atoms: C_18  and  C_22
REMARK    9  A    between atoms: C_19  and  O_21
REMARK   10  A    between atoms: C_22  and  O_23
REMARK   11  A    between atoms: O_24  and  C_25
REMARK   12  A    between atoms: C_26  and  C_38
REMARK   13  A    between atoms: C_30  and  O_37
REMARK   14  A    between atoms: C_32  and  O_36
REMARK   15  A    between atoms: C_40  and  O_45
REMARK   16  A    between atoms: C_41  and  O_44
REMARK                            x       y       z     vdW  Elec       q    Type
REMARK                         _______ _______ _______ _____ _____    ______ ____
ROOT
ATOM      1  C   UNL     1       7.162  -5.185  25.675  0.00  0.00    +0.242 C 
ATOM      2  C   UNL     1       5.962  -5.414  26.611  0.00  0.00    +0.189 C 
ATOM      3  C   UNL     1       5.119  -4.127  26.605  0.00  0.00    +0.180 C 
ATOM      4  O   UNL     1       5.918  -3.085  27.198  0.00  0.00    -0.331 OA
ATOM      5  C   UNL     1       7.089  -2.759  26.424  0.00  0.00    +0.341 C 
ATOM      6  C   UNL     1       7.992  -4.025  26.278  0.00  0.00    +0.226 C 
ENDROOT
BRANCH   6   7
ATOM      7  O   UNL     1       9.164  -3.750  25.493  0.00  0.00    -0.382 OA
ATOM      8  H   UNL     1       9.936  -4.099  25.980  0.00  0.00    +0.210 HD
ENDBRANCH   6   7
BRANCH   2   9
ATOM      9  O   UNL     1       5.252  -6.594  26.253  0.00  0.00    -0.385 OA
ATOM     10  H   UNL     1       5.577  -6.925  25.399  0.00  0.00    +0.210 HD
ENDBRANCH   2   9
BRANCH   5  11
ATOM     11  O   UNL     1       7.860  -1.745  27.096  0.00  0.00    -0.453 OA
BRANCH  11  12
ATOM     12  C   UNL     1       8.030  -0.516  26.462  0.00  0.00    +0.214 A 
ATOM     13  C   UNL     1       9.216  -0.236  25.572  0.00  0.00    +0.238 A 
ATOM     14  O   UNL     1      10.039  -1.101  25.296  0.00  0.00    -0.283 OA
ATOM     15  C   UNL     1       9.358   1.134  25.038  0.00  0.00    +0.109 A 
ATOM     16  C   UNL     1       8.292   2.007  25.214  0.00  0.00    +0.147 A 
ATOM     17  C   UNL     1       8.320   3.300  24.683  0.00  0.00    +0.092 A 
ATOM     18  C   UNL     1       9.444   3.727  23.995  0.00  0.00    +0.124 A 
ATOM     19  C   UNL     1      10.528   2.883  23.831  0.00  0.00    +0.091 A 
ATOM     20  O   UNL     1       7.174   1.678  25.917  0.00  0.00    -0.451 OA
ATOM     21  C   UNL     1      10.494   1.589  24.352  0.00  0.00    +0.135 A 
ATOM     22  C   UNL     1       7.111   0.471  26.595  0.00  0.00    +0.181 A 
BRANCH  22  23
ATOM     23  C   UNL     1       5.923   0.458  27.500  0.00  0.00    +0.025 A 
ATOM     24  C   UNL     1       6.091   0.759  28.875  0.00  0.00    +0.015 A 
ATOM     25  C   UNL     1       5.061   0.560  29.801  0.00  0.00    +0.050 A 
ATOM     26  C   UNL     1       3.849   0.065  29.360  0.00  0.00    +0.158 A 
ATOM     27  C   UNL     1       3.647  -0.203  28.008  0.00  0.00    +0.159 A 
ATOM     28  C   UNL     1       4.670  -0.018  27.080  0.00  0.00    +0.060 A 
BRANCH  27  29
ATOM     29  O   UNL     1       2.424  -0.690  27.632  0.00  0.00    -0.503 OA
ATOM     30  H   UNL     1       2.577  -1.365  26.945  0.00  0.00    +0.292 HD
ENDBRANCH  27  29
BRANCH  26  31
ATOM     31  O   UNL     1       2.861  -0.195  30.265  0.00  0.00    -0.503 OA
ATOM     32  H   UNL     1       2.097   0.327  29.949  0.00  0.00    +0.292 HD
ENDBRANCH  26  31
ENDBRANCH  22  23
BRANCH  21  33
ATOM     33  O   UNL     1      11.594   0.791  24.216  0.00  0.00    -0.506 OA
ATOM     34  H   UNL     1      11.485  -0.019  24.738  0.00  0.00    +0.292 HD
ENDBRANCH  21  33
BRANCH  18  35
ATOM     35  O   UNL     1       9.519   4.978  23.457  0.00  0.00    -0.507 OA
ATOM     36  H   UNL     1       8.818   5.079  22.790  0.00  0.00    +0.292 HD
ENDBRANCH  18  35
ENDBRANCH  11  12
ENDBRANCH   5  11
BRANCH   3  37
ATOM     37  C   UNL     1       3.807  -4.275  27.379  0.00  0.00    +0.190 C 
BRANCH  37  38
ATOM     38  O   UNL     1       2.798  -3.444  26.802  0.00  0.00    -0.392 OA
ATOM     39  H   UNL     1       2.633  -3.787  25.900  0.00  0.00    +0.210 HD
ENDBRANCH  37  38
ENDBRANCH   3  37
BRANCH   1  40
ATOM     40  O   UNL     1       6.641  -4.775  24.378  0.00  0.00    -0.453 OA
BRANCH  40  41
ATOM     41  C   UNL     1       7.499  -4.829  23.331  0.00  0.00    +0.332 C 
ATOM     42  O   UNL     1       8.342  -5.688  23.141  0.00  0.00    -0.246 OA
BRANCH  41  44
ATOM     43  C   UNL     1       8.359  -2.621  22.755  0.00  0.00    +0.015 C 
ATOM     44  C   UNL     1       7.383  -3.533  22.622  0.00  0.00    +0.092 C 
BRANCH  43  46
ATOM     45  C   UNL     1       9.282  -0.589  21.556  0.00  0.00    +0.011 A 
ATOM     46  C   UNL     1       8.277  -1.222  22.302  0.00  0.00    -0.025 A 
ATOM     47  C   UNL     1       7.136  -0.482  22.651  0.00  0.00    +0.011 A 
ATOM     48  C   UNL     1       7.000   0.853  22.259  0.00  0.00    +0.046 A 
ATOM     49  C   UNL     1       8.007   1.459  21.523  0.00  0.00    +0.117 A 
ATOM     50  C   UNL     1       9.147   0.748  21.163  0.00  0.00    +0.046 A 
BRANCH  49  51
ATOM     51  O   UNL     1       7.841   2.765  21.175  0.00  0.00    -0.507 OA
ATOM     52  H   UNL     1       7.282   2.809  20.382  0.00  0.00    +0.292 HD
ENDBRANCH  49  51
ENDBRANCH  43  46
ENDBRANCH  41  44
ENDBRANCH  40  41
ENDBRANCH   1  40
TORSDOF 16
ENDMDL
MODEL 2
REMARK VINA RESULT:      -6.4      2.910      7.287
REMARK  Name = 
REMARK  16 active torsions:
REMARK  status: ('A' for Active; 'I' for Inactive)
REMARK    1  A    between atoms: C_3  and  O_47
REMARK    2  A    between atoms: C_6  and  C_7
REMARK    3  A    between atoms: C_8  and  C_9
REMARK    4  A    between atoms: C_9  and  O_11
REMARK    5  A    between atoms: O_11  and  C_12
REMARK    6  A    between atoms: C_13  and  O_46
REMARK    7  A    between atoms: C_15  and  O_24
REMARK    8  A    between atoms: C_18  and  C_22
REMARK    9  A    between atoms: C_19  and  O_21
REMARK   10  A    between atoms: C_22  and  O_23
REMARK   11  A    between atoms: O_24  and  C_25
REMARK   12  A    between atoms: C_26  and  C_38
REMARK   13  A    between atoms: C_30  and  O_37
REMARK   14  A    between atoms: C_32  and  O_36
REMARK   15  A    between atoms: C_40  and  O_45
REMARK   16  A    between atoms: C_41  and  O_44
REMARK                            x       y       z     vdW  Elec       q    Type
REMARK                         _______ _______ _______ _____ _____    ______ ____
ROOT
ATOM      1  C   UNL     1       7.736  -1.005  24.428  0.00  0.00    +0.242 C 
ATOM      2  C   UNL     1       7.905  -0.570  22.961  0.00  0.00    +0.189 C 
ATOM      3  C   UNL     1       9.033   0.475  22.916  0.00  0.00    +0.180 C 
ATOM      4  O   UNL     1       8.580   1.632  23.645  0.00  0.00    -0.331 OA
ATOM      5  C   UNL     1       8.376   1.373  25.049  0.00  0.00    +0.341 C 
ATOM      6  C   UNL     1       7.305   0.250  25.226  0.00  0.00    +0.226 C 
ENDROOT
BRANCH   6   7
ATOM      7  O   UNL     1       7.086  -0.055  26.614  0.00  0.00    -0.382 OA
ATOM      8  H   UNL     1       6.240   0.356  26.878  0.00  0.00    +0.210 HD
ENDBRANCH   6   7
BRANCH   2   9
ATOM      9  O   UNL     1       8.099  -1.696  22.113  0.00  0.00    -0.385 OA
ATOM     10  H   UNL     1       8.825  -1.517  21.492  0.00  0.00    +0.210 HD
ENDBRANCH   2   9
BRANCH   5  11
ATOM     11  O   UNL     1       7.882   2.557  25.703  0.00  0.00    -0.453 OA
BRANCH  11  12
ATOM     12  C   UNL     1       7.087   3.435  24.969  0.00  0.00    +0.214 A 
ATOM     13  C   UNL     1       5.640   3.134  24.665  0.00  0.00    +0.238 A 
ATOM     14  O   UNL     1       5.072   2.148  25.121  0.00  0.00    -0.283 OA
ATOM     15  C   UNL     1       4.918   4.077  23.786  0.00  0.00    +0.109 A 
ATOM     16  C   UNL     1       5.547   5.275  23.472  0.00  0.00    +0.147 A 
ATOM     17  C   UNL     1       4.908   6.249  22.700  0.00  0.00    +0.092 A 
ATOM     18  C   UNL     1       3.634   6.001  22.214  0.00  0.00    +0.124 A 
ATOM     19  C   UNL     1       2.999   4.803  22.493  0.00  0.00    +0.091 A 
ATOM     20  O   UNL     1       6.814   5.573  23.872  0.00  0.00    -0.451 OA
ATOM     21  C   UNL     1       3.635   3.837  23.273  0.00  0.00    +0.135 A 
ATOM     22  C   UNL     1       7.578   4.617  24.524  0.00  0.00    +0.181 A 
BRANCH  22  23
ATOM     23  C   UNL     1       8.997   5.076  24.614  0.00  0.00    +0.025 A 
ATOM     24  C   UNL     1       9.334   6.122  25.509  0.00  0.00    +0.015 A 
ATOM     25  C   UNL     1      10.595   6.731  25.484  0.00  0.00    +0.050 A 
ATOM     26  C   UNL     1      11.533   6.294  24.569  0.00  0.00    +0.158 A 
ATOM     27  C   UNL     1      11.237   5.242  23.705  0.00  0.00    +0.159 A 
ATOM     28  C   UNL     1       9.982   4.638  23.715  0.00  0.00    +0.060 A 
BRANCH  27  29
ATOM     29  O   UNL     1      12.208   4.853  22.821  0.00  0.00    -0.503 OA
ATOM     30  H   UNL     1      12.713   5.648  22.572  0.00  0.00    +0.292 HD
ENDBRANCH  27  29
BRANCH  26  31
ATOM     31  O   UNL     1      12.740   6.925  24.493  0.00  0.00    -0.503 OA
ATOM     32  H   UNL     1      12.558   7.839  24.788  0.00  0.00    +0.292 HD
ENDBRANCH  26  31
ENDBRANCH  22  23
BRANCH  21  33
ATOM     33  O   UNL     1       3.005   2.646  23.494  0.00  0.00    -0.506 OA
ATOM     34  H   UNL     1       2.080   2.699  23.206  0.00  0.00    +0.292 HD
ENDBRANCH  21  33
BRANCH  18  35
ATOM     35  O   UNL     1       2.968   6.920  21.459  0.00  0.00    -0.507 OA
ATOM     36  H   UNL     1       3.077   7.800  21.859  0.00  0.00    +0.292 HD
ENDBRANCH  18  35
ENDBRANCH  11  12
ENDBRANCH   5  11
BRANCH   3  37
ATOM     37  C   UNL     1       9.409   0.879  21.488  0.00  0.00    +0.190 C 
BRANCH  37  38
ATOM     38  O   UNL     1      10.058   2.151  21.491  0.00  0.00    -0.392 OA
ATOM     39  H   UNL     1      10.733   2.122  22.201  0.00  0.00    +0.210 HD
ENDBRANCH  37  38
ENDBRANCH   3  37
BRANCH   1  40
ATOM     40  O   UNL     1       9.035  -1.454  24.910  0.00  0.00    -0.453 OA
BRANCH  40  41
ATOM     41  C   UNL     1       9.407  -2.714  24.577  0.00  0.00    +0.332 C 
ATOM     42  O   UNL     1      10.271  -3.016  23.773  0.00  0.00    -0.246 OA
BRANCH  41  44
ATOM     43  C   UNL     1       7.791  -4.531  24.405  0.00  0.00    +0.015 C 
ATOM     44  C   UNL     1       8.406  -3.624  25.180  0.00  0.00    +0.092 C 
BRANCH  43  46
ATOM     45  C   UNL     1       5.692  -5.857  23.899  0.00  0.00    +0.011 A 
ATOM     46  C   UNL     1       6.626  -5.338  24.807  0.00  0.00    -0.025 A 
ATOM     47  C   UNL     1       6.437  -5.587  26.177  0.00  0.00    +0.011 A 
ATOM     48  C   UNL     1       5.349  -6.339  26.625  0.00  0.00    +0.046 A 
ATOM     49  C   UNL     1       4.436  -6.841  25.709  0.00  0.00    +0.117 A 
ATOM     50  C   UNL     1       4.599  -6.609  24.348  0.00  0.00    +0.046 A 
BRANCH  49  51
ATOM     51  O   UNL     1       3.380  -7.555  26.190  0.00  0.00    -0.507 OA
ATOM     52  H   UNL     1       2.661  -7.525  25.539  0.00  0.00    +0.292 HD
ENDBRANCH  49  51
ENDBRANCH  43  46
ENDBRANCH  41  44
ENDBRANCH  40  41
ENDBRANCH   1  40
TORSDOF 16
ENDMDL
MODEL 3
REMARK VINA RESULT:      -6.2      2.293      7.210
REMARK  Name = 
REMARK  16 active torsions:
REMARK  status: ('A' for Active; 'I' for Inactive)
REMARK    1  A    between atoms: C_3  and  O_47
REMARK    2  A    between atoms: C_6  and  C_7
REMARK    3  A    between atoms: C_8  and  C_9
REMARK    4  A    between atoms: C_9  and  O_11
REMARK    5  A    between atoms: O_11  and  C_12
REMARK    6  A    between atoms: C_13  and  O_46
REMARK    7  A    between atoms: C_15  and  O_24
REMARK    8  A    between atoms: C_18  and  C_22
REMARK    9  A    between atoms: C_19  and  O_21
REMARK   10  A    between atoms: C_22  and  O_23
REMARK   11  A    between atoms: O_24  and  C_25
REMARK   12  A    between atoms: C_26  and  C_38
REMARK   13  A    between atoms: C_30  and  O_37
REMARK   14  A    between atoms: C_32  and  O_36
REMARK   15  A    between atoms: C_40  and  O_45
REMARK   16  A    between atoms: C_41  and  O_44
REMARK                            x       y       z     vdW  Elec       q    Type
REMARK                         _______ _______ _______ _____ _____    ______ ____
ROOT
ATOM      1  C   UNL     1       8.399  -2.000  23.017  0.00  0.00    +0.242 C 
ATOM      2  C   UNL     1       9.609  -1.096  22.722  0.00  0.00    +0.189 C 
ATOM      3  C   UNL     1       9.693  -0.053  23.850  0.00  0.00    +0.180 C 
ATOM      4  O   UNL     1       8.520   0.778  23.758  0.00  0.00    -0.331 OA
ATOM      5  C   UNL     1       7.296   0.060  24.012  0.00  0.00    +0.341 C 
ATOM      6  C   UNL     1       7.140  -1.098  22.976  0.00  0.00    +0.226 C 
ENDROOT
BRANCH   6   7
ATOM      7  O   UNL     1       5.940  -1.855  23.208  0.00  0.00    -0.382 OA
ATOM      8  H   UNL     1       6.160  -2.801  23.098  0.00  0.00    +0.210 HD
ENDBRANCH   6   7
BRANCH   2   9
ATOM      9  O   UNL     1      10.789  -1.868  22.534  0.00  0.00    -0.385 OA
ATOM     10  H   UNL     1      10.688  -2.732  22.968  0.00  0.00    +0.210 HD
ENDBRANCH   2   9
BRANCH   5  11
ATOM     11  O   UNL     1       6.166   0.940  23.860  0.00  0.00    -0.453 OA
BRANCH  11  12
ATOM     12  C   UNL     1       5.575   1.462  25.009  0.00  0.00    +0.214 A 
ATOM     13  C   UNL     1       4.814   0.592  25.978  0.00  0.00    +0.238 A 
ATOM     14  O   UNL     1       4.751  -0.626  25.847  0.00  0.00    -0.283 OA
ATOM     15  C   UNL     1       4.133   1.261  27.106  0.00  0.00    +0.109 A 
ATOM     16  C   UNL     1       4.411   2.606  27.318  0.00  0.00    +0.147 A 
ATOM     17  C   UNL     1       3.859   3.298  28.400  0.00  0.00    +0.092 A 
ATOM     18  C   UNL     1       2.996   2.636  29.259  0.00  0.00    +0.124 A 
ATOM     19  C   UNL     1       2.685   1.304  29.051  0.00  0.00    +0.091 A 
ATOM     20  O   UNL     1       5.211   3.336  26.492  0.00  0.00    -0.451 OA
ATOM     21  C   UNL     1       3.246   0.613  27.977  0.00  0.00    +0.135 A 
ATOM     22  C   UNL     1       5.692   2.776  25.319  0.00  0.00    +0.181 A 
BRANCH  22  23
ATOM     23  C   UNL     1       6.304   3.837  24.464  0.00  0.00    +0.025 A 
ATOM     24  C   UNL     1       5.482   4.575  23.576  0.00  0.00    +0.015 A 
ATOM     25  C   UNL     1       6.028   5.427  22.609  0.00  0.00    +0.050 A 
ATOM     26  C   UNL     1       7.401   5.556  22.526  0.00  0.00    +0.158 A 
ATOM     27  C   UNL     1       8.228   4.870  23.413  0.00  0.00    +0.159 A 
ATOM     28  C   UNL     1       7.694   4.010  24.371  0.00  0.00    +0.060 A 
BRANCH  27  29
ATOM     29  O   UNL     1       9.580   5.039  23.281  0.00  0.00    -0.503 OA
ATOM     30  H   UNL     1       9.891   5.527  24.065  0.00  0.00    +0.292 HD
ENDBRANCH  27  29
BRANCH  26  31
ATOM     31  O   UNL     1       7.943   6.333  21.545  0.00  0.00    -0.503 OA
ATOM     32  H   UNL     1       8.521   5.724  21.042  0.00  0.00    +0.292 HD
ENDBRANCH  26  31
ENDBRANCH  22  23
BRANCH  21  33
ATOM     33  O   UNL     1       2.887  -0.688  27.767  0.00  0.00    -0.506 OA
ATOM     34  H   UNL     1       3.106  -0.953  26.860  0.00  0.00    +0.292 HD
ENDBRANCH  21  33
BRANCH  18  35
ATOM     35  O   UNL     1       2.435   3.266  30.330  0.00  0.00    -0.507 OA
ATOM     36  H   UNL     1       2.453   2.668  31.097  0.00  0.00    +0.292 HD
ENDBRANCH  18  35
ENDBRANCH  11  12
ENDBRANCH   5  11
BRANCH   3  37
ATOM     37  C   UNL     1      10.949   0.816  23.761  0.00  0.00    +0.190 C 
BRANCH  37  38
ATOM     38  O   UNL     1      10.589   2.195  23.657  0.00  0.00    -0.392 OA
ATOM     39  H   UNL     1      11.025   2.540  22.850  0.00  0.00    +0.210 HD
ENDBRANCH  37  38
ENDBRANCH   3  37
BRANCH   1  40
ATOM     40  O   UNL     1       8.560  -2.533  24.362  0.00  0.00    -0.453 OA
BRANCH  40  41
ATOM     41  C   UNL     1       9.022  -3.803  24.464  0.00  0.00    +0.332 C 
ATOM     42  O   UNL     1      10.193  -4.139  24.485  0.00  0.00    -0.246 OA
BRANCH  41  44
ATOM     43  C   UNL     1       6.867  -4.672  25.204  0.00  0.00    +0.015 C 
ATOM     44  C   UNL     1       7.851  -4.694  24.291  0.00  0.00    +0.092 C 
BRANCH  43  46
ATOM     45  C   UNL     1       5.318  -6.208  26.492  0.00  0.00    +0.011 A 
ATOM     46  C   UNL     1       5.767  -5.648  25.288  0.00  0.00    -0.025 A 
ATOM     47  C   UNL     1       5.147  -6.046  24.092  0.00  0.00    +0.011 A 
ATOM     48  C   UNL     1       4.103  -6.974  24.101  0.00  0.00    +0.046 A 
ATOM     49  C   UNL     1       3.676  -7.517  25.304  0.00  0.00    +0.117 A 
ATOM     50  C   UNL     1       4.272  -7.140  26.502  0.00  0.00    +0.046 A 
BRANCH  49  51
ATOM     51  O   UNL     1       2.666  -8.430  25.266  0.00  0.00    -0.507 OA
ATOM     52  H   UNL     1       1.837  -7.970  25.060  0.00  0.00    +0.292 HD
ENDBRANCH  49  51
ENDBRANCH  43  46
ENDBRANCH  41  44
ENDBRANCH  40  41
ENDBRANCH   1  40
TORSDOF 16
ENDMDL
MODEL 4
REMARK VINA RESULT:      -5.9      2.161      6.426
REMARK  Name = 
REMARK  16 active torsions:
REMARK  status: ('A' for Active; 'I' for Inactive)
REMARK    1  A    between atoms: C_3  and  O_47
REMARK    2  A    between atoms: C_6  and  C_7
REMARK    3  A    between atoms: C_8  and  C_9
REMARK    4  A    between atoms: C_9  and  O_11
REMARK    5  A    between atoms: O_11  and  C_12
REMARK    6  A    between atoms: C_13  and  O_46
REMARK    7  A    between atoms: C_15  and  O_24
REMARK    8  A    between atoms: C_18  and  C_22
REMARK    9  A    between atoms: C_19  and  O_21
REMARK   10  A    between atoms: C_22  and  O_23
REMARK   11  A    between atoms: O_24  and  C_25
REMARK   12  A    between atoms: C_26  and  C_38
REMARK   13  A    between atoms: C_30  and  O_37
REMARK   14  A    between atoms: C_32  and  O_36
REMARK   15  A    between atoms: C_40  and  O_45
REMARK   16  A    between atoms: C_41  and  O_44
REMARK                            x       y       z     vdW  Elec       q    Type
REMARK                         _______ _______ _______ _____ _____    ______ ____
ROOT
ATOM      1  C   UNL     1       9.169  -0.888  23.329  0.00  0.00    +0.242 C 
ATOM      2  C   UNL     1       8.951  -2.130  22.446  0.00  0.00    +0.189 C 
ATOM      3  C   UNL     1       7.459  -2.496  22.524  0.00  0.00    +0.180 C 
ATOM      4  O   UNL     1       7.182  -2.894  23.880  0.00  0.00    -0.331 OA
ATOM      5  C   UNL     1       7.346  -1.822  24.830  0.00  0.00    +0.341 C 
ATOM      6  C   UNL     1       8.815  -1.296  24.781  0.00  0.00    +0.226 C 
ENDROOT
BRANCH   6   7
ATOM      7  O   UNL     1       9.017  -0.209  25.699  0.00  0.00    -0.382 OA
ATOM      8  H   UNL     1       8.626   0.593  25.300  0.00  0.00    +0.210 HD
ENDBRANCH   6   7
BRANCH   2   9
ATOM      9  O   UNL     1       9.446  -1.915  21.130  0.00  0.00    -0.385 OA
ATOM     10  H   UNL     1       8.702  -1.843  20.509  0.00  0.00    +0.210 HD
ENDBRANCH   2   9
BRANCH   5  11
ATOM     11  O   UNL     1       7.096  -2.302  26.165  0.00  0.00    -0.453 OA
BRANCH  11  12
ATOM     12  C   UNL     1       5.970  -1.831  26.836  0.00  0.00    +0.214 A 
ATOM     13  C   UNL     1       6.007  -0.576  27.673  0.00  0.00    +0.238 A 
ATOM     14  O   UNL     1       7.005   0.134  27.735  0.00  0.00    -0.283 OA
ATOM     15  C   UNL     1       4.789  -0.226  28.431  0.00  0.00    +0.109 A 
ATOM     16  C   UNL     1       3.633  -0.948  28.161  0.00  0.00    +0.147 A 
ATOM     17  C   UNL     1       2.422  -0.638  28.787  0.00  0.00    +0.092 A 
ATOM     18  C   UNL     1       2.382   0.390  29.716  0.00  0.00    +0.124 A 
ATOM     19  C   UNL     1       3.527   1.105  30.020  0.00  0.00    +0.091 A 
ATOM     20  O   UNL     1       3.602  -2.000  27.298  0.00  0.00    -0.451 OA
ATOM     21  C   UNL     1       4.732   0.800  29.386  0.00  0.00    +0.135 A 
ATOM     22  C   UNL     1       4.779  -2.469  26.734  0.00  0.00    +0.181 A 
BRANCH  22  23
ATOM     23  C   UNL     1       4.529  -3.775  26.053  0.00  0.00    +0.025 A 
ATOM     24  C   UNL     1       5.027  -4.969  26.633  0.00  0.00    +0.015 A 
ATOM     25  C   UNL     1       5.007  -6.185  25.940  0.00  0.00    +0.050 A 
ATOM     26  C   UNL     1       4.480  -6.221  24.664  0.00  0.00    +0.158 A 
ATOM     27  C   UNL     1       3.950  -5.069  24.087  0.00  0.00    +0.159 A 
ATOM     28  C   UNL     1       3.976  -3.852  24.764  0.00  0.00    +0.060 A 
BRANCH  27  29
ATOM     29  O   UNL     1       3.441  -5.168  22.820  0.00  0.00    -0.503 OA
ATOM     30  H   UNL     1       3.792  -4.419  22.304  0.00  0.00    +0.292 HD
ENDBRANCH  27  29
BRANCH  26  31
ATOM     31  O   UNL     1       4.516  -7.387  23.956  0.00  0.00    -0.503 OA
ATOM     32  H   UNL     1       5.147  -7.952  24.446  0.00  0.00    +0.292 HD
ENDBRANCH  26  31
ENDBRANCH  22  23
BRANCH  21  33
ATOM     33  O   UNL     1       5.857   1.491  29.736  0.00  0.00    -0.506 OA
ATOM     34  H   UNL     1       6.119   2.089  29.019  0.00  0.00    +0.292 HD
ENDBRANCH  21  33
BRANCH  18  35
ATOM     35  O   UNL     1       1.226   0.731  30.352  0.00  0.00    -0.507 OA
ATOM     36  H   UNL     1       1.264   1.672  30.598  0.00  0.00    +0.292 HD
ENDBRANCH  18  35
ENDBRANCH  11  12
ENDBRANCH   5  11
BRANCH   3  37
ATOM     37  C   UNL     1       7.077  -3.627  21.566  0.00  0.00    +0.190 C 
BRANCH  37  38
ATOM     38  O   UNL     1       5.658  -3.678  21.405  0.00  0.00    -0.392 OA
ATOM     39  H   UNL     1       5.268  -3.536  22.292  0.00  0.00    +0.210 HD
ENDBRANCH  37  38
ENDBRANCH   3  37
BRANCH   1  40
ATOM     40  O   UNL     1       8.240   0.141  22.883  0.00  0.00    -0.453 OA
BRANCH  40  41
ATOM     41  C   UNL     1       8.728   1.078  22.035  0.00  0.00    +0.332 C 
ATOM     42  O   UNL     1       8.600   1.082  20.823  0.00  0.00    -0.246 OA
BRANCH  41  44
ATOM     43  C   UNL     1       9.465   3.264  22.824  0.00  0.00    +0.015 C 
ATOM     44  C   UNL     1       9.641   1.934  22.829  0.00  0.00    +0.092 C 
BRANCH  43  46
ATOM     45  C   UNL     1      11.795   4.216  23.115  0.00  0.00    +0.011 A 
ATOM     46  C   UNL     1      10.417   4.246  23.372  0.00  0.00    -0.025 A 
ATOM     47  C   UNL     1       9.914   5.255  24.209  0.00  0.00    +0.011 A 
ATOM     48  C   UNL     1      10.764   6.213  24.768  0.00  0.00    +0.046 A 
ATOM     49  C   UNL     1      12.124   6.164  24.501  0.00  0.00    +0.117 A 
ATOM     50  C   UNL     1      12.649   5.175  23.675  0.00  0.00    +0.046 A 
BRANCH  49  51
ATOM     51  O   UNL     1      12.920   7.107  25.078  0.00  0.00    -0.507 OA
ATOM     52  H   UNL     1      12.719   7.969  24.681  0.00  0.00    +0.292 HD
ENDBRANCH  49  51
ENDBRANCH  43  46
ENDBRANCH  41  44
ENDBRANCH  40  41
ENDBRANCH   1  40
TORSDOF 16
ENDMDL
MODEL 5
REMARK VINA RESULT:      -5.9      2.953      6.676
REMARK  Name = 
REMARK  16 active torsions:
REMARK  status: ('A' for Active; 'I' for Inactive)
REMARK    1  A    between atoms: C_3  and  O_47
REMARK    2  A    between atoms: C_6  and  C_7
REMARK    3  A    between atoms: C_8  and  C_9
REMARK    4  A    between atoms: C_9  and  O_11
REMARK    5  A    between atoms: O_11  and  C_12
REMARK    6  A    between atoms: C_13  and  O_46
REMARK    7  A    between atoms: C_15  and  O_24
REMARK    8  A    between atoms: C_18  and  C_22
REMARK    9  A    between atoms: C_19  and  O_21
REMARK   10  A    between atoms: C_22  and  O_23
REMARK   11  A    between atoms: O_24  and  C_25
REMARK   12  A    between atoms: C_26  and  C_38
REMARK   13  A    between atoms: C_30  and  O_37
REMARK   14  A    between atoms: C_32  and  O_36
REMARK   15  A    between atoms: C_40  and  O_45
REMARK   16  A    between atoms: C_41  and  O_44
REMARK                            x       y       z     vdW  Elec       q    Type
REMARK                         _______ _______ _______ _____ _____    ______ ____
ROOT
ATOM      1  C   UNL     1       9.370  -0.817  24.913  0.00  0.00    +0.242 C 
ATOM      2  C   UNL     1       8.599  -1.459  26.080  0.00  0.00    +0.189 C 
ATOM      3  C   UNL     1       7.155  -0.931  26.026  0.00  0.00    +0.180 C 
ATOM      4  O   UNL     1       7.203   0.485  26.288  0.00  0.00    -0.331 OA
ATOM      5  C   UNL     1       7.902   1.226  25.268  0.00  0.00    +0.341 C 
ATOM      6  C   UNL     1       9.374   0.713  25.161  0.00  0.00    +0.226 C 
ENDROOT
BRANCH   6   7
ATOM      7  O   UNL     1      10.103   1.412  24.138  0.00  0.00    -0.382 OA
ATOM      8  H   UNL     1       9.471   1.985  23.662  0.00  0.00    +0.210 HD
ENDBRANCH   6   7
BRANCH   2   9
ATOM      9  O   UNL     1       8.718  -2.877  26.052  0.00  0.00    -0.385 OA
ATOM     10  H   UNL     1       9.623  -3.134  26.297  0.00  0.00    +0.210 HD
ENDBRANCH   2   9
BRANCH   5  11
ATOM     11  O   UNL     1       7.949   2.623  25.616  0.00  0.00    -0.453 OA
BRANCH  11  12
ATOM     12  C   UNL     1       7.163   3.512  24.886  0.00  0.00    +0.214 A 
ATOM     13  C   UNL     1       5.715   3.224  24.574  0.00  0.00    +0.238 A 
ATOM     14  O   UNL     1       5.139   2.237  25.019  0.00  0.00    -0.283 OA
ATOM     15  C   UNL     1       5.003   4.179  23.701  0.00  0.00    +0.109 A 
ATOM     16  C   UNL     1       5.641   5.375  23.400  0.00  0.00    +0.147 A 
ATOM     17  C   UNL     1       5.011   6.360  22.634  0.00  0.00    +0.092 A 
ATOM     18  C   UNL     1       3.738   6.125  22.141  0.00  0.00    +0.124 A 
ATOM     19  C   UNL     1       3.094   4.929  22.406  0.00  0.00    +0.091 A 
ATOM     20  O   UNL     1       6.909   5.661  23.807  0.00  0.00    -0.451 OA
ATOM     21  C   UNL     1       3.720   3.952  23.181  0.00  0.00    +0.135 A 
ATOM     22  C   UNL     1       7.664   4.694  24.454  0.00  0.00    +0.181 A 
BRANCH  22  23
ATOM     23  C   UNL     1       9.085   5.143  24.553  0.00  0.00    +0.025 A 
ATOM     24  C   UNL     1       9.428   6.171  25.467  0.00  0.00    +0.015 A 
ATOM     25  C   UNL     1      10.692   6.772  25.454  0.00  0.00    +0.050 A 
ATOM     26  C   UNL     1      11.628   6.346  24.532  0.00  0.00    +0.158 A 
ATOM     27  C   UNL     1      11.327   5.312  23.648  0.00  0.00    +0.159 A 
ATOM     28  C   UNL     1      10.068   4.715  23.646  0.00  0.00    +0.060 A 
BRANCH  27  29
ATOM     29  O   UNL     1      12.296   4.933  22.759  0.00  0.00    -0.503 OA
ATOM     30  H   UNL     1      12.138   5.418  21.929  0.00  0.00    +0.292 HD
ENDBRANCH  27  29
BRANCH  26  31
ATOM     31  O   UNL     1      12.839   6.971  24.468  0.00  0.00    -0.503 OA
ATOM     32  H   UNL     1      13.304   6.689  25.281  0.00  0.00    +0.292 HD
ENDBRANCH  26  31
ENDBRANCH  22  23
BRANCH  21  33
ATOM     33  O   UNL     1       3.082   2.763  23.390  0.00  0.00    -0.506 OA
ATOM     34  H   UNL     1       2.390   2.635  22.722  0.00  0.00    +0.292 HD
ENDBRANCH  21  33
BRANCH  18  35
ATOM     35  O   UNL     1       3.081   7.054  21.391  0.00  0.00    -0.507 OA
ATOM     36  H   UNL     1       3.010   7.881  21.899  0.00  0.00    +0.292 HD
ENDBRANCH  18  35
ENDBRANCH  11  12
ENDBRANCH   5  11
BRANCH   3  37
ATOM     37  C   UNL     1       6.237  -1.613  27.044  0.00  0.00    +0.190 C 
BRANCH  37  38
ATOM     38  O   UNL     1       5.893  -2.925  26.595  0.00  0.00    -0.392 OA
ATOM     39  H   UNL     1       5.344  -2.813  25.791  0.00  0.00    +0.210 HD
ENDBRANCH  37  38
ENDBRANCH   3  37
BRANCH   1  40
ATOM     40  O   UNL     1       8.637  -1.100  23.687  0.00  0.00    -0.453 OA
BRANCH  40  41
ATOM     41  C   UNL     1       9.209  -1.973  22.823  0.00  0.00    +0.332 C 
ATOM     42  O   UNL     1      10.238  -1.789  22.197  0.00  0.00    -0.246 OA
BRANCH  41  44
ATOM     43  C   UNL     1       6.969  -2.908  23.055  0.00  0.00    +0.015 C 
ATOM     44  C   UNL     1       8.224  -3.058  22.604  0.00  0.00    +0.092 C 
BRANCH  43  46
ATOM     45  C   UNL     1       4.597  -3.743  23.360  0.00  0.00    +0.011 A 
ATOM     46  C   UNL     1       5.957  -3.977  23.112  0.00  0.00    -0.025 A 
ATOM     47  C   UNL     1       6.385  -5.301  22.924  0.00  0.00    +0.011 A 
ATOM     48  C   UNL     1       5.477  -6.362  22.973  0.00  0.00    +0.046 A 
ATOM     49  C   UNL     1       4.136  -6.107  23.221  0.00  0.00    +0.117 A 
ATOM     50  C   UNL     1       3.686  -4.806  23.411  0.00  0.00    +0.046 A 
BRANCH  49  51
ATOM     51  O   UNL     1       3.287  -7.171  23.277  0.00  0.00    -0.507 OA
ATOM     52  H   UNL     1       2.667  -7.115  22.533  0.00  0.00    +0.292 HD
ENDBRANCH  49  51
ENDBRANCH  43  46
ENDBRANCH  41  44
ENDBRANCH  40  41
ENDBRANCH   1  40
TORSDOF 16
ENDMDL
MODEL 6
REMARK VINA RESULT:      -5.8      3.464      7.295
REMARK  Name = 
REMARK  16 active torsions:
REMARK  status: ('A' for Active; 'I' for Inactive)
REMARK    1  A    between atoms: C_3  and  O_47
REMARK    2  A    between atoms: C_6  and  C_7
REMARK    3  A    between atoms: C_8  and  C_9
REMARK    4  A    between atoms: C_9  and  O_11
REMARK    5  A    between atoms: O_11  and  C_12
REMARK    6  A    between atoms: C_13  and  O_46
REMARK    7  A    between atoms: C_15  and  O_24
REMARK    8  A    between atoms: C_18  and  C_22
REMARK    9  A    between atoms: C_19  and  O_21
REMARK   10  A    between atoms: C_22  and  O_23
REMARK   11  A    between atoms: O_24  and  C_25
REMARK   12  A    between atoms: C_26  and  C_38
REMARK   13  A    between atoms: C_30  and  O_37
REMARK   14  A    between atoms: C_32  and  O_36
REMARK   15  A    between atoms: C_40  and  O_45
REMARK   16  A    between atoms: C_41  and  O_44
REMARK                            x       y       z     vdW  Elec       q    Type
REMARK                         _______ _______ _______ _____ _____    ______ ____
ROOT
ATOM      1  C   UNL     1       9.754   0.696  23.420  0.00  0.00    +0.242 C 
ATOM      2  C   UNL     1       9.234   0.654  24.868  0.00  0.00    +0.189 C 
ATOM      3  C   UNL     1       7.703   0.793  24.813  0.00  0.00    +0.180 C 
ATOM      4  O   UNL     1       7.406   2.106  24.301  0.00  0.00    -0.331 OA
ATOM      5  C   UNL     1       7.840   2.295  22.939  0.00  0.00    +0.341 C 
ATOM      6  C   UNL     1       9.385   2.086  22.846  0.00  0.00    +0.226 C 
ENDROOT
BRANCH   6   7
ATOM      7  O   UNL     1       9.858   2.244  21.498  0.00  0.00    -0.382 OA
ATOM      8  H   UNL     1       9.943   3.202  21.323  0.00  0.00    +0.210 HD
ENDBRANCH   6   7
BRANCH   2   9
ATOM      9  O   UNL     1       9.705  -0.504  25.546  0.00  0.00    -0.385 OA
ATOM     10  H   UNL     1      10.664  -0.433  25.688  0.00  0.00    +0.210 HD
ENDBRANCH   2   9
BRANCH   5  11
ATOM     11  O   UNL     1       7.552   3.639  22.510  0.00  0.00    -0.453 OA
BRANCH  11  12
ATOM     12  C   UNL     1       6.463   4.295  23.079  0.00  0.00    +0.214 A 
ATOM     13  C   UNL     1       5.041   3.916  22.745  0.00  0.00    +0.238 A 
ATOM     14  O   UNL     1       4.776   2.960  22.024  0.00  0.00    -0.283 OA
ATOM     15  C   UNL     1       3.962   4.746  23.318  0.00  0.00    +0.109 A 
ATOM     16  C   UNL     1       4.312   5.679  24.285  0.00  0.00    +0.147 A 
ATOM     17  C   UNL     1       3.344   6.460  24.924  0.00  0.00    +0.092 A 
ATOM     18  C   UNL     1       2.013   6.320  24.563  0.00  0.00    +0.124 A 
ATOM     19  C   UNL     1       1.645   5.415  23.583  0.00  0.00    +0.091 A 
ATOM     20  O   UNL     1       5.601   5.909  24.661  0.00  0.00    -0.451 OA
ATOM     21  C   UNL     1       2.612   4.630  22.955  0.00  0.00    +0.135 A 
ATOM     22  C   UNL     1       6.640   5.284  23.989  0.00  0.00    +0.181 A 
BRANCH  22  23
ATOM     23  C   UNL     1       7.943   5.893  24.391  0.00  0.00    +0.025 A 
ATOM     24  C   UNL     1       8.993   5.982  23.443  0.00  0.00    +0.015 A 
ATOM     25  C   UNL     1      10.291   6.348  23.817  0.00  0.00    +0.050 A 
ATOM     26  C   UNL     1      10.551   6.635  25.143  0.00  0.00    +0.158 A 
ATOM     27  C   UNL     1       9.528   6.590  26.087  0.00  0.00    +0.159 A 
ATOM     28  C   UNL     1       8.235   6.217  25.726  0.00  0.00    +0.060 A 
BRANCH  27  29
ATOM     29  O   UNL     1       9.848   6.887  27.385  0.00  0.00    -0.503 OA
ATOM     30  H   UNL     1      10.755   7.243  27.389  0.00  0.00    +0.292 HD
ENDBRANCH  27  29
BRANCH  26  31
ATOM     31  O   UNL     1      11.827   6.927  25.528  0.00  0.00    -0.503 OA
ATOM     32  H   UNL     1      12.321   7.018  24.689  0.00  0.00    +0.292 HD
ENDBRANCH  26  31
ENDBRANCH  22  23
BRANCH  21  33
ATOM     33  O   UNL     1       2.228   3.777  21.959  0.00  0.00    -0.506 OA
ATOM     34  H   UNL     1       1.269   3.633  21.996  0.00  0.00    +0.292 HD
ENDBRANCH  21  33
BRANCH  18  35
ATOM     35  O   UNL     1       1.032   7.056  25.157  0.00  0.00    -0.507 OA
ATOM     36  H   UNL     1       0.489   6.471  25.715  0.00  0.00    +0.292 HD
ENDBRANCH  18  35
ENDBRANCH  11  12
ENDBRANCH   5  11
BRANCH   3  37
ATOM     37  C   UNL     1       7.042   0.612  26.182  0.00  0.00    +0.190 C 
BRANCH  37  38
ATOM     38  O   UNL     1       7.966   0.939  27.222  0.00  0.00    -0.392 OA
ATOM     39  H   UNL     1       8.277   1.851  27.045  0.00  0.00    +0.210 HD
ENDBRANCH  37  38
ENDBRANCH   3  37
BRANCH   1  40
ATOM     40  O   UNL     1       9.051  -0.333  22.666  0.00  0.00    -0.453 OA
BRANCH  40  41
ATOM     41  C   UNL     1       9.699  -1.510  22.488  0.00  0.00    +0.332 C 
ATOM     42  O   UNL     1      10.898  -1.647  22.313  0.00  0.00    -0.246 OA
BRANCH  41  44
ATOM     43  C   UNL     1       7.966  -2.983  23.364  0.00  0.00    +0.015 C 
ATOM     44  C   UNL     1       8.656  -2.544  22.300  0.00  0.00    +0.092 C 
BRANCH  43  46
ATOM     45  C   UNL     1       6.818  -4.940  22.235  0.00  0.00    +0.011 A 
ATOM     46  C   UNL     1       7.071  -4.153  23.368  0.00  0.00    -0.025 A 
ATOM     47  C   UNL     1       6.427  -4.487  24.572  0.00  0.00    +0.011 A 
ATOM     48  C   UNL     1       5.560  -5.580  24.642  0.00  0.00    +0.046 A 
ATOM     49  C   UNL     1       5.323  -6.343  23.508  0.00  0.00    +0.117 A 
ATOM     50  C   UNL     1       5.948  -6.035  22.304  0.00  0.00    +0.046 A 
BRANCH  49  51
ATOM     51  O   UNL     1       4.459  -7.390  23.615  0.00  0.00    -0.507 OA
ATOM     52  H   UNL     1       4.271  -7.544  24.555  0.00  0.00    +0.292 HD
ENDBRANCH  49  51
ENDBRANCH  43  46
ENDBRANCH  41  44
ENDBRANCH  40  41
ENDBRANCH   1  40
TORSDOF 16
ENDMDL
MODEL 7
REMARK VINA RESULT:      -5.8      2.204      6.486
REMARK  Name = 
REMARK  16 active torsions:
REMARK  status: ('A' for Active; 'I' for Inactive)
REMARK    1  A    between atoms: C_3  and  O_47
REMARK    2  A    between atoms: C_6  and  C_7
REMARK    3  A    between atoms: C_8  and  C_9
REMARK    4  A    between atoms: C_9  and  O_11
REMARK    5  A    between atoms: O_11  and  C_12
REMARK    6  A    between atoms: C_13  and  O_46
REMARK    7  A    between atoms: C_15  and  O_24
REMARK    8  A    between atoms: C_18  and  C_22
REMARK    9  A    between atoms: C_19  and  O_21
REMARK   10  A    between atoms: C_22  and  O_23
REMARK   11  A    between atoms: O_24  and  C_25
REMARK   12  A    between atoms: C_26  and  C_38
REMARK   13  A    between atoms: C_30  and  O_37
REMARK   14  A    between atoms: C_32  and  O_36
REMARK   15  A    between atoms: C_40  and  O_45
REMARK   16  A    between atoms: C_41  and  O_44
REMARK                            x       y       z     vdW  Elec       q    Type
REMARK                         _______ _______ _______ _____ _____    ______ ____
ROOT
ATOM      1  C   UNL     1       9.676  -0.709  23.814  0.00  0.00    +0.242 C 
ATOM      2  C   UNL     1       9.452  -1.880  22.840  0.00  0.00    +0.189 C 
ATOM      3  C   UNL     1       7.936  -2.122  22.750  0.00  0.00    +0.180 C 
ATOM      4  O   UNL     1       7.491  -2.567  24.046  0.00  0.00    -0.331 OA
ATOM      5  C   UNL     1       7.641  -1.565  25.071  0.00  0.00    +0.341 C 
ATOM      6  C   UNL     1       9.145  -1.162  25.197  0.00  0.00    +0.226 C 
ENDROOT
BRANCH   6   7
ATOM      7  O   UNL     1       9.338  -0.147  26.196  0.00  0.00    -0.382 OA
ATOM      8  H   UNL     1       9.283   0.721  25.751  0.00  0.00    +0.210 HD
ENDBRANCH   6   7
BRANCH   2   9
ATOM      9  O   UNL     1      10.094  -1.637  21.594  0.00  0.00    -0.385 OA
ATOM     10  H   UNL     1       9.813  -0.775  21.244  0.00  0.00    +0.210 HD
ENDBRANCH   2   9
BRANCH   5  11
ATOM     11  O   UNL     1       7.220  -2.092  26.344  0.00  0.00    -0.453 OA
BRANCH  11  12
ATOM     12  C   UNL     1       6.043  -1.601  26.905  0.00  0.00    +0.214 A 
ATOM     13  C   UNL     1       6.024  -0.348  27.745  0.00  0.00    +0.238 A 
ATOM     14  O   UNL     1       7.024   0.344  27.903  0.00  0.00    -0.283 OA
ATOM     15  C   UNL     1       4.745   0.025  28.384  0.00  0.00    +0.109 A 
ATOM     16  C   UNL     1       3.607  -0.675  28.003  0.00  0.00    +0.147 A 
ATOM     17  C   UNL     1       2.348  -0.343  28.511  0.00  0.00    +0.092 A 
ATOM     18  C   UNL     1       2.238   0.684  29.435  0.00  0.00    +0.124 A 
ATOM     19  C   UNL     1       3.363   1.377  29.848  0.00  0.00    +0.091 A 
ATOM     20  O   UNL     1       3.640  -1.726  27.138  0.00  0.00    -0.451 OA
ATOM     21  C   UNL     1       4.617   1.051  29.331  0.00  0.00    +0.135 A 
ATOM     22  C   UNL     1       4.856  -2.217  26.688  0.00  0.00    +0.181 A 
BRANCH  22  23
ATOM     23  C   UNL     1       4.649  -3.518  25.983  0.00  0.00    +0.025 A 
ATOM     24  C   UNL     1       4.917  -4.730  26.667  0.00  0.00    +0.015 A 
ATOM     25  C   UNL     1       4.942  -5.959  25.998  0.00  0.00    +0.050 A 
ATOM     26  C   UNL     1       4.691  -5.989  24.640  0.00  0.00    +0.158 A 
ATOM     27  C   UNL     1       4.389  -4.815  23.953  0.00  0.00    +0.159 A 
ATOM     28  C   UNL     1       4.372  -3.586  24.608  0.00  0.00    +0.060 A 
BRANCH  27  29
ATOM     29  O   UNL     1       4.149  -4.909  22.609  0.00  0.00    -0.503 OA
ATOM     30  H   UNL     1       3.357  -4.374  22.414  0.00  0.00    +0.292 HD
ENDBRANCH  27  29
BRANCH  26  31
ATOM     31  O   UNL     1       4.779  -7.173  23.967  0.00  0.00    -0.503 OA
ATOM     32  H   UNL     1       5.577  -7.604  24.334  0.00  0.00    +0.292 HD
ENDBRANCH  26  31
ENDBRANCH  22  23
BRANCH  21  33
ATOM     33  O   UNL     1       5.716   1.720  29.789  0.00  0.00    -0.506 OA
ATOM     34  H   UNL     1       5.475   2.278  30.546  0.00  0.00    +0.292 HD
ENDBRANCH  21  33
BRANCH  18  35
ATOM     35  O   UNL     1       1.033   1.047  29.958  0.00  0.00    -0.507 OA
ATOM     36  H   UNL     1       0.481   0.253  30.066  0.00  0.00    +0.292 HD
ENDBRANCH  18  35
ENDBRANCH  11  12
ENDBRANCH   5  11
BRANCH   3  37
ATOM     37  C   UNL     1       7.565  -3.164  21.691  0.00  0.00    +0.190 C 
BRANCH  37  38
ATOM     38  O   UNL     1       7.280  -4.418  22.313  0.00  0.00    -0.392 OA
ATOM     39  H   UNL     1       6.361  -4.365  22.646  0.00  0.00    +0.210 HD
ENDBRANCH  37  38
ENDBRANCH   3  37
BRANCH   1  40
ATOM     40  O   UNL     1       8.881   0.417  23.344  0.00  0.00    -0.453 OA
BRANCH  40  41
ATOM     41  C   UNL     1       9.561   1.481  22.852  0.00  0.00    +0.332 C 
ATOM     42  O   UNL     1      10.253   1.485  21.849  0.00  0.00    -0.246 OA
BRANCH  41  44
ATOM     43  C   UNL     1       8.377   2.697  24.602  0.00  0.00    +0.015 C 
ATOM     44  C   UNL     1       9.502   2.538  23.888  0.00  0.00    +0.092 C 
BRANCH  43  46
ATOM     45  C   UNL     1       8.676   5.101  25.343  0.00  0.00    +0.011 A 
ATOM     46  C   UNL     1       8.093   3.835  25.494  0.00  0.00    -0.025 A 
ATOM     47  C   UNL     1       7.202   3.631  26.560  0.00  0.00    +0.011 A 
ATOM     48  C   UNL     1       6.896   4.666  27.447  0.00  0.00    +0.046 A 
ATOM     49  C   UNL     1       7.486   5.911  27.279  0.00  0.00    +0.117 A 
ATOM     50  C   UNL     1       8.371   6.140  26.232  0.00  0.00    +0.046 A 
BRANCH  49  51
ATOM     51  O   UNL     1       7.173   6.888  28.175  0.00  0.00    -0.507 OA
ATOM     52  H   UNL     1       6.965   7.702  27.689  0.00  0.00    +0.292 HD
ENDBRANCH  49  51
ENDBRANCH  43  46
ENDBRANCH  41  44
ENDBRANCH  40  41
ENDBRANCH   1  40
TORSDOF 16
ENDMDL
MODEL 8
REMARK VINA RESULT:      -5.8      2.463      6.485
REMARK  Name = 
REMARK  16 active torsions:
REMARK  status: ('A' for Active; 'I' for Inactive)
REMARK    1  A    between atoms: C_3  and  O_47
REMARK    2  A    between atoms: C_6  and  C_7
REMARK    3  A    between atoms: C_8  and  C_9
REMARK    4  A    between atoms: C_9  and  O_11
REMARK    5  A    between atoms: O_11  and  C_12
REMARK    6  A    between atoms: C_13  and  O_46
REMARK    7  A    between atoms: C_15  and  O_24
REMARK    8  A    between atoms: C_18  and  C_22
REMARK    9  A    between atoms: C_19  and  O_21
REMARK   10  A    between atoms: C_22  and  O_23
REMARK   11  A    between atoms: O_24  and  C_25
REMARK   12  A    between atoms: C_26  and  C_38
REMARK   13  A    between atoms: C_30  and  O_37
REMARK   14  A    between atoms: C_32  and  O_36
REMARK   15  A    between atoms: C_40  and  O_45
REMARK   16  A    between atoms: C_41  and  O_44
REMARK                            x       y       z     vdW  Elec       q    Type
REMARK                         _______ _______ _______ _____ _____    ______ ____
ROOT
ATOM      1  C   UNL     1      10.115  -0.359  23.352  0.00  0.00    +0.242 C 
ATOM      2  C   UNL     1       9.719  -1.612  22.549  0.00  0.00    +0.189 C 
ATOM      3  C   UNL     1       8.223  -1.867  22.799  0.00  0.00    +0.180 C 
ATOM      4  O   UNL     1       8.067  -2.198  24.192  0.00  0.00    -0.331 OA
ATOM      5  C   UNL     1       8.405  -1.109  25.074  0.00  0.00    +0.341 C 
ATOM      6  C   UNL     1       9.893  -0.691  24.848  0.00  0.00    +0.226 C 
ENDROOT
BRANCH   6   7
ATOM      7  O   UNL     1      10.267   0.409  25.695  0.00  0.00    -0.382 OA
ATOM      8  H   UNL     1      10.605   1.123  25.120  0.00  0.00    +0.210 HD
ENDBRANCH   6   7
BRANCH   2   9
ATOM      9  O   UNL     1      10.082  -1.477  21.180  0.00  0.00    -0.385 OA
ATOM     10  H   UNL     1      10.011  -2.339  20.737  0.00  0.00    +0.210 HD
ENDBRANCH   2   9
BRANCH   5  11
ATOM     11  O   UNL     1       8.270  -1.523  26.447  0.00  0.00    -0.453 OA
BRANCH  11  12
ATOM     12  C   UNL     1       7.062  -2.090  26.849  0.00  0.00    +0.214 A 
ATOM     13  C   UNL     1       6.884  -3.583  26.973  0.00  0.00    +0.238 A 
ATOM     14  O   UNL     1       7.816  -4.364  26.810  0.00  0.00    -0.283 OA
ATOM     15  C   UNL     1       5.534  -4.084  27.300  0.00  0.00    +0.109 A 
ATOM     16  C   UNL     1       4.575  -3.152  27.675  0.00  0.00    +0.147 A 
ATOM     17  C   UNL     1       3.291  -3.548  28.062  0.00  0.00    +0.092 A 
ATOM     18  C   UNL     1       2.961  -4.894  28.040  0.00  0.00    +0.124 A 
ATOM     19  C   UNL     1       3.893  -5.837  27.644  0.00  0.00    +0.091 A 
ATOM     20  O   UNL     1       4.807  -1.810  27.676  0.00  0.00    -0.451 OA
ATOM     21  C   UNL     1       5.177  -5.440  27.269  0.00  0.00    +0.135 A 
ATOM     22  C   UNL     1       6.002  -1.313  27.179  0.00  0.00    +0.181 A 
BRANCH  22  23
ATOM     23  C   UNL     1       5.912   0.171  27.034  0.00  0.00    +0.025 A 
ATOM     24  C   UNL     1       5.227   0.721  25.922  0.00  0.00    +0.015 A 
ATOM     25  C   UNL     1       5.289   2.088  25.624  0.00  0.00    +0.050 A 
ATOM     26  C   UNL     1       6.032   2.918  26.440  0.00  0.00    +0.158 A 
ATOM     27  C   UNL     1       6.684   2.407  27.560  0.00  0.00    +0.159 A 
ATOM     28  C   UNL     1       6.636   1.047  27.858  0.00  0.00    +0.060 A 
BRANCH  27  29
ATOM     29  O   UNL     1       7.403   3.281  28.331  0.00  0.00    -0.503 OA
ATOM     30  H   UNL     1       7.018   3.267  29.226  0.00  0.00    +0.292 HD
ENDBRANCH  27  29
BRANCH  26  31
ATOM     31  O   UNL     1       6.153   4.239  26.120  0.00  0.00    -0.503 OA
ATOM     32  H   UNL     1       5.240   4.586  26.164  0.00  0.00    +0.292 HD
ENDBRANCH  26  31
ENDBRANCH  22  23
BRANCH  21  33
ATOM     33  O   UNL     1       6.063  -6.386  26.839  0.00  0.00    -0.506 OA
ATOM     34  H   UNL     1       6.786  -6.481  27.479  0.00  0.00    +0.292 HD
ENDBRANCH  21  33
BRANCH  18  35
ATOM     35  O   UNL     1       1.724  -5.331  28.410  0.00  0.00    -0.507 OA
ATOM     36  H   UNL     1       1.804  -6.215  28.807  0.00  0.00    +0.292 HD
ENDBRANCH  18  35
ENDBRANCH  11  12
ENDBRANCH   5  11
BRANCH   3  37
ATOM     37  C   UNL     1       7.663  -2.999  21.934  0.00  0.00    +0.190 C 
BRANCH  37  38
ATOM     38  O   UNL     1       7.511  -4.186  22.714  0.00  0.00    -0.392 OA
ATOM     39  H   UNL     1       8.381  -4.637  22.713  0.00  0.00    +0.210 HD
ENDBRANCH  37  38
ENDBRANCH   3  37
BRANCH   1  40
ATOM     40  O   UNL     1       9.215   0.719  22.964  0.00  0.00    -0.453 OA
BRANCH  40  41
ATOM     41  C   UNL     1       9.644   1.983  23.193  0.00  0.00    +0.332 C 
ATOM     42  O   UNL     1      10.799   2.325  23.373  0.00  0.00    -0.246 OA
BRANCH  41  44
ATOM     43  C   UNL     1       7.771   3.317  22.380  0.00  0.00    +0.015 C 
ATOM     44  C   UNL     1       8.433   2.804  23.429  0.00  0.00    +0.092 C 
BRANCH  43  46
ATOM     45  C   UNL     1       6.931   5.707  22.396  0.00  0.00    +0.011 A 
ATOM     46  C   UNL     1       6.701   4.325  22.464  0.00  0.00    -0.025 A 
ATOM     47  C   UNL     1       5.382   3.874  22.637  0.00  0.00    +0.011 A 
ATOM     48  C   UNL     1       4.322   4.779  22.732  0.00  0.00    +0.046 A 
ATOM     49  C   UNL     1       4.573   6.141  22.664  0.00  0.00    +0.117 A 
ATOM     50  C   UNL     1       5.870   6.615  22.493  0.00  0.00    +0.046 A 
BRANCH  49  51
ATOM     51  O   UNL     1       3.513   6.990  22.777  0.00  0.00    -0.507 OA
ATOM     52  H   UNL     1       2.743   6.585  22.347  0.00  0.00    +0.292 HD
ENDBRANCH  49  51
ENDBRANCH  43  46
ENDBRANCH  41  44
ENDBRANCH  40  41
ENDBRANCH   1  40
TORSDOF 16
ENDMDL
MODEL 9
REMARK VINA RESULT:      -5.7      2.161      4.443
REMARK  Name = 
REMARK  16 active torsions:
REMARK  status: ('A' for Active; 'I' for Inactive)
REMARK    1  A    between atoms: C_3  and  O_47
REMARK    2  A    between atoms: C_6  and  C_7
REMARK    3  A    between atoms: C_8  and  C_9
REMARK    4  A    between atoms: C_9  and  O_11
REMARK    5  A    between atoms: O_11  and  C_12
REMARK    6  A    between atoms: C_13  and  O_46
REMARK    7  A    between atoms: C_15  and  O_24
REMARK    8  A    between atoms: C_18  and  C_22
REMARK    9  A    between atoms: C_19  and  O_21
REMARK   10  A    between atoms: C_22  and  O_23
REMARK   11  A    between atoms: O_24  and  C_25
REMARK   12  A    between atoms: C_26  and  C_38
REMARK   13  A    between atoms: C_30  and  O_37
REMARK   14  A    between atoms: C_32  and  O_36
REMARK   15  A    between atoms: C_40  and  O_45
REMARK   16  A    between atoms: C_41  and  O_44
REMARK                            x       y       z     vdW  Elec       q    Type
REMARK                         _______ _______ _______ _____ _____    ______ ____
ROOT
ATOM      1  C   UNL     1       8.561  -4.075  24.046  0.00  0.00    +0.242 C 
ATOM      2  C   UNL     1       7.712  -5.331  23.777  0.00  0.00    +0.189 C 
ATOM      3  C   UNL     1       6.243  -4.883  23.682  0.00  0.00    +0.180 C 
ATOM      4  O   UNL     1       5.857  -4.390  24.978  0.00  0.00    -0.331 OA
ATOM      5  C   UNL     1       6.576  -3.203  25.370  0.00  0.00    +0.341 C 
ATOM      6  C   UNL     1       8.108  -3.507  25.414  0.00  0.00    +0.226 C 
ENDROOT
BRANCH   6   7
ATOM      7  O   UNL     1       8.866  -2.342  25.780  0.00  0.00    -0.382 OA
ATOM      8  H   UNL     1       8.239  -1.601  25.886  0.00  0.00    +0.210 HD
ENDBRANCH   6   7
BRANCH   2   9
ATOM      9  O   UNL     1       8.196  -6.040  22.643  0.00  0.00    -0.385 OA
ATOM     10  H   UNL     1       9.147  -6.213  22.746  0.00  0.00    +0.210 HD
ENDBRANCH   2   9
BRANCH   5  11
ATOM     11  O   UNL     1       6.172  -2.792  26.690  0.00  0.00    -0.453 OA
BRANCH  11  12
ATOM     12  C   UNL     1       5.504  -1.577  26.828  0.00  0.00    +0.214 A 
ATOM     13  C   UNL     1       6.245  -0.283  27.054  0.00  0.00    +0.238 A 
ATOM     14  O   UNL     1       7.470  -0.224  27.042  0.00  0.00    -0.283 OA
ATOM     15  C   UNL     1       5.438   0.931  27.298  0.00  0.00    +0.109 A 
ATOM     16  C   UNL     1       4.067   0.843  27.095  0.00  0.00    +0.147 A 
ATOM     17  C   UNL     1       3.240   1.961  27.241  0.00  0.00    +0.092 A 
ATOM     18  C   UNL     1       3.796   3.171  27.624  0.00  0.00    +0.124 A 
ATOM     19  C   UNL     1       5.156   3.274  27.857  0.00  0.00    +0.091 A 
ATOM     20  O   UNL     1       3.440  -0.319  26.763  0.00  0.00    -0.451 OA
ATOM     21  C   UNL     1       5.981   2.160  27.701  0.00  0.00    +0.135 A 
ATOM     22  C   UNL     1       4.155  -1.507  26.730  0.00  0.00    +0.181 A 
BRANCH  22  23
ATOM     23  C   UNL     1       3.214  -2.662  26.614  0.00  0.00    +0.025 A 
ATOM     24  C   UNL     1       2.848  -3.381  27.779  0.00  0.00    +0.015 A 
ATOM     25  C   UNL     1       2.143  -4.588  27.705  0.00  0.00    +0.050 A 
ATOM     26  C   UNL     1       1.791  -5.084  26.464  0.00  0.00    +0.158 A 
ATOM     27  C   UNL     1       2.107  -4.376  25.307  0.00  0.00    +0.159 A 
ATOM     28  C   UNL     1       2.818  -3.180  25.370  0.00  0.00    +0.060 A 
BRANCH  27  29
ATOM     29  O   UNL     1       1.730  -4.918  24.108  0.00  0.00    -0.503 OA
ATOM     30  H   UNL     1       0.758  -4.874  24.059  0.00  0.00    +0.292 HD
ENDBRANCH  27  29
BRANCH  26  31
ATOM     31  O   UNL     1       1.163  -6.292  26.379  0.00  0.00    -0.503 OA
ATOM     32  H   UNL     1       1.715  -6.812  25.761  0.00  0.00    +0.292 HD
ENDBRANCH  26  31
ENDBRANCH  22  23
BRANCH  21  33
ATOM     33  O   UNL     1       7.312   2.277  27.981  0.00  0.00    -0.506 OA
ATOM     34  H   UNL     1       7.549   3.212  28.090  0.00  0.00    +0.292 HD
ENDBRANCH  21  33
BRANCH  18  35
ATOM     35  O   UNL     1       3.032   4.289  27.778  0.00  0.00    -0.507 OA
ATOM     36  H   UNL     1       2.733   4.346  28.702  0.00  0.00    +0.292 HD
ENDBRANCH  18  35
ENDBRANCH  11  12
ENDBRANCH   5  11
BRANCH   3  37
ATOM     37  C   UNL     1       5.305  -6.018  23.262  0.00  0.00    +0.190 C 
BRANCH  37  38
ATOM     38  O   UNL     1       5.477  -6.311  21.874  0.00  0.00    -0.392 OA
ATOM     39  H   UNL     1       5.008  -7.154  21.704  0.00  0.00    +0.210 HD
ENDBRANCH  37  38
ENDBRANCH   3  37
BRANCH   1  40
ATOM     40  O   UNL     1       8.261  -3.104  23.003  0.00  0.00    -0.453 OA
BRANCH  40  41
ATOM     41  C   UNL     1       9.230  -2.205  22.709  0.00  0.00    +0.332 C 
ATOM     42  O   UNL     1      10.422  -2.343  22.921  0.00  0.00    -0.246 OA
BRANCH  41  44
ATOM     43  C   UNL     1       8.273  -0.033  23.266  0.00  0.00    +0.015 C 
ATOM     44  C   UNL     1       8.542  -0.951  22.324  0.00  0.00    +0.092 C 
BRANCH  43  46
ATOM     45  C   UNL     1       6.230   1.362  23.812  0.00  0.00    +0.011 A 
ATOM     46  C   UNL     1       7.405   1.143  23.079  0.00  0.00    -0.025 A 
ATOM     47  C   UNL     1       7.772   2.084  22.103  0.00  0.00    +0.011 A 
ATOM     48  C   UNL     1       6.988   3.218  21.872  0.00  0.00    +0.046 A 
ATOM     49  C   UNL     1       5.828   3.413  22.607  0.00  0.00    +0.117 A 
ATOM     50  C   UNL     1       5.443   2.497  23.579  0.00  0.00    +0.046 A 
BRANCH  49  51
ATOM     51  O   UNL     1       5.085   4.523  22.338  0.00  0.00    -0.507 OA
ATOM     52  H   UNL     1       5.655   5.185  21.915  0.00  0.00    +0.292 HD
ENDBRANCH  49  51
ENDBRANCH  43  46
ENDBRANCH  41  44
ENDBRANCH  40  41
ENDBRANCH   1  40
TORSDOF 16
ENDMDL
