MODEL 1
REMARK VINA RESULT:      -7.6      0.000      0.000
REMARK  Name = 
REMARK  20 active torsions:
REMARK  status: ('A' for Active; 'I' for Inactive)
REMARK    1  A    between atoms: C_2  and  O_58
REMARK    2  A    between atoms: C_3  and  O_57
REMARK    3  A    between atoms: C_5  and  O_56
REMARK    4  A    between atoms: C_6  and  O_9
REMARK    5  A    between atoms: O_9  and  C_10
REMARK    6  A    between atoms: C_10  and  C_11
REMARK    7  A    between atoms: C_12  and  O_55
REMARK    8  A    between atoms: C_14  and  O_54
REMARK    9  A    between atoms: C_16  and  O_42
REMARK   10  A    between atoms: C_17  and  O_20
REMARK   11  A    between atoms: O_20  and  C_21
REMARK   12  A    between atoms: C_22  and  C_34
REMARK   13  A    between atoms: C_26  and  O_33
REMARK   14  A    between atoms: C_28  and  O_32
REMARK   15  A    between atoms: C_36  and  O_41
REMARK   16  A    between atoms: C_37  and  O_40
REMARK   17  A    between atoms: O_42  and  C_43
REMARK   18  A    between atoms: C_43  and  C_45
REMARK   19  A    between atoms: C_46  and  C_47
REMARK   20  A    between atoms: C_50  and  O_53
REMARK                            x       y       z     vdW  Elec       q    Type
REMARK                         _______ _______ _______ _____ _____    ______ ____
ROOT
ATOM      1  C   UNL     1       4.290  -0.289  28.382  0.00  0.00    +0.179 C 
ATOM      2  O   UNL     1       4.032  -0.510  26.966  0.00  0.00    -0.330 OA
ATOM      3  C   UNL     1       5.206  -1.025  26.289  0.00  0.00    +0.352 C 
ATOM      4  C   UNL     1       6.342   0.015  26.274  0.00  0.00    +0.276 C 
ATOM      5  C   UNL     1       6.639   0.435  27.720  0.00  0.00    +0.192 C 
ATOM      6  C   UNL     1       5.370   0.803  28.505  0.00  0.00    +0.178 C 
ENDROOT
BRANCH   6   7
ATOM      7  O   UNL     1       5.742   1.087  29.854  0.00  0.00    -0.386 OA
ATOM      8  H   UNL     1       5.122   1.755  30.200  0.00  0.00    +0.210 HD
ENDBRANCH   6   7
BRANCH   5   9
ATOM      9  O   UNL     1       7.557   1.537  27.761  0.00  0.00    -0.385 OA
ATOM     10  H   UNL     1       7.054   2.304  27.423  0.00  0.00    +0.210 HD
ENDBRANCH   5   9
BRANCH   4  11
ATOM     11  O   UNL     1       5.939   1.160  25.478  0.00  0.00    -0.449 OA
BRANCH  11  12
ATOM     12  C   UNL     1       6.643   1.335  24.325  0.00  0.00    +0.332 C 
ATOM     13  O   UNL     1       6.435   0.797  23.252  0.00  0.00    -0.246 OA
BRANCH  12  14
ATOM     14  C   UNL     1       7.714   2.328  24.564  0.00  0.00    +0.092 C 
ATOM     15  C   UNL     1       8.529   2.673  23.551  0.00  0.00    +0.015 C 
BRANCH  15  16
ATOM     16  C   UNL     1       9.601   3.677  23.636  0.00  0.00    -0.025 A 
ATOM     17  C   UNL     1      10.910   3.299  23.301  0.00  0.00    +0.011 A 
ATOM     18  C   UNL     1      11.961   4.219  23.379  0.00  0.00    +0.046 A 
ATOM     19  C   UNL     1      11.706   5.519  23.799  0.00  0.00    +0.117 A 
ATOM     20  C   UNL     1      10.423   5.909  24.157  0.00  0.00    +0.046 A 
ATOM     21  C   UNL     1       9.374   4.986  24.080  0.00  0.00    +0.011 A 
BRANCH  19  22
ATOM     22  O   UNL     1      12.754   6.390  23.849  0.00  0.00    -0.507 OA
ATOM     23  H   UNL     1      13.354   6.190  23.113  0.00  0.00    +0.292 HD
ENDBRANCH  19  22
ENDBRANCH  15  16
ENDBRANCH  12  14
ENDBRANCH  11  12
ENDBRANCH   4  11
BRANCH   3  24
ATOM     24  O   UNL     1       4.890  -1.479  24.968  0.00  0.00    -0.452 OA
BRANCH  24  25
ATOM     25  C   UNL     1       4.639  -2.851  24.856  0.00  0.00    +0.214 A 
ATOM     26  C   UNL     1       3.295  -3.428  25.222  0.00  0.00    +0.238 A 
ATOM     27  O   UNL     1       2.388  -2.716  25.639  0.00  0.00    -0.283 OA
ATOM     28  C   UNL     1       3.106  -4.878  25.067  0.00  0.00    +0.109 A 
ATOM     29  C   UNL     1       4.218  -5.641  24.732  0.00  0.00    +0.147 A 
ATOM     30  C   UNL     1       4.131  -7.037  24.693  0.00  0.00    +0.092 A 
ATOM     31  C   UNL     1       2.916  -7.655  24.974  0.00  0.00    +0.124 A 
ATOM     32  C   UNL     1       1.782  -6.905  25.258  0.00  0.00    +0.091 A 
ATOM     33  O   UNL     1       5.436  -5.093  24.422  0.00  0.00    -0.451 OA
ATOM     34  C   UNL     1       1.874  -5.515  25.294  0.00  0.00    +0.135 A 
ATOM     35  C   UNL     1       5.603  -3.713  24.471  0.00  0.00    +0.181 A 
BRANCH  35  36
ATOM     36  C   UNL     1       6.981  -3.294  24.081  0.00  0.00    +0.025 A 
ATOM     37  C   UNL     1       8.079  -3.705  24.866  0.00  0.00    +0.015 A 
ATOM     38  C   UNL     1       9.391  -3.361  24.522  0.00  0.00    +0.050 A 
ATOM     39  C   UNL     1       9.616  -2.601  23.388  0.00  0.00    +0.158 A 
ATOM     40  C   UNL     1       8.553  -2.181  22.598  0.00  0.00    +0.159 A 
ATOM     41  C   UNL     1       7.244  -2.533  22.926  0.00  0.00    +0.060 A 
BRANCH  40  42
ATOM     42  O   UNL     1       8.841  -1.419  21.497  0.00  0.00    -0.503 OA
ATOM     43  H   UNL     1       9.671  -0.941  21.672  0.00  0.00    +0.292 HD
ENDBRANCH  40  42
BRANCH  39  44
ATOM     44  O   UNL     1      10.896  -2.271  23.048  0.00  0.00    -0.503 OA
ATOM     45  H   UNL     1      10.937  -1.299  23.157  0.00  0.00    +0.292 HD
ENDBRANCH  39  44
ENDBRANCH  35  36
BRANCH  34  46
ATOM     46  O   UNL     1       0.736  -4.794  25.525  0.00  0.00    -0.506 OA
ATOM     47  H   UNL     1       0.676  -4.559  26.466  0.00  0.00    +0.292 HD
ENDBRANCH  34  46
BRANCH  31  48
ATOM     48  O   UNL     1       2.784  -9.011  24.975  0.00  0.00    -0.507 OA
ATOM     49  H   UNL     1       3.406  -9.394  25.615  0.00  0.00    +0.292 HD
ENDBRANCH  31  48
ENDBRANCH  24  25
ENDBRANCH   3  24
BRANCH   1  50
ATOM     50  C   UNL     1       4.566  -1.651  29.074  0.00  0.00    +0.197 C 
BRANCH  50  51
ATOM     51  O   UNL     1       3.604  -2.697  28.923  0.00  0.00    -0.346 OA
BRANCH  51  54
ATOM     52  C   UNL     1       5.786  -5.461  28.040  0.00  0.00    +0.197 C 
ATOM     53  O   UNL     1       4.992  -4.284  27.923  0.00  0.00    -0.346 OA
ATOM     54  C   UNL     1       4.282  -3.958  29.129  0.00  0.00    +0.281 C 
ATOM     55  C   UNL     1       3.291  -5.097  29.461  0.00  0.00    +0.201 C 
ATOM     56  C   UNL     1       4.107  -6.396  29.632  0.00  0.00    +0.178 C 
ATOM     57  C   UNL     1       4.925  -6.681  28.362  0.00  0.00    +0.171 C 
BRANCH  57  58
ATOM     58  O   UNL     1       5.719  -7.857  28.537  0.00  0.00    -0.387 OA
ATOM     59  H   UNL     1       5.795  -8.318  27.684  0.00  0.00    +0.210 HD
ENDBRANCH  57  58
BRANCH  56  60
ATOM     60  O   UNL     1       3.278  -7.517  29.950  0.00  0.00    -0.386 OA
ATOM     61  H   UNL     1       3.877  -8.269  30.126  0.00  0.00    +0.210 HD
ENDBRANCH  56  60
BRANCH  55  62
ATOM     62  O   UNL     1       2.342  -5.260  28.389  0.00  0.00    -0.384 OA
ATOM     63  H   UNL     1       2.856  -5.480  27.590  0.00  0.00    +0.210 HD
ENDBRANCH  55  62
ENDBRANCH  51  54
ENDBRANCH  50  51
ENDBRANCH   1  50
TORSDOF 20
ENDMDL
MODEL 2
REMARK VINA RESULT:      -7.6      1.860      9.266
REMARK  Name = 
REMARK  20 active torsions:
REMARK  status: ('A' for Active; 'I' for Inactive)
REMARK    1  A    between atoms: C_2  and  O_58
REMARK    2  A    between atoms: C_3  and  O_57
REMARK    3  A    between atoms: C_5  and  O_56
REMARK    4  A    between atoms: C_6  and  O_9
REMARK    5  A    between atoms: O_9  and  C_10
REMARK    6  A    between atoms: C_10  and  C_11
REMARK    7  A    between atoms: C_12  and  O_55
REMARK    8  A    between atoms: C_14  and  O_54
REMARK    9  A    between atoms: C_16  and  O_42
REMARK   10  A    between atoms: C_17  and  O_20
REMARK   11  A    between atoms: O_20  and  C_21
REMARK   12  A    between atoms: C_22  and  C_34
REMARK   13  A    between atoms: C_26  and  O_33
REMARK   14  A    between atoms: C_28  and  O_32
REMARK   15  A    between atoms: C_36  and  O_41
REMARK   16  A    between atoms: C_37  and  O_40
REMARK   17  A    between atoms: O_42  and  C_43
REMARK   18  A    between atoms: C_43  and  C_45
REMARK   19  A    between atoms: C_46  and  C_47
REMARK   20  A    between atoms: C_50  and  O_53
REMARK                            x       y       z     vdW  Elec       q    Type
REMARK                         _______ _______ _______ _____ _____    ______ ____
ROOT
ATOM      1  C   UNL     1       7.517  -0.676  22.539  0.00  0.00    +0.179 C 
ATOM      2  O   UNL     1       6.834  -1.484  23.540  0.00  0.00    -0.330 OA
ATOM      3  C   UNL     1       7.601  -1.562  24.768  0.00  0.00    +0.352 C 
ATOM      4  C   UNL     1       8.922  -2.323  24.554  0.00  0.00    +0.276 C 
ATOM      5  C   UNL     1       9.702  -1.639  23.421  0.00  0.00    +0.192 C 
ATOM      6  C   UNL     1       8.838  -1.381  22.177  0.00  0.00    +0.178 C 
ENDROOT
BRANCH   6   7
ATOM      7  O   UNL     1       9.624  -0.664  21.225  0.00  0.00    -0.386 OA
ATOM      8  H   UNL     1       9.095   0.094  20.912  0.00  0.00    +0.210 HD
ENDBRANCH   6   7
BRANCH   5   9
ATOM      9  O   UNL     1      10.853  -2.409  23.047  0.00  0.00    -0.385 OA
ATOM     10  H   UNL     1      10.520  -3.317  22.905  0.00  0.00    +0.210 HD
ENDBRANCH   5   9
BRANCH   4  11
ATOM     11  O   UNL     1       8.635  -3.706  24.218  0.00  0.00    -0.449 OA
BRANCH  11  12
ATOM     12  C   UNL     1       9.249  -4.628  25.011  0.00  0.00    +0.332 C 
ATOM     13  O   UNL     1      10.378  -5.066  24.885  0.00  0.00    -0.246 OA
BRANCH  12  14
ATOM     14  C   UNL     1       8.324  -5.012  26.101  0.00  0.00    +0.092 C 
ATOM     15  C   UNL     1       7.030  -5.241  25.816  0.00  0.00    +0.015 C 
BRANCH  15  16
ATOM     16  C   UNL     1       6.015  -5.672  26.790  0.00  0.00    -0.025 A 
ATOM     17  C   UNL     1       6.020  -5.101  28.071  0.00  0.00    +0.011 A 
ATOM     18  C   UNL     1       5.079  -5.490  29.030  0.00  0.00    +0.046 A 
ATOM     19  C   UNL     1       4.135  -6.459  28.712  0.00  0.00    +0.117 A 
ATOM     20  C   UNL     1       4.124  -7.054  27.458  0.00  0.00    +0.046 A 
ATOM     21  C   UNL     1       5.068  -6.664  26.501  0.00  0.00    +0.011 A 
BRANCH  19  22
ATOM     22  O   UNL     1       3.226  -6.802  29.669  0.00  0.00    -0.507 OA
ATOM     23  H   UNL     1       3.574  -6.532  30.534  0.00  0.00    +0.292 HD
ENDBRANCH  19  22
ENDBRANCH  15  16
ENDBRANCH  12  14
ENDBRANCH  11  12
ENDBRANCH   4  11
BRANCH   3  24
ATOM     24  O   UNL     1       6.829  -2.136  25.830  0.00  0.00    -0.452 OA
BRANCH  24  25
ATOM     25  C   UNL     1       6.029  -1.231  26.537  0.00  0.00    +0.214 A 
ATOM     26  C   UNL     1       6.628  -0.027  27.217  0.00  0.00    +0.238 A 
ATOM     27  O   UNL     1       7.835   0.189  27.182  0.00  0.00    -0.283 OA
ATOM     28  C   UNL     1       5.719   0.882  27.931  0.00  0.00    +0.109 A 
ATOM     29  C   UNL     1       4.389   0.498  28.054  0.00  0.00    +0.147 A 
ATOM     30  C   UNL     1       3.505   1.256  28.828  0.00  0.00    +0.092 A 
ATOM     31  C   UNL     1       3.962   2.410  29.458  0.00  0.00    +0.124 A 
ATOM     32  C   UNL     1       5.274   2.837  29.301  0.00  0.00    +0.091 A 
ATOM     33  O   UNL     1       3.872  -0.614  27.442  0.00  0.00    -0.451 OA
ATOM     34  C   UNL     1       6.151   2.079  28.527  0.00  0.00    +0.135 A 
ATOM     35  C   UNL     1       4.701  -1.432  26.683  0.00  0.00    +0.181 A 
BRANCH  35  36
ATOM     36  C   UNL     1       3.966  -2.578  26.072  0.00  0.00    +0.025 A 
ATOM     37  C   UNL     1       2.911  -3.183  26.786  0.00  0.00    +0.015 A 
ATOM     38  C   UNL     1       2.173  -4.241  26.241  0.00  0.00    +0.050 A 
ATOM     39  C   UNL     1       2.486  -4.702  24.975  0.00  0.00    +0.158 A 
ATOM     40  C   UNL     1       3.522  -4.125  24.250  0.00  0.00    +0.159 A 
ATOM     41  C   UNL     1       4.251  -3.061  24.780  0.00  0.00    +0.060 A 
BRANCH  40  42
ATOM     42  O   UNL     1       3.791  -4.637  23.009  0.00  0.00    -0.503 OA
ATOM     43  H   UNL     1       4.129  -5.542  23.125  0.00  0.00    +0.292 HD
ENDBRANCH  40  42
BRANCH  39  44
ATOM     44  O   UNL     1       1.764  -5.728  24.440  0.00  0.00    -0.503 OA
ATOM     45  H   UNL     1       0.833  -5.432  24.499  0.00  0.00    +0.292 HD
ENDBRANCH  39  44
ENDBRANCH  35  36
BRANCH  34  46
ATOM     46  O   UNL     1       7.423   2.543  28.344  0.00  0.00    -0.506 OA
ATOM     47  H   UNL     1       8.066   1.850  28.569  0.00  0.00    +0.292 HD
ENDBRANCH  34  46
BRANCH  31  48
ATOM     48  O   UNL     1       3.147   3.170  30.243  0.00  0.00    -0.507 OA
ATOM     49  H   UNL     1       3.204   4.098  29.962  0.00  0.00    +0.292 HD
ENDBRANCH  31  48
ENDBRANCH  24  25
ENDBRANCH   3  24
BRANCH   1  50
ATOM     50  C   UNL     1       7.600   0.793  23.033  0.00  0.00    +0.197 C 
BRANCH  50  51
ATOM     51  O   UNL     1       8.822   1.508  22.841  0.00  0.00    -0.346 OA
BRANCH  51  54
ATOM     52  C   UNL     1       9.806   4.891  23.715  0.00  0.00    +0.197 C 
ATOM     53  O   UNL     1       9.892   3.504  23.404  0.00  0.00    -0.346 OA
ATOM     54  C   UNL     1       8.608   2.876  23.259  0.00  0.00    +0.281 C 
ATOM     55  C   UNL     1       7.847   2.955  24.602  0.00  0.00    +0.201 C 
ATOM     56  C   UNL     1       7.696   4.446  24.972  0.00  0.00    +0.178 C 
ATOM     57  C   UNL     1       9.077   5.118  25.038  0.00  0.00    +0.171 C 
BRANCH  57  58
ATOM     58  O   UNL     1       8.936   6.511  25.331  0.00  0.00    -0.387 OA
ATOM     59  H   UNL     1       8.947   6.634  26.296  0.00  0.00    +0.210 HD
ENDBRANCH  57  58
BRANCH  56  60
ATOM     60  O   UNL     1       6.996   4.629  26.204  0.00  0.00    -0.386 OA
ATOM     61  H   UNL     1       6.497   3.806  26.370  0.00  0.00    +0.210 HD
ENDBRANCH  56  60
BRANCH  55  62
ATOM     62  O   UNL     1       8.587   2.274  25.634  0.00  0.00    -0.384 OA
ATOM     63  H   UNL     1       9.177   2.936  26.040  0.00  0.00    +0.210 HD
ENDBRANCH  55  62
ENDBRANCH  51  54
ENDBRANCH  50  51
ENDBRANCH   1  50
TORSDOF 20
ENDMDL
MODEL 3
REMARK VINA RESULT:      -7.5      2.287      9.333
REMARK  Name = 
REMARK  20 active torsions:
REMARK  status: ('A' for Active; 'I' for Inactive)
REMARK    1  A    between atoms: C_2  and  O_58
REMARK    2  A    between atoms: C_3  and  O_57
REMARK    3  A    between atoms: C_5  and  O_56
REMARK    4  A    between atoms: C_6  and  O_9
REMARK    5  A    between atoms: O_9  and  C_10
REMARK    6  A    between atoms: C_10  and  C_11
REMARK    7  A    between atoms: C_12  and  O_55
REMARK    8  A    between atoms: C_14  and  O_54
REMARK    9  A    between atoms: C_16  and  O_42
REMARK   10  A    between atoms: C_17  and  O_20
REMARK   11  A    between atoms: O_20  and  C_21
REMARK   12  A    between atoms: C_22  and  C_34
REMARK   13  A    between atoms: C_26  and  O_33
REMARK   14  A    between atoms: C_28  and  O_32
REMARK   15  A    between atoms: C_36  and  O_41
REMARK   16  A    between atoms: C_37  and  O_40
REMARK   17  A    between atoms: O_42  and  C_43
REMARK   18  A    between atoms: C_43  and  C_45
REMARK   19  A    between atoms: C_46  and  C_47
REMARK   20  A    between atoms: C_50  and  O_53
REMARK                            x       y       z     vdW  Elec       q    Type
REMARK                         _______ _______ _______ _____ _____    ______ ____
ROOT
ATOM      1  C   UNL     1       8.093  -0.279  22.107  0.00  0.00    +0.179 C 
ATOM      2  O   UNL     1       6.892  -0.944  22.595  0.00  0.00    -0.330 OA
ATOM      3  C   UNL     1       7.056  -1.389  23.965  0.00  0.00    +0.352 C 
ATOM      4  C   UNL     1       8.126  -2.492  24.069  0.00  0.00    +0.276 C 
ATOM      5  C   UNL     1       9.435  -1.960  23.468  0.00  0.00    +0.192 C 
ATOM      6  C   UNL     1       9.235  -1.313  22.089  0.00  0.00    +0.178 C 
ENDROOT
BRANCH   6   7
ATOM      7  O   UNL     1      10.485  -0.771  21.661  0.00  0.00    -0.386 OA
ATOM      8  H   UNL     1      10.324   0.138  21.347  0.00  0.00    +0.210 HD
ENDBRANCH   6   7
BRANCH   5   9
ATOM      9  O   UNL     1      10.417  -3.001  23.364  0.00  0.00    -0.385 OA
ATOM     10  H   UNL     1      10.991  -2.740  22.618  0.00  0.00    +0.210 HD
ENDBRANCH   5   9
BRANCH   4  11
ATOM     11  O   UNL     1       7.675  -3.673  23.356  0.00  0.00    -0.449 OA
BRANCH  11  12
ATOM     12  C   UNL     1       7.926  -4.855  23.986  0.00  0.00    +0.332 C 
ATOM     13  O   UNL     1       8.972  -5.202  24.502  0.00  0.00    -0.246 OA
BRANCH  12  14
ATOM     14  C   UNL     1       6.691  -5.671  23.978  0.00  0.00    +0.092 C 
ATOM     15  C   UNL     1       5.496  -5.057  23.915  0.00  0.00    +0.015 C 
BRANCH  15  16
ATOM     16  C   UNL     1       4.196  -5.743  23.854  0.00  0.00    -0.025 A 
ATOM     17  C   UNL     1       3.094  -5.060  23.321  0.00  0.00    +0.011 A 
ATOM     18  C   UNL     1       1.838  -5.672  23.255  0.00  0.00    +0.046 A 
ATOM     19  C   UNL     1       1.679  -6.967  23.731  0.00  0.00    +0.117 A 
ATOM     20  C   UNL     1       2.751  -7.655  24.283  0.00  0.00    +0.046 A 
ATOM     21  C   UNL     1       4.006  -7.040  24.350  0.00  0.00    +0.011 A 
BRANCH  19  22
ATOM     22  O   UNL     1       0.443  -7.535  23.637  0.00  0.00    -0.507 OA
ATOM     23  H   UNL     1       0.518  -8.348  23.112  0.00  0.00    +0.292 HD
ENDBRANCH  19  22
ENDBRANCH  15  16
ENDBRANCH  12  14
ENDBRANCH  11  12
ENDBRANCH   4  11
BRANCH   3  24
ATOM     24  O   UNL     1       5.809  -1.811  24.530  0.00  0.00    -0.452 OA
BRANCH  24  25
ATOM     25  C   UNL     1       5.367  -1.058  25.623  0.00  0.00    +0.214 A 
ATOM     26  C   UNL     1       5.143   0.428  25.505  0.00  0.00    +0.238 A 
ATOM     27  O   UNL     1       5.353   1.022  24.453  0.00  0.00    -0.283 OA
ATOM     28  C   UNL     1       4.668   1.148  26.696  0.00  0.00    +0.109 A 
ATOM     29  C   UNL     1       4.594   0.440  27.890  0.00  0.00    +0.147 A 
ATOM     30  C   UNL     1       4.271   1.097  29.082  0.00  0.00    +0.092 A 
ATOM     31  C   UNL     1       4.004   2.463  29.059  0.00  0.00    +0.124 A 
ATOM     32  C   UNL     1       4.021   3.175  27.867  0.00  0.00    +0.091 A 
ATOM     33  O   UNL     1       4.822  -0.910  27.975  0.00  0.00    -0.451 OA
ATOM     34  C   UNL     1       4.342   2.514  26.682  0.00  0.00    +0.135 A 
ATOM     35  C   UNL     1       5.179  -1.622  26.835  0.00  0.00    +0.181 A 
BRANCH  35  36
ATOM     36  C   UNL     1       5.363  -3.077  27.109  0.00  0.00    +0.025 A 
ATOM     37  C   UNL     1       4.230  -3.898  27.282  0.00  0.00    +0.015 A 
ATOM     38  C   UNL     1       4.353  -5.273  27.511  0.00  0.00    +0.050 A 
ATOM     39  C   UNL     1       5.614  -5.839  27.568  0.00  0.00    +0.158 A 
ATOM     40  C   UNL     1       6.748  -5.053  27.402  0.00  0.00    +0.159 A 
ATOM     41  C   UNL     1       6.633  -3.685  27.158  0.00  0.00    +0.060 A 
BRANCH  40  42
ATOM     42  O   UNL     1       7.967  -5.671  27.483  0.00  0.00    -0.503 OA
ATOM     43  H   UNL     1       8.654  -4.981  27.489  0.00  0.00    +0.292 HD
ENDBRANCH  40  42
BRANCH  39  44
ATOM     44  O   UNL     1       5.736  -7.181  27.784  0.00  0.00    -0.503 OA
ATOM     45  H   UNL     1       6.225  -7.513  27.004  0.00  0.00    +0.292 HD
ENDBRANCH  39  44
ENDBRANCH  35  36
BRANCH  34  46
ATOM     46  O   UNL     1       4.304   3.222  25.513  0.00  0.00    -0.506 OA
ATOM     47  H   UNL     1       4.803   4.050  25.609  0.00  0.00    +0.292 HD
ENDBRANCH  34  46
BRANCH  31  48
ATOM     48  O   UNL     1       3.710   3.155  30.196  0.00  0.00    -0.507 OA
ATOM     49  H   UNL     1       2.747   3.270  30.261  0.00  0.00    +0.292 HD
ENDBRANCH  31  48
ENDBRANCH  24  25
ENDBRANCH   3  24
BRANCH   1  50
ATOM     50  C   UNL     1       8.321   1.028  22.911  0.00  0.00    +0.197 C 
BRANCH  50  51
ATOM     51  O   UNL     1       8.445   2.257  22.192  0.00  0.00    -0.346 OA
BRANCH  51  54
ATOM     52  C   UNL     1       8.257   3.747  25.497  0.00  0.00    +0.197 C 
ATOM     53  O   UNL     1       8.243   2.772  24.460  0.00  0.00    -0.346 OA
ATOM     54  C   UNL     1       8.362   3.341  23.146  0.00  0.00    +0.281 C 
ATOM     55  C   UNL     1       7.145   4.255  22.874  0.00  0.00    +0.201 C 
ATOM     56  C   UNL     1       7.131   5.355  23.957  0.00  0.00    +0.178 C 
ATOM     57  C   UNL     1       7.090   4.722  25.357  0.00  0.00    +0.171 C 
BRANCH  57  58
ATOM     58  O   UNL     1       7.128   5.739  26.362  0.00  0.00    -0.387 OA
ATOM     59  H   UNL     1       8.038   6.072  26.441  0.00  0.00    +0.210 HD
ENDBRANCH  57  58
BRANCH  56  60
ATOM     60  O   UNL     1       6.040   6.263  23.790  0.00  0.00    -0.386 OA
ATOM     61  H   UNL     1       6.358   7.142  24.077  0.00  0.00    +0.210 HD
ENDBRANCH  56  60
BRANCH  55  62
ATOM     62  O   UNL     1       5.924   3.493  22.945  0.00  0.00    -0.384 OA
ATOM     63  H   UNL     1       5.920   2.898  22.171  0.00  0.00    +0.210 HD
ENDBRANCH  55  62
ENDBRANCH  51  54
ENDBRANCH  50  51
ENDBRANCH   1  50
TORSDOF 20
ENDMDL
MODEL 4
REMARK VINA RESULT:      -7.3      2.197      6.864
REMARK  Name = 
REMARK  20 active torsions:
REMARK  status: ('A' for Active; 'I' for Inactive)
REMARK    1  A    between atoms: C_2  and  O_58
REMARK    2  A    between atoms: C_3  and  O_57
REMARK    3  A    between atoms: C_5  and  O_56
REMARK    4  A    between atoms: C_6  and  O_9
REMARK    5  A    between atoms: O_9  and  C_10
REMARK    6  A    between atoms: C_10  and  C_11
REMARK    7  A    between atoms: C_12  and  O_55
REMARK    8  A    between atoms: C_14  and  O_54
REMARK    9  A    between atoms: C_16  and  O_42
REMARK   10  A    between atoms: C_17  and  O_20
REMARK   11  A    between atoms: O_20  and  C_21
REMARK   12  A    between atoms: C_22  and  C_34
REMARK   13  A    between atoms: C_26  and  O_33
REMARK   14  A    between atoms: C_28  and  O_32
REMARK   15  A    between atoms: C_36  and  O_41
REMARK   16  A    between atoms: C_37  and  O_40
REMARK   17  A    between atoms: O_42  and  C_43
REMARK   18  A    between atoms: C_43  and  C_45
REMARK   19  A    between atoms: C_46  and  C_47
REMARK   20  A    between atoms: C_50  and  O_53
REMARK                            x       y       z     vdW  Elec       q    Type
REMARK                         _______ _______ _______ _____ _____    ______ ____
ROOT
ATOM      1  C   UNL     1       4.539  -5.849  23.675  0.00  0.00    +0.179 C 
ATOM      2  O   UNL     1       5.189  -5.457  24.919  0.00  0.00    -0.330 OA
ATOM      3  C   UNL     1       5.853  -4.174  24.785  0.00  0.00    +0.352 C 
ATOM      4  C   UNL     1       7.028  -4.255  23.792  0.00  0.00    +0.276 C 
ATOM      5  C   UNL     1       6.497  -4.780  22.450  0.00  0.00    +0.192 C 
ATOM      6  C   UNL     1       5.631  -6.039  22.605  0.00  0.00    +0.178 C 
ENDROOT
BRANCH   6   7
ATOM      7  O   UNL     1       5.114  -6.391  21.322  0.00  0.00    -0.386 OA
ATOM      8  H   UNL     1       5.259  -7.347  21.194  0.00  0.00    +0.210 HD
ENDBRANCH   6   7
BRANCH   5   9
ATOM      9  O   UNL     1       7.573  -5.054  21.541  0.00  0.00    -0.385 OA
ATOM     10  H   UNL     1       8.281  -5.443  22.090  0.00  0.00    +0.210 HD
ENDBRANCH   5   9
BRANCH   4  11
ATOM     11  O   UNL     1       8.050  -5.138  24.322  0.00  0.00    -0.449 OA
BRANCH  11  12
ATOM     12  C   UNL     1       9.230  -4.531  24.629  0.00  0.00    +0.332 C 
ATOM     13  O   UNL     1      10.126  -4.978  25.321  0.00  0.00    -0.246 OA
BRANCH  12  14
ATOM     14  C   UNL     1       9.281  -3.216  23.950  0.00  0.00    +0.092 C 
ATOM     15  C   UNL     1       9.811  -2.162  24.597  0.00  0.00    +0.015 C 
BRANCH  15  16
ATOM     16  C   UNL     1       9.966  -0.814  24.029  0.00  0.00    -0.025 A 
ATOM     17  C   UNL     1       9.723  -0.624  22.661  0.00  0.00    +0.011 A 
ATOM     18  C   UNL     1       9.870   0.640  22.078  0.00  0.00    +0.046 A 
ATOM     19  C   UNL     1      10.269   1.715  22.862  0.00  0.00    +0.117 A 
ATOM     20  C   UNL     1      10.537   1.546  24.214  0.00  0.00    +0.046 A 
ATOM     21  C   UNL     1      10.391   0.281  24.793  0.00  0.00    +0.011 A 
BRANCH  19  22
ATOM     22  O   UNL     1      10.388   2.933  22.261  0.00  0.00    -0.507 OA
ATOM     23  H   UNL     1       9.497   3.280  22.092  0.00  0.00    +0.292 HD
ENDBRANCH  19  22
ENDBRANCH  15  16
ENDBRANCH  12  14
ENDBRANCH  11  12
ENDBRANCH   4  11
BRANCH   3  24
ATOM     24  O   UNL     1       6.273  -3.669  26.058  0.00  0.00    -0.452 OA
BRANCH  24  25
ATOM     25  C   UNL     1       5.507  -2.610  26.558  0.00  0.00    +0.214 A 
ATOM     26  C   UNL     1       5.770  -1.189  26.130  0.00  0.00    +0.238 A 
ATOM     27  O   UNL     1       6.669  -0.918  25.341  0.00  0.00    -0.283 OA
ATOM     28  C   UNL     1       4.914  -0.133  26.692  0.00  0.00    +0.109 A 
ATOM     29  C   UNL     1       4.015  -0.495  27.688  0.00  0.00    +0.147 A 
ATOM     30  C   UNL     1       3.265   0.482  28.350  0.00  0.00    +0.092 A 
ATOM     31  C   UNL     1       3.410   1.819  27.989  0.00  0.00    +0.124 A 
ATOM     32  C   UNL     1       4.264   2.191  26.958  0.00  0.00    +0.091 A 
ATOM     33  O   UNL     1       3.809  -1.794  28.075  0.00  0.00    -0.451 OA
ATOM     34  C   UNL     1       5.008   1.213  26.301  0.00  0.00    +0.135 A 
ATOM     35  C   UNL     1       4.544  -2.815  27.482  0.00  0.00    +0.181 A 
BRANCH  35  36
ATOM     36  C   UNL     1       4.172  -4.162  28.005  0.00  0.00    +0.025 A 
ATOM     37  C   UNL     1       5.119  -4.906  28.738  0.00  0.00    +0.015 A 
ATOM     38  C   UNL     1       4.805  -6.161  29.274  0.00  0.00    +0.050 A 
ATOM     39  C   UNL     1       3.538  -6.681  29.079  0.00  0.00    +0.158 A 
ATOM     40  C   UNL     1       2.585  -5.969  28.360  0.00  0.00    +0.159 A 
ATOM     41  C   UNL     1       2.886  -4.712  27.837  0.00  0.00    +0.060 A 
BRANCH  40  42
ATOM     42  O   UNL     1       1.355  -6.546  28.190  0.00  0.00    -0.503 OA
ATOM     43  H   UNL     1       0.805  -6.310  28.958  0.00  0.00    +0.292 HD
ENDBRANCH  40  42
BRANCH  39  44
ATOM     44  O   UNL     1       3.228  -7.901  29.607  0.00  0.00    -0.503 OA
ATOM     45  H   UNL     1       3.262  -7.766  30.576  0.00  0.00    +0.292 HD
ENDBRANCH  39  44
ENDBRANCH  35  36
BRANCH  34  46
ATOM     46  O   UNL     1       5.804   1.594  25.257  0.00  0.00    -0.506 OA
ATOM     47  H   UNL     1       6.064   0.817  24.735  0.00  0.00    +0.292 HD
ENDBRANCH  34  46
BRANCH  31  48
ATOM     48  O   UNL     1       2.721   2.811  28.619  0.00  0.00    -0.507 OA
ATOM     49  H   UNL     1       2.811   3.636  28.113  0.00  0.00    +0.292 HD
ENDBRANCH  31  48
ENDBRANCH  24  25
ENDBRANCH   3  24
BRANCH   1  50
ATOM     50  C   UNL     1       3.391  -4.853  23.359  0.00  0.00    +0.197 C 
BRANCH  50  51
ATOM     51  O   UNL     1       2.125  -5.380  22.957  0.00  0.00    -0.346 OA
BRANCH  51  54
ATOM     52  C   UNL     1       0.987  -8.822  22.752  0.00  0.00    +0.197 C 
ATOM     53  O   UNL     1       1.049  -7.412  22.558  0.00  0.00    -0.346 OA
ATOM     54  C   UNL     1       2.092  -6.781  23.318  0.00  0.00    +0.281 C 
ATOM     55  C   UNL     1       1.816  -6.981  24.826  0.00  0.00    +0.201 C 
ATOM     56  C   UNL     1       1.772  -8.499  25.099  0.00  0.00    +0.178 C 
ATOM     57  C   UNL     1       0.708  -9.167  24.214  0.00  0.00    +0.171 C 
BRANCH  57  58
ATOM     58  O   UNL     1       0.700 -10.581  24.429  0.00  0.00    -0.387 OA
ATOM     59  H   UNL     1       0.815 -10.757  25.379  0.00  0.00    +0.210 HD
ENDBRANCH  57  58
BRANCH  56  60
ATOM     60  O   UNL     1       1.527  -8.794  26.476  0.00  0.00    -0.386 OA
ATOM     61  H   UNL     1       2.075  -9.571  26.700  0.00  0.00    +0.210 HD
ENDBRANCH  56  60
BRANCH  55  62
ATOM     62  O   UNL     1       0.553  -6.389  25.184  0.00  0.00    -0.384 OA
ATOM     63  H   UNL     1       0.113  -6.139  24.349  0.00  0.00    +0.210 HD
ENDBRANCH  55  62
ENDBRANCH  51  54
ENDBRANCH  50  51
ENDBRANCH   1  50
TORSDOF 20
ENDMDL
MODEL 5
REMARK VINA RESULT:      -7.3      1.960      5.385
REMARK  Name = 
REMARK  20 active torsions:
REMARK  status: ('A' for Active; 'I' for Inactive)
REMARK    1  A    between atoms: C_2  and  O_58
REMARK    2  A    between atoms: C_3  and  O_57
REMARK    3  A    between atoms: C_5  and  O_56
REMARK    4  A    between atoms: C_6  and  O_9
REMARK    5  A    between atoms: O_9  and  C_10
REMARK    6  A    between atoms: C_10  and  C_11
REMARK    7  A    between atoms: C_12  and  O_55
REMARK    8  A    between atoms: C_14  and  O_54
REMARK    9  A    between atoms: C_16  and  O_42
REMARK   10  A    between atoms: C_17  and  O_20
REMARK   11  A    between atoms: O_20  and  C_21
REMARK   12  A    between atoms: C_22  and  C_34
REMARK   13  A    between atoms: C_26  and  O_33
REMARK   14  A    between atoms: C_28  and  O_32
REMARK   15  A    between atoms: C_36  and  O_41
REMARK   16  A    between atoms: C_37  and  O_40
REMARK   17  A    between atoms: O_42  and  C_43
REMARK   18  A    between atoms: C_43  and  C_45
REMARK   19  A    between atoms: C_46  and  C_47
REMARK   20  A    between atoms: C_50  and  O_53
REMARK                            x       y       z     vdW  Elec       q    Type
REMARK                         _______ _______ _______ _____ _____    ______ ____
ROOT
ATOM      1  C   UNL     1       9.435  -1.156  23.831  0.00  0.00    +0.179 C 
ATOM      2  O   UNL     1       8.999  -0.851  25.187  0.00  0.00    -0.330 OA
ATOM      3  C   UNL     1       7.562  -0.992  25.323  0.00  0.00    +0.352 C 
ATOM      4  C   UNL     1       6.816   0.057  24.477  0.00  0.00    +0.276 C 
ATOM      5  C   UNL     1       7.280  -0.073  23.019  0.00  0.00    +0.192 C 
ATOM      6  C   UNL     1       8.810  -0.115  22.883  0.00  0.00    +0.178 C 
ENDROOT
BRANCH   6   7
ATOM      7  O   UNL     1       9.134  -0.330  21.510  0.00  0.00    -0.386 OA
ATOM      8  H   UNL     1      10.099  -0.448  21.446  0.00  0.00    +0.210 HD
ENDBRANCH   6   7
BRANCH   5   9
ATOM      9  O   UNL     1       6.762   0.996  22.214  0.00  0.00    -0.385 OA
ATOM     10  H   UNL     1       6.813   0.673  21.293  0.00  0.00    +0.210 HD
ENDBRANCH   5   9
BRANCH   4  11
ATOM     11  O   UNL     1       7.100   1.384  24.990  0.00  0.00    -0.449 OA
BRANCH  11  12
ATOM     12  C   UNL     1       6.514   2.403  24.302  0.00  0.00    +0.332 C 
ATOM     13  O   UNL     1       5.338   2.505  24.004  0.00  0.00    -0.246 OA
BRANCH  12  14
ATOM     14  C   UNL     1       7.543   3.418  23.983  0.00  0.00    +0.092 C 
ATOM     15  C   UNL     1       8.821   3.193  24.338  0.00  0.00    +0.015 C 
BRANCH  15  16
ATOM     16  C   UNL     1       9.949   4.091  24.045  0.00  0.00    -0.025 A 
ATOM     17  C   UNL     1      11.117   3.551  23.486  0.00  0.00    +0.011 A 
ATOM     18  C   UNL     1      12.216   4.368  23.203  0.00  0.00    +0.046 A 
ATOM     19  C   UNL     1      12.153   5.727  23.485  0.00  0.00    +0.117 A 
ATOM     20  C   UNL     1      11.015   6.280  24.058  0.00  0.00    +0.046 A 
ATOM     21  C   UNL     1       9.918   5.460  24.342  0.00  0.00    +0.011 A 
BRANCH  19  22
ATOM     22  O   UNL     1      13.240   6.493  23.181  0.00  0.00    -0.507 OA
ATOM     23  H   UNL     1      14.011   6.129  23.644  0.00  0.00    +0.292 HD
ENDBRANCH  19  22
ENDBRANCH  15  16
ENDBRANCH  12  14
ENDBRANCH  11  12
ENDBRANCH   4  11
BRANCH   3  24
ATOM     24  O   UNL     1       7.160  -0.941  26.697  0.00  0.00    -0.452 OA
BRANCH  24  25
ATOM     25  C   UNL     1       6.322  -1.983  27.109  0.00  0.00    +0.214 A 
ATOM     26  C   UNL     1       6.769  -3.421  27.027  0.00  0.00    +0.238 A 
ATOM     27  O   UNL     1       7.873  -3.720  26.586  0.00  0.00    -0.283 OA
ATOM     28  C   UNL     1       5.834  -4.458  27.489  0.00  0.00    +0.109 A 
ATOM     29  C   UNL     1       4.548  -4.058  27.836  0.00  0.00    +0.147 A 
ATOM     30  C   UNL     1       3.577  -5.011  28.162  0.00  0.00    +0.092 A 
ATOM     31  C   UNL     1       3.914  -6.361  28.155  0.00  0.00    +0.124 A 
ATOM     32  C   UNL     1       5.207  -6.774  27.863  0.00  0.00    +0.091 A 
ATOM     33  O   UNL     1       4.160  -2.744  27.884  0.00  0.00    -0.451 OA
ATOM     34  C   UNL     1       6.172  -5.820  27.541  0.00  0.00    +0.135 A 
ATOM     35  C   UNL     1       5.065  -1.745  27.541  0.00  0.00    +0.181 A 
BRANCH  35  36
ATOM     36  C   UNL     1       4.481  -0.379  27.674  0.00  0.00    +0.025 A 
ATOM     37  C   UNL     1       4.552   0.287  28.916  0.00  0.00    +0.015 A 
ATOM     38  C   UNL     1       4.044   1.581  29.079  0.00  0.00    +0.050 A 
ATOM     39  C   UNL     1       3.459   2.220  28.001  0.00  0.00    +0.158 A 
ATOM     40  C   UNL     1       3.375   1.586  26.766  0.00  0.00    +0.159 A 
ATOM     41  C   UNL     1       3.893   0.304  26.592  0.00  0.00    +0.060 A 
BRANCH  40  42
ATOM     42  O   UNL     1       2.772   2.267  25.742  0.00  0.00    -0.503 OA
ATOM     43  H   UNL     1       3.280   2.098  24.929  0.00  0.00    +0.292 HD
ENDBRANCH  40  42
BRANCH  39  44
ATOM     44  O   UNL     1       2.970   3.484  28.157  0.00  0.00    -0.503 OA
ATOM     45  H   UNL     1       3.765   4.054  28.189  0.00  0.00    +0.292 HD
ENDBRANCH  39  44
ENDBRANCH  35  36
BRANCH  34  46
ATOM     46  O   UNL     1       7.450  -6.243  27.306  0.00  0.00    -0.506 OA
ATOM     47  H   UNL     1       7.441  -7.039  26.749  0.00  0.00    +0.292 HD
ENDBRANCH  34  46
BRANCH  31  48
ATOM     48  O   UNL     1       2.998  -7.330  28.441  0.00  0.00    -0.507 OA
ATOM     49  H   UNL     1       3.073  -7.576  29.377  0.00  0.00    +0.292 HD
ENDBRANCH  31  48
ENDBRANCH  24  25
ENDBRANCH   3  24
BRANCH   1  50
ATOM     50  C   UNL     1       9.166  -2.655  23.529  0.00  0.00    +0.197 C 
BRANCH  50  51
ATOM     51  O   UNL     1       8.259  -2.984  22.476  0.00  0.00    -0.346 OA
BRANCH  51  54
ATOM     52  C   UNL     1       6.412  -6.107  22.335  0.00  0.00    +0.197 C 
ATOM     53  O   UNL     1       7.198  -4.990  21.930  0.00  0.00    -0.346 OA
ATOM     54  C   UNL     1       7.361  -4.008  22.965  0.00  0.00    +0.281 C 
ATOM     55  C   UNL     1       5.978  -3.428  23.340  0.00  0.00    +0.201 C 
ATOM     56  C   UNL     1       5.092  -4.597  23.820  0.00  0.00    +0.178 C 
ATOM     57  C   UNL     1       5.001  -5.677  22.729  0.00  0.00    +0.171 C 
BRANCH  57  58
ATOM     58  O   UNL     1       4.221  -6.783  23.191  0.00  0.00    -0.387 OA
ATOM     59  H   UNL     1       3.629  -7.074  22.475  0.00  0.00    +0.210 HD
ENDBRANCH  57  58
BRANCH  56  60
ATOM     60  O   UNL     1       3.784  -4.164  24.199  0.00  0.00    -0.386 OA
ATOM     61  H   UNL     1       3.457  -4.801  24.864  0.00  0.00    +0.210 HD
ENDBRANCH  56  60
BRANCH  55  62
ATOM     62  O   UNL     1       5.372  -2.802  22.192  0.00  0.00    -0.384 OA
ATOM     63  H   UNL     1       5.220  -3.507  21.536  0.00  0.00    +0.210 HD
ENDBRANCH  55  62
ENDBRANCH  51  54
ENDBRANCH  50  51
ENDBRANCH   1  50
TORSDOF 20
ENDMDL
MODEL 6
REMARK VINA RESULT:      -7.2      2.822      6.313
REMARK  Name = 
REMARK  20 active torsions:
REMARK  status: ('A' for Active; 'I' for Inactive)
REMARK    1  A    between atoms: C_2  and  O_58
REMARK    2  A    between atoms: C_3  and  O_57
REMARK    3  A    between atoms: C_5  and  O_56
REMARK    4  A    between atoms: C_6  and  O_9
REMARK    5  A    between atoms: O_9  and  C_10
REMARK    6  A    between atoms: C_10  and  C_11
REMARK    7  A    between atoms: C_12  and  O_55
REMARK    8  A    between atoms: C_14  and  O_54
REMARK    9  A    between atoms: C_16  and  O_42
REMARK   10  A    between atoms: C_17  and  O_20
REMARK   11  A    between atoms: O_20  and  C_21
REMARK   12  A    between atoms: C_22  and  C_34
REMARK   13  A    between atoms: C_26  and  O_33
REMARK   14  A    between atoms: C_28  and  O_32
REMARK   15  A    between atoms: C_36  and  O_41
REMARK   16  A    between atoms: C_37  and  O_40
REMARK   17  A    between atoms: O_42  and  C_43
REMARK   18  A    between atoms: C_43  and  C_45
REMARK   19  A    between atoms: C_46  and  C_47
REMARK   20  A    between atoms: C_50  and  O_53
REMARK                            x       y       z     vdW  Elec       q    Type
REMARK                         _______ _______ _______ _____ _____    ______ ____
ROOT
ATOM      1  C   UNL     1       9.980  -1.292  23.531  0.00  0.00    +0.179 C 
ATOM      2  O   UNL     1       9.576  -0.912  24.879  0.00  0.00    -0.330 OA
ATOM      3  C   UNL     1       8.138  -0.757  24.974  0.00  0.00    +0.352 C 
ATOM      4  C   UNL     1       7.647   0.428  24.120  0.00  0.00    +0.276 C 
ATOM      5  C   UNL     1       8.116   0.215  22.674  0.00  0.00    +0.192 C 
ATOM      6  C   UNL     1       9.609  -0.138  22.580  0.00  0.00    +0.178 C 
ENDROOT
BRANCH   6   7
ATOM      7  O   UNL     1       9.922  -0.406  21.213  0.00  0.00    -0.386 OA
ATOM      8  H   UNL     1       9.679  -1.331  21.026  0.00  0.00    +0.210 HD
ENDBRANCH   6   7
BRANCH   5   9
ATOM      9  O   UNL     1       7.852   1.373  21.869  0.00  0.00    -0.385 OA
ATOM     10  H   UNL     1       8.284   1.193  21.011  0.00  0.00    +0.210 HD
ENDBRANCH   5   9
BRANCH   4  11
ATOM     11  O   UNL     1       8.181   1.666  24.657  0.00  0.00    -0.449 OA
BRANCH  11  12
ATOM     12  C   UNL     1       7.264   2.471  25.263  0.00  0.00    +0.332 C 
ATOM     13  O   UNL     1       7.338   2.956  26.377  0.00  0.00    -0.246 OA
BRANCH  12  14
ATOM     14  C   UNL     1       6.142   2.706  24.326  0.00  0.00    +0.092 C 
ATOM     15  C   UNL     1       5.596   3.932  24.248  0.00  0.00    +0.015 C 
BRANCH  15  16
ATOM     16  C   UNL     1       4.510   4.316  23.332  0.00  0.00    -0.025 A 
ATOM     17  C   UNL     1       3.876   3.317  22.578  0.00  0.00    +0.011 A 
ATOM     18  C   UNL     1       2.847   3.641  21.687  0.00  0.00    +0.046 A 
ATOM     19  C   UNL     1       2.455   4.966  21.542  0.00  0.00    +0.117 A 
ATOM     20  C   UNL     1       3.083   5.974  22.261  0.00  0.00    +0.046 A 
ATOM     21  C   UNL     1       4.113   5.647  23.150  0.00  0.00    +0.011 A 
BRANCH  19  22
ATOM     22  O   UNL     1       1.439   5.239  20.674  0.00  0.00    -0.507 OA
ATOM     23  H   UNL     1       1.100   4.400  20.324  0.00  0.00    +0.292 HD
ENDBRANCH  19  22
ENDBRANCH  15  16
ENDBRANCH  12  14
ENDBRANCH  11  12
ENDBRANCH   4  11
BRANCH   3  24
ATOM     24  O   UNL     1       7.715  -0.634  26.337  0.00  0.00    -0.452 OA
BRANCH  24  25
ATOM     25  C   UNL     1       6.890  -1.666  26.797  0.00  0.00    +0.214 A 
ATOM     26  C   UNL     1       7.336  -3.105  26.737  0.00  0.00    +0.238 A 
ATOM     27  O   UNL     1       8.428  -3.414  26.272  0.00  0.00    -0.283 OA
ATOM     28  C   UNL     1       6.416  -4.131  27.250  0.00  0.00    +0.109 A 
ATOM     29  C   UNL     1       5.141  -3.724  27.624  0.00  0.00    +0.147 A 
ATOM     30  C   UNL     1       4.180  -4.669  28.001  0.00  0.00    +0.092 A 
ATOM     31  C   UNL     1       4.518  -6.019  28.017  0.00  0.00    +0.124 A 
ATOM     32  C   UNL     1       5.803  -6.438  27.698  0.00  0.00    +0.091 A 
ATOM     33  O   UNL     1       4.752  -2.409  27.652  0.00  0.00    -0.451 OA
ATOM     34  C   UNL     1       6.757  -5.492  27.326  0.00  0.00    +0.135 A 
ATOM     35  C   UNL     1       5.646  -1.419  27.259  0.00  0.00    +0.181 A 
BRANCH  35  36
ATOM     36  C   UNL     1       5.064  -0.050  27.376  0.00  0.00    +0.025 A 
ATOM     37  C   UNL     1       5.461   0.783  28.443  0.00  0.00    +0.015 A 
ATOM     38  C   UNL     1       4.965   2.085  28.576  0.00  0.00    +0.050 A 
ATOM     39  C   UNL     1       4.064   2.565  27.641  0.00  0.00    +0.158 A 
ATOM     40  C   UNL     1       3.655   1.764  26.581  0.00  0.00    +0.159 A 
ATOM     41  C   UNL     1       4.157   0.472  26.433  0.00  0.00    +0.060 A 
BRANCH  40  42
ATOM     42  O   UNL     1       2.751   2.293  25.698  0.00  0.00    -0.503 OA
ATOM     43  H   UNL     1       3.092   3.153  25.398  0.00  0.00    +0.292 HD
ENDBRANCH  40  42
BRANCH  39  44
ATOM     44  O   UNL     1       3.585   3.836  27.766  0.00  0.00    -0.503 OA
ATOM     45  H   UNL     1       2.707   3.811  27.335  0.00  0.00    +0.292 HD
ENDBRANCH  39  44
ENDBRANCH  35  36
BRANCH  34  46
ATOM     46  O   UNL     1       8.029  -5.920  27.065  0.00  0.00    -0.506 OA
ATOM     47  H   UNL     1       8.629  -5.158  26.998  0.00  0.00    +0.292 HD
ENDBRANCH  34  46
BRANCH  31  48
ATOM     48  O   UNL     1       3.613  -6.981  28.352  0.00  0.00    -0.507 OA
ATOM     49  H   UNL     1       3.006  -7.124  27.607  0.00  0.00    +0.292 HD
ENDBRANCH  31  48
ENDBRANCH  24  25
ENDBRANCH   3  24
BRANCH   1  50
ATOM     50  C   UNL     1       9.419  -2.701  23.204  0.00  0.00    +0.197 C 
BRANCH  50  51
ATOM     51  O   UNL     1       8.308  -2.801  22.312  0.00  0.00    -0.346 OA
BRANCH  51  54
ATOM     52  C   UNL     1       6.424  -5.902  22.192  0.00  0.00    +0.197 C 
ATOM     53  O   UNL     1       7.205  -4.786  21.775  0.00  0.00    -0.346 OA
ATOM     54  C   UNL     1       7.420  -3.824  22.820  0.00  0.00    +0.281 C 
ATOM     55  C   UNL     1       6.059  -3.238  23.262  0.00  0.00    +0.201 C 
ATOM     56  C   UNL     1       5.182  -4.407  23.757  0.00  0.00    +0.178 C 
ATOM     57  C   UNL     1       5.035  -5.466  22.652  0.00  0.00    +0.171 C 
BRANCH  57  58
ATOM     58  O   UNL     1       4.263  -6.573  23.125  0.00  0.00    -0.387 OA
ATOM     59  H   UNL     1       4.804  -7.094  23.745  0.00  0.00    +0.210 HD
ENDBRANCH  57  58
BRANCH  56  60
ATOM     60  O   UNL     1       3.895  -3.968  24.197  0.00  0.00    -0.386 OA
ATOM     61  H   UNL     1       3.392  -4.769  24.443  0.00  0.00    +0.210 HD
ENDBRANCH  56  60
BRANCH  55  62
ATOM     62  O   UNL     1       5.414  -2.586  22.151  0.00  0.00    -0.384 OA
ATOM     63  H   UNL     1       4.967  -1.797  22.510  0.00  0.00    +0.210 HD
ENDBRANCH  55  62
ENDBRANCH  51  54
ENDBRANCH  50  51
ENDBRANCH   1  50
TORSDOF 20
ENDMDL
MODEL 7
REMARK VINA RESULT:      -7.2      2.544      8.838
REMARK  Name = 
REMARK  20 active torsions:
REMARK  status: ('A' for Active; 'I' for Inactive)
REMARK    1  A    between atoms: C_2  and  O_58
REMARK    2  A    between atoms: C_3  and  O_57
REMARK    3  A    between atoms: C_5  and  O_56
REMARK    4  A    between atoms: C_6  and  O_9
REMARK    5  A    between atoms: O_9  and  C_10
REMARK    6  A    between atoms: C_10  and  C_11
REMARK    7  A    between atoms: C_12  and  O_55
REMARK    8  A    between atoms: C_14  and  O_54
REMARK    9  A    between atoms: C_16  and  O_42
REMARK   10  A    between atoms: C_17  and  O_20
REMARK   11  A    between atoms: O_20  and  C_21
REMARK   12  A    between atoms: C_22  and  C_34
REMARK   13  A    between atoms: C_26  and  O_33
REMARK   14  A    between atoms: C_28  and  O_32
REMARK   15  A    between atoms: C_36  and  O_41
REMARK   16  A    between atoms: C_37  and  O_40
REMARK   17  A    between atoms: O_42  and  C_43
REMARK   18  A    between atoms: C_43  and  C_45
REMARK   19  A    between atoms: C_46  and  C_47
REMARK   20  A    between atoms: C_50  and  O_53
REMARK                            x       y       z     vdW  Elec       q    Type
REMARK                         _______ _______ _______ _____ _____    ______ ____
ROOT
ATOM      1  C   UNL     1       7.744   1.929  21.943  0.00  0.00    +0.179 C 
ATOM      2  O   UNL     1       6.807   0.891  22.353  0.00  0.00    -0.330 OA
ATOM      3  C   UNL     1       7.122   0.389  23.676  0.00  0.00    +0.352 C 
ATOM      4  C   UNL     1       8.476  -0.344  23.688  0.00  0.00    +0.276 C 
ATOM      5  C   UNL     1       9.553   0.611  23.155  0.00  0.00    +0.192 C 
ATOM      6  C   UNL     1       9.144   1.294  21.841  0.00  0.00    +0.178 C 
ENDROOT
BRANCH   6   7
ATOM      7  O   UNL     1      10.165   2.225  21.481  0.00  0.00    -0.386 OA
ATOM      8  H   UNL     1      11.027   1.813  21.678  0.00  0.00    +0.210 HD
ENDBRANCH   6   7
BRANCH   5   9
ATOM      9  O   UNL     1      10.801  -0.071  22.965  0.00  0.00    -0.385 OA
ATOM     10  H   UNL     1      11.202   0.342  22.176  0.00  0.00    +0.210 HD
ENDBRANCH   5   9
BRANCH   4  11
ATOM     11  O   UNL     1       8.389  -1.534  22.861  0.00  0.00    -0.449 OA
BRANCH  11  12
ATOM     12  C   UNL     1       8.991  -2.640  23.382  0.00  0.00    +0.332 C 
ATOM     13  O   UNL     1      10.144  -2.737  23.760  0.00  0.00    -0.246 OA
BRANCH  12  14
ATOM     14  C   UNL     1       7.998  -3.736  23.450  0.00  0.00    +0.092 C 
ATOM     15  C   UNL     1       6.688  -3.443  23.366  0.00  0.00    +0.015 C 
BRANCH  15  16
ATOM     16  C   UNL     1       5.600  -4.433  23.374  0.00  0.00    -0.025 A 
ATOM     17  C   UNL     1       5.925  -5.797  23.361  0.00  0.00    +0.011 A 
ATOM     18  C   UNL     1       4.921  -6.771  23.357  0.00  0.00    +0.046 A 
ATOM     19  C   UNL     1       3.587  -6.383  23.357  0.00  0.00    +0.117 A 
ATOM     20  C   UNL     1       3.241  -5.038  23.347  0.00  0.00    +0.046 A 
ATOM     21  C   UNL     1       4.248  -4.066  23.349  0.00  0.00    +0.011 A 
BRANCH  19  22
ATOM     22  O   UNL     1       2.637  -7.361  23.367  0.00  0.00    -0.507 OA
ATOM     23  H   UNL     1       2.923  -8.072  22.771  0.00  0.00    +0.292 HD
ENDBRANCH  19  22
ENDBRANCH  15  16
ENDBRANCH  12  14
ENDBRANCH  11  12
ENDBRANCH   4  11
BRANCH   3  24
ATOM     24  O   UNL     1       6.069  -0.440  24.184  0.00  0.00    -0.452 OA
BRANCH  24  25
ATOM     25  C   UNL     1       5.427   0.050  25.326  0.00  0.00    +0.214 A 
ATOM     26  C   UNL     1       4.728   1.385  25.315  0.00  0.00    +0.238 A 
ATOM     27  O   UNL     1       4.713   2.087  24.309  0.00  0.00    -0.283 OA
ATOM     28  C   UNL     1       4.067   1.825  26.552  0.00  0.00    +0.109 A 
ATOM     29  C   UNL     1       4.250   1.050  27.691  0.00  0.00    +0.147 A 
ATOM     30  C   UNL     1       3.753   1.481  28.926  0.00  0.00    +0.092 A 
ATOM     31  C   UNL     1       3.055   2.683  29.001  0.00  0.00    +0.124 A 
ATOM     32  C   UNL     1       2.817   3.443  27.863  0.00  0.00    +0.091 A 
ATOM     33  O   UNL     1       4.908  -0.153  27.680  0.00  0.00    -0.451 OA
ATOM     34  C   UNL     1       3.313   3.008  26.635  0.00  0.00    +0.135 A 
ATOM     35  C   UNL     1       5.456  -0.628  26.494  0.00  0.00    +0.181 A 
BRANCH  35  36
ATOM     36  C   UNL     1       6.110  -1.959  26.662  0.00  0.00    +0.025 A 
ATOM     37  C   UNL     1       5.309  -3.108  26.827  0.00  0.00    +0.015 A 
ATOM     38  C   UNL     1       5.877  -4.381  26.959  0.00  0.00    +0.050 A 
ATOM     39  C   UNL     1       7.253  -4.514  26.927  0.00  0.00    +0.158 A 
ATOM     40  C   UNL     1       8.066  -3.398  26.766  0.00  0.00    +0.159 A 
ATOM     41  C   UNL     1       7.507  -2.129  26.618  0.00  0.00    +0.060 A 
BRANCH  40  42
ATOM     42  O   UNL     1       9.421  -3.595  26.756  0.00  0.00    -0.503 OA
ATOM     43  H   UNL     1       9.840  -2.786  26.411  0.00  0.00    +0.292 HD
ENDBRANCH  40  42
BRANCH  39  44
ATOM     44  O   UNL     1       7.808  -5.754  27.048  0.00  0.00    -0.503 OA
ATOM     45  H   UNL     1       7.396  -6.132  27.851  0.00  0.00    +0.292 HD
ENDBRANCH  39  44
ENDBRANCH  35  36
BRANCH  34  46
ATOM     46  O   UNL     1       3.024   3.744  25.520  0.00  0.00    -0.506 OA
ATOM     47  H   UNL     1       3.371   3.299  24.729  0.00  0.00    +0.292 HD
ENDBRANCH  34  46
BRANCH  31  48
ATOM     48  O   UNL     1       2.572   3.159  30.183  0.00  0.00    -0.507 OA
ATOM     49  H   UNL     1       1.769   2.669  30.422  0.00  0.00    +0.292 HD
ENDBRANCH  31  48
ENDBRANCH  24  25
ENDBRANCH   3  24
BRANCH   1  50
ATOM     50  C   UNL     1       7.581   3.163  22.870  0.00  0.00    +0.197 C 
BRANCH  50  51
ATOM     51  O   UNL     1       8.671   3.524  23.720  0.00  0.00    -0.346 OA
BRANCH  51  54
ATOM     52  C   UNL     1       9.072   6.333  25.984  0.00  0.00    +0.197 C 
ATOM     53  O   UNL     1       9.382   5.198  25.183  0.00  0.00    -0.346 OA
ATOM     54  C   UNL     1       8.224   4.590  24.590  0.00  0.00    +0.281 C 
ATOM     55  C   UNL     1       7.292   4.069  25.708  0.00  0.00    +0.201 C 
ATOM     56  C   UNL     1       6.897   5.271  26.591  0.00  0.00    +0.178 C 
ATOM     57  C   UNL     1       8.155   5.958  27.146  0.00  0.00    +0.171 C 
BRANCH  57  58
ATOM     58  O   UNL     1       7.792   7.102  27.924  0.00  0.00    -0.387 OA
ATOM     59  H   UNL     1       6.841   7.061  28.124  0.00  0.00    +0.210 HD
ENDBRANCH  57  58
BRANCH  56  60
ATOM     60  O   UNL     1       6.025   4.894  27.659  0.00  0.00    -0.386 OA
ATOM     61  H   UNL     1       5.162   5.316  27.481  0.00  0.00    +0.210 HD
ENDBRANCH  56  60
BRANCH  55  62
ATOM     62  O   UNL     1       7.977   3.086  26.508  0.00  0.00    -0.384 OA
ATOM     63  H   UNL     1       7.452   2.971  27.322  0.00  0.00    +0.210 HD
ENDBRANCH  55  62
ENDBRANCH  51  54
ENDBRANCH  50  51
ENDBRANCH   1  50
TORSDOF 20
ENDMDL
MODEL 8
REMARK VINA RESULT:      -7.0      2.657      4.079
REMARK  Name = 
REMARK  20 active torsions:
REMARK  status: ('A' for Active; 'I' for Inactive)
REMARK    1  A    between atoms: C_2  and  O_58
REMARK    2  A    between atoms: C_3  and  O_57
REMARK    3  A    between atoms: C_5  and  O_56
REMARK    4  A    between atoms: C_6  and  O_9
REMARK    5  A    between atoms: O_9  and  C_10
REMARK    6  A    between atoms: C_10  and  C_11
REMARK    7  A    between atoms: C_12  and  O_55
REMARK    8  A    between atoms: C_14  and  O_54
REMARK    9  A    between atoms: C_16  and  O_42
REMARK   10  A    between atoms: C_17  and  O_20
REMARK   11  A    between atoms: O_20  and  C_21
REMARK   12  A    between atoms: C_22  and  C_34
REMARK   13  A    between atoms: C_26  and  O_33
REMARK   14  A    between atoms: C_28  and  O_32
REMARK   15  A    between atoms: C_36  and  O_41
REMARK   16  A    between atoms: C_37  and  O_40
REMARK   17  A    between atoms: O_42  and  C_43
REMARK   18  A    between atoms: C_43  and  C_45
REMARK   19  A    between atoms: C_46  and  C_47
REMARK   20  A    between atoms: C_50  and  O_53
REMARK                            x       y       z     vdW  Elec       q    Type
REMARK                         _______ _______ _______ _____ _____    ______ ____
ROOT
ATOM      1  C   UNL     1       4.426  -0.069  28.239  0.00  0.00    +0.179 C 
ATOM      2  O   UNL     1       4.386   0.208  26.809  0.00  0.00    -0.330 OA
ATOM      3  C   UNL     1       5.688   0.016  26.199  0.00  0.00    +0.352 C 
ATOM      4  C   UNL     1       6.707   1.046  26.722  0.00  0.00    +0.276 C 
ATOM      5  C   UNL     1       6.760   0.946  28.253  0.00  0.00    +0.192 C 
ATOM      6  C   UNL     1       5.365   0.959  28.898  0.00  0.00    +0.178 C 
ENDROOT
BRANCH   6   7
ATOM      7  O   UNL     1       5.519   0.769  30.305  0.00  0.00    -0.386 OA
ATOM      8  H   UNL     1       6.265   1.323  30.600  0.00  0.00    +0.210 HD
ENDBRANCH   6   7
BRANCH   5   9
ATOM      9  O   UNL     1       7.550   2.005  28.813  0.00  0.00    -0.385 OA
ATOM     10  H   UNL     1       7.282   2.810  28.328  0.00  0.00    +0.210 HD
ENDBRANCH   5   9
BRANCH   4  11
ATOM     11  O   UNL     1       6.306   2.377  26.306  0.00  0.00    -0.449 OA
BRANCH  11  12
ATOM     12  C   UNL     1       7.157   2.988  25.437  0.00  0.00    +0.332 C 
ATOM     13  O   UNL     1       8.364   3.102  25.551  0.00  0.00    -0.246 OA
BRANCH  12  14
ATOM     14  C   UNL     1       6.381   3.485  24.278  0.00  0.00    +0.092 C 
ATOM     15  C   UNL     1       5.041   3.555  24.365  0.00  0.00    +0.015 C 
BRANCH  15  16
ATOM     16  C   UNL     1       4.152   4.069  23.311  0.00  0.00    -0.025 A 
ATOM     17  C   UNL     1       4.037   5.456  23.140  0.00  0.00    +0.011 A 
ATOM     18  C   UNL     1       3.195   5.987  22.157  0.00  0.00    +0.046 A 
ATOM     19  C   UNL     1       2.459   5.131  21.348  0.00  0.00    +0.117 A 
ATOM     20  C   UNL     1       2.540   3.754  21.514  0.00  0.00    +0.046 A 
ATOM     21  C   UNL     1       3.381   3.227  22.499  0.00  0.00    +0.011 A 
BRANCH  19  22
ATOM     22  O   UNL     1       1.660   5.685  20.392  0.00  0.00    -0.507 OA
ATOM     23  H   UNL     1       0.936   5.068  20.201  0.00  0.00    +0.292 HD
ENDBRANCH  19  22
ENDBRANCH  15  16
ENDBRANCH  12  14
ENDBRANCH  11  12
ENDBRANCH   4  11
BRANCH   3  24
ATOM     24  O   UNL     1       5.602   0.039  24.769  0.00  0.00    -0.452 OA
BRANCH  24  25
ATOM     25  C   UNL     1       5.889  -1.177  24.138  0.00  0.00    +0.214 A 
ATOM     26  C   UNL     1       4.988  -2.374  24.306  0.00  0.00    +0.238 A 
ATOM     27  O   UNL     1       3.985  -2.321  25.010  0.00  0.00    -0.283 OA
ATOM     28  C   UNL     1       5.352  -3.612  23.602  0.00  0.00    +0.109 A 
ATOM     29  C   UNL     1       6.577  -3.643  22.944  0.00  0.00    +0.147 A 
ATOM     30  C   UNL     1       7.036  -4.830  22.364  0.00  0.00    +0.092 A 
ATOM     31  C   UNL     1       6.248  -5.975  22.432  0.00  0.00    +0.124 A 
ATOM     32  C   UNL     1       4.999  -5.947  23.038  0.00  0.00    +0.091 A 
ATOM     33  O   UNL     1       7.389  -2.545  22.822  0.00  0.00    -0.451 OA
ATOM     34  C   UNL     1       4.545  -4.761  23.613  0.00  0.00    +0.135 A 
ATOM     35  C   UNL     1       7.010  -1.340  23.403  0.00  0.00    +0.181 A 
BRANCH  35  36
ATOM     36  C   UNL     1       7.999  -0.251  23.149  0.00  0.00    +0.025 A 
ATOM     37  C   UNL     1       7.734   0.705  22.147  0.00  0.00    +0.015 A 
ATOM     38  C   UNL     1       8.618   1.761  21.894  0.00  0.00    +0.050 A 
ATOM     39  C   UNL     1       9.776   1.868  22.643  0.00  0.00    +0.158 A 
ATOM     40  C   UNL     1      10.062   0.938  23.636  0.00  0.00    +0.159 A 
ATOM     41  C   UNL     1       9.179  -0.107  23.904  0.00  0.00    +0.060 A 
BRANCH  40  42
ATOM     42  O   UNL     1      11.232   1.092  24.332  0.00  0.00    -0.503 OA
ATOM     43  H   UNL     1      11.481   2.032  24.295  0.00  0.00    +0.292 HD
ENDBRANCH  40  42
BRANCH  39  44
ATOM     44  O   UNL     1      10.635   2.900  22.402  0.00  0.00    -0.503 OA
ATOM     45  H   UNL     1      10.677   3.389  23.249  0.00  0.00    +0.292 HD
ENDBRANCH  39  44
ENDBRANCH  35  36
BRANCH  34  46
ATOM     46  O   UNL     1       3.292  -4.742  24.160  0.00  0.00    -0.506 OA
ATOM     47  H   UNL     1       2.968  -5.650  24.282  0.00  0.00    +0.292 HD
ENDBRANCH  34  46
BRANCH  31  48
ATOM     48  O   UNL     1       6.660  -7.162  21.905  0.00  0.00    -0.507 OA
ATOM     49  H   UNL     1       6.292  -7.262  21.012  0.00  0.00    +0.292 HD
ENDBRANCH  31  48
ENDBRANCH  24  25
ENDBRANCH   3  24
BRANCH   1  50
ATOM     50  C   UNL     1       4.737  -1.573  28.463  0.00  0.00    +0.197 C 
BRANCH  50  51
ATOM     51  O   UNL     1       3.701  -2.526  28.218  0.00  0.00    -0.346 OA
BRANCH  51  54
ATOM     52  C   UNL     1       6.013  -5.325  28.211  0.00  0.00    +0.197 C 
ATOM     53  O   UNL     1       5.376  -4.107  27.840  0.00  0.00    -0.346 OA
ATOM     54  C   UNL     1       4.194  -3.829  28.607  0.00  0.00    +0.281 C 
ATOM     55  C   UNL     1       3.148  -4.939  28.354  0.00  0.00    +0.201 C 
ATOM     56  C   UNL     1       3.779  -6.285  28.773  0.00  0.00    +0.178 C 
ATOM     57  C   UNL     1       5.086  -6.521  28.001  0.00  0.00    +0.171 C 
BRANCH  57  58
ATOM     58  O   UNL     1       5.697  -7.743  28.423  0.00  0.00    -0.387 OA
ATOM     59  H   UNL     1       6.383  -7.543  29.084  0.00  0.00    +0.210 HD
ENDBRANCH  57  58
BRANCH  56  60
ATOM     60  O   UNL     1       2.884  -7.383  28.582  0.00  0.00    -0.386 OA
ATOM     61  H   UNL     1       2.814  -7.525  27.617  0.00  0.00    +0.210 HD
ENDBRANCH  56  60
BRANCH  55  62
ATOM     62  O   UNL     1       2.798  -4.984  26.957  0.00  0.00    -0.384 OA
ATOM     63  H   UNL     1       1.904  -4.603  26.880  0.00  0.00    +0.210 HD
ENDBRANCH  55  62
ENDBRANCH  51  54
ENDBRANCH  50  51
ENDBRANCH   1  50
TORSDOF 20
ENDMDL
MODEL 9
REMARK VINA RESULT:      -7.0      2.656      8.660
REMARK  Name = 
REMARK  20 active torsions:
REMARK  status: ('A' for Active; 'I' for Inactive)
REMARK    1  A    between atoms: C_2  and  O_58
REMARK    2  A    between atoms: C_3  and  O_57
REMARK    3  A    between atoms: C_5  and  O_56
REMARK    4  A    between atoms: C_6  and  O_9
REMARK    5  A    between atoms: O_9  and  C_10
REMARK    6  A    between atoms: C_10  and  C_11
REMARK    7  A    between atoms: C_12  and  O_55
REMARK    8  A    between atoms: C_14  and  O_54
REMARK    9  A    between atoms: C_16  and  O_42
REMARK   10  A    between atoms: C_17  and  O_20
REMARK   11  A    between atoms: O_20  and  C_21
REMARK   12  A    between atoms: C_22  and  C_34
REMARK   13  A    between atoms: C_26  and  O_33
REMARK   14  A    between atoms: C_28  and  O_32
REMARK   15  A    between atoms: C_36  and  O_41
REMARK   16  A    between atoms: C_37  and  O_40
REMARK   17  A    between atoms: O_42  and  C_43
REMARK   18  A    between atoms: C_43  and  C_45
REMARK   19  A    between atoms: C_46  and  C_47
REMARK   20  A    between atoms: C_50  and  O_53
REMARK                            x       y       z     vdW  Elec       q    Type
REMARK                         _______ _______ _______ _____ _____    ______ ____
ROOT
ATOM      1  C   UNL     1       3.216   1.117  28.318  0.00  0.00    +0.179 C 
ATOM      2  O   UNL     1       4.614   0.745  28.491  0.00  0.00    -0.330 OA
ATOM      3  C   UNL     1       5.139   0.099  27.304  0.00  0.00    +0.352 C 
ATOM      4  C   UNL     1       4.450  -1.256  27.055  0.00  0.00    +0.276 C 
ATOM      5  C   UNL     1       2.934  -1.026  26.973  0.00  0.00    +0.192 C 
ATOM      6  C   UNL     1       2.398  -0.176  28.135  0.00  0.00    +0.178 C 
ENDROOT
BRANCH   6   7
ATOM      7  O   UNL     1       1.007   0.057  27.918  0.00  0.00    -0.386 OA
ATOM      8  H   UNL     1       0.920   0.645  27.145  0.00  0.00    +0.210 HD
ENDBRANCH   6   7
BRANCH   5   9
ATOM      9  O   UNL     1       2.223  -2.271  26.929  0.00  0.00    -0.385 OA
ATOM     10  H   UNL     1       2.420  -2.649  26.050  0.00  0.00    +0.210 HD
ENDBRANCH   5   9
BRANCH   4  11
ATOM     11  O   UNL     1       4.773  -2.169  28.136  0.00  0.00    -0.449 OA
BRANCH  11  12
ATOM     12  C   UNL     1       5.143  -3.419  27.742  0.00  0.00    +0.332 C 
ATOM     13  O   UNL     1       5.252  -4.407  28.445  0.00  0.00    -0.246 OA
BRANCH  12  14
ATOM     14  C   UNL     1       5.374  -3.409  26.279  0.00  0.00    +0.092 C 
ATOM     15  C   UNL     1       5.344  -4.570  25.601  0.00  0.00    +0.015 C 
BRANCH  15  16
ATOM     16  C   UNL     1       5.511  -4.701  24.145  0.00  0.00    -0.025 A 
ATOM     17  C   UNL     1       5.883  -5.945  23.615  0.00  0.00    +0.011 A 
ATOM     18  C   UNL     1       6.063  -6.110  22.238  0.00  0.00    +0.046 A 
ATOM     19  C   UNL     1       5.878  -5.028  21.387  0.00  0.00    +0.117 A 
ATOM     20  C   UNL     1       5.530  -3.781  21.890  0.00  0.00    +0.046 A 
ATOM     21  C   UNL     1       5.353  -3.619  23.269  0.00  0.00    +0.011 A 
BRANCH  19  22
ATOM     22  O   UNL     1       6.049  -5.231  20.049  0.00  0.00    -0.507 OA
ATOM     23  H   UNL     1       6.358  -4.402  19.650  0.00  0.00    +0.292 HD
ENDBRANCH  19  22
ENDBRANCH  15  16
ENDBRANCH  12  14
ENDBRANCH  11  12
ENDBRANCH   4  11
BRANCH   3  24
ATOM     24  O   UNL     1       6.563  -0.039  27.371  0.00  0.00    -0.452 OA
BRANCH  24  25
ATOM     25  C   UNL     1       7.283   0.848  26.563  0.00  0.00    +0.214 A 
ATOM     26  C   UNL     1       7.121   2.340  26.706  0.00  0.00    +0.238 A 
ATOM     27  O   UNL     1       6.345   2.820  27.525  0.00  0.00    -0.283 OA
ATOM     28  C   UNL     1       7.921   3.206  25.827  0.00  0.00    +0.109 A 
ATOM     29  C   UNL     1       8.666   2.594  24.826  0.00  0.00    +0.147 A 
ATOM     30  C   UNL     1       9.347   3.368  23.880  0.00  0.00    +0.092 A 
ATOM     31  C   UNL     1       9.289   4.757  23.963  0.00  0.00    +0.124 A 
ATOM     32  C   UNL     1       8.594   5.383  24.989  0.00  0.00    +0.091 A 
ATOM     33  O   UNL     1       8.782   1.233  24.703  0.00  0.00    -0.451 OA
ATOM     34  C   UNL     1       7.918   4.606  25.929  0.00  0.00    +0.135 A 
ATOM     35  C   UNL     1       8.106   0.402  25.590  0.00  0.00    +0.181 A 
BRANCH  35  36
ATOM     36  C   UNL     1       8.367  -1.043  25.324  0.00  0.00    +0.025 A 
ATOM     37  C   UNL     1       8.446  -1.499  23.992  0.00  0.00    +0.015 A 
ATOM     38  C   UNL     1       8.718  -2.840  23.694  0.00  0.00    +0.050 A 
ATOM     39  C   UNL     1       8.913  -3.736  24.730  0.00  0.00    +0.158 A 
ATOM     40  C   UNL     1       8.840  -3.314  26.052  0.00  0.00    +0.159 A 
ATOM     41  C   UNL     1       8.585  -1.977  26.355  0.00  0.00    +0.060 A 
BRANCH  40  42
ATOM     42  O   UNL     1       9.029  -4.253  27.031  0.00  0.00    -0.503 OA
ATOM     43  H   UNL     1       9.383  -3.801  27.816  0.00  0.00    +0.292 HD
ENDBRANCH  40  42
BRANCH  39  44
ATOM     44  O   UNL     1       9.186  -5.042  24.441  0.00  0.00    -0.503 OA
ATOM     45  H   UNL     1       9.879  -5.002  23.752  0.00  0.00    +0.292 HD
ENDBRANCH  39  44
ENDBRANCH  35  36
BRANCH  34  46
ATOM     46  O   UNL     1       7.282   5.241  26.959  0.00  0.00    -0.506 OA
ATOM     47  H   UNL     1       6.387   4.880  27.071  0.00  0.00    +0.292 HD
ENDBRANCH  34  46
BRANCH  31  48
ATOM     48  O   UNL     1       9.914   5.556  23.053  0.00  0.00    -0.507 OA
ATOM     49  H   UNL     1       9.798   5.182  22.164  0.00  0.00    +0.292 HD
ENDBRANCH  31  48
ENDBRANCH  24  25
ENDBRANCH   3  24
BRANCH   1  50
ATOM     50  C   UNL     1       3.104   2.199  27.211  0.00  0.00    +0.197 C 
BRANCH  50  51
ATOM     51  O   UNL     1       2.373   1.885  26.025  0.00  0.00    -0.346 OA
BRANCH  51  54
ATOM     52  C   UNL     1       1.997   3.627  22.861  0.00  0.00    +0.197 C 
ATOM     53  O   UNL     1       1.894   2.618  23.861  0.00  0.00    -0.346 OA
ATOM     54  C   UNL     1       2.641   2.920  25.050  0.00  0.00    +0.281 C 
ATOM     55  C   UNL     1       4.145   3.006  24.699  0.00  0.00    +0.201 C 
ATOM     56  C   UNL     1       4.319   4.113  23.638  0.00  0.00    +0.178 C 
ATOM     57  C   UNL     1       3.445   3.813  22.410  0.00  0.00    +0.171 C 
BRANCH  57  58
ATOM     58  O   UNL     1       3.567   4.863  21.447  0.00  0.00    -0.387 OA
ATOM     59  H   UNL     1       4.245   4.616  20.794  0.00  0.00    +0.210 HD
ENDBRANCH  57  58
BRANCH  56  60
ATOM     60  O   UNL     1       5.684   4.276  23.248  0.00  0.00    -0.386 OA
ATOM     61  H   UNL     1       5.991   5.117  23.640  0.00  0.00    +0.210 HD
ENDBRANCH  56  60
BRANCH  55  62
ATOM     62  O   UNL     1       4.603   1.748  24.166  0.00  0.00    -0.384 OA
ATOM     63  H   UNL     1       5.296   1.957  23.512  0.00  0.00    +0.210 HD
ENDBRANCH  55  62
ENDBRANCH  51  54
ENDBRANCH  50  51
ENDBRANCH   1  50
TORSDOF 20
ENDMDL
