MODEL 1
REMARK VINA RESULT:      -7.8      0.000      0.000
REMARK  Name = 
REMARK  9 active torsions:
REMARK  status: ('A' for Active; 'I' for Inactive)
REMARK    1  A    between atoms: C_2  and  O_35
REMARK    2  A    between atoms: C_4  and  O_34
REMARK    3  A    between atoms: C_6  and  O_33
REMARK    4  A    between atoms: C_8  and  O_11
REMARK    5  A    between atoms: O_11  and  C_12
REMARK    6  A    between atoms: C_13  and  C_25
REMARK    7  A    between atoms: C_17  and  O_24
REMARK    8  A    between atoms: C_19  and  O_23
REMARK    9  A    between atoms: C_27  and  O_32
REMARK                            x       y       z     vdW  Elec       q    Type
REMARK                         _______ _______ _______ _____ _____    ______ ____
ROOT
ATOM      1  C   UNL     1       8.742  -2.108  23.485  0.00  0.00    +0.214 A 
ATOM      2  C   UNL     1       9.262  -0.920  22.739  0.00  0.00    +0.238 A 
ATOM      3  O   UNL     1       9.933  -1.042  21.722  0.00  0.00    -0.283 OA
ATOM      4  C   UNL     1       9.009   0.401  23.323  0.00  0.00    +0.109 A 
ATOM      5  C   UNL     1       8.656   0.447  24.668  0.00  0.00    +0.147 A 
ATOM      6  C   UNL     1       8.497   1.679  25.308  0.00  0.00    +0.092 A 
ATOM      7  C   UNL     1       8.693   2.856  24.587  0.00  0.00    +0.124 A 
ATOM      8  C   UNL     1       9.024   2.823  23.238  0.00  0.00    +0.091 A 
ATOM      9  O   UNL     1       8.473  -0.684  25.426  0.00  0.00    -0.451 OA
ATOM     10  C   UNL     1       9.174   1.594  22.600  0.00  0.00    +0.135 A 
ATOM     11  C   UNL     1       8.454  -1.928  24.795  0.00  0.00    +0.181 A 
ENDROOT
BRANCH  11  12
ATOM     12  C   UNL     1       8.097  -3.044  25.718  0.00  0.00    +0.024 A 
ATOM     13  C   UNL     1       8.945  -4.139  25.893  0.00  0.00    +0.011 A 
ATOM     14  C   UNL     1       8.589  -5.207  26.741  0.00  0.00    -0.004 A 
ATOM     15  C   UNL     1       7.386  -5.266  27.466  0.00  0.00    -0.066 A 
ATOM     16  O   UNL     1       7.127  -6.255  28.237  0.00  0.00    -0.871 OA
ATOM     17  C   UNL     1       6.538  -4.159  27.245  0.00  0.00    +0.110 A 
ATOM     18  C   UNL     1       6.871  -3.084  26.393  0.00  0.00    +0.056 A 
BRANCH  17  19
ATOM     19  O   UNL     1       5.312  -4.099  27.877  0.00  0.00    -0.507 OA
ATOM     20  H   UNL     1       5.466  -4.264  28.816  0.00  0.00    +0.292 HD
ENDBRANCH  17  19
ENDBRANCH  11  12
BRANCH   7  21
ATOM     21  O   UNL     1       8.569   4.084  25.167  0.00  0.00    -0.507 OA
ATOM     22  H   UNL     1       9.457   4.424  25.369  0.00  0.00    +0.292 HD
ENDBRANCH   7  21
BRANCH  10  23
ATOM     23  O   UNL     1       9.457   1.576  21.264  0.00  0.00    -0.506 OA
ATOM     24  H   UNL     1      10.201   0.978  21.093  0.00  0.00    +0.292 HD
ENDBRANCH  10  23
BRANCH   1  25
ATOM     25  O   UNL     1       8.657  -3.350  22.865  0.00  0.00    -0.453 OA
BRANCH  25  28
ATOM     26  C   UNL     1       5.030  -3.241  22.627  0.00  0.00    +0.198 C 
ATOM     27  O   UNL     1       6.343  -2.886  23.039  0.00  0.00    -0.337 OA
ATOM     28  C   UNL     1       7.334  -3.779  22.509  0.00  0.00    +0.339 C 
ATOM     29  C   UNL     1       7.109  -5.225  23.021  0.00  0.00    +0.214 C 
ATOM     30  C   UNL     1       5.666  -5.652  22.687  0.00  0.00    +0.180 C 
ATOM     31  C   UNL     1       4.653  -4.613  23.175  0.00  0.00    +0.171 C 
BRANCH  29  32
ATOM     32  O   UNL     1       8.043  -6.141  22.419  0.00  0.00    -0.383 OA
ATOM     33  H   UNL     1       7.591  -6.988  22.265  0.00  0.00    +0.210 HD
ENDBRANCH  29  32
BRANCH  30  34
ATOM     34  O   UNL     1       5.349  -6.925  23.264  0.00  0.00    -0.386 OA
ATOM     35  H   UNL     1       4.752  -7.359  22.626  0.00  0.00    +0.210 HD
ENDBRANCH  30  34
BRANCH  31  36
ATOM     36  O   UNL     1       3.344  -5.003  22.743  0.00  0.00    -0.387 OA
ATOM     37  H   UNL     1       2.717  -4.366  23.128  0.00  0.00    +0.210 HD
ENDBRANCH  31  36
ENDBRANCH  25  28
ENDBRANCH   1  25
TORSDOF 9
ENDMDL
MODEL 2
REMARK VINA RESULT:      -7.7      2.342      7.612
REMARK  Name = 
REMARK  9 active torsions:
REMARK  status: ('A' for Active; 'I' for Inactive)
REMARK    1  A    between atoms: C_2  and  O_35
REMARK    2  A    between atoms: C_4  and  O_34
REMARK    3  A    between atoms: C_6  and  O_33
REMARK    4  A    between atoms: C_8  and  O_11
REMARK    5  A    between atoms: O_11  and  C_12
REMARK    6  A    between atoms: C_13  and  C_25
REMARK    7  A    between atoms: C_17  and  O_24
REMARK    8  A    between atoms: C_19  and  O_23
REMARK    9  A    between atoms: C_27  and  O_32
REMARK                            x       y       z     vdW  Elec       q    Type
REMARK                         _______ _______ _______ _____ _____    ______ ____
ROOT
ATOM      1  C   UNL     1       7.204  -3.771  25.663  0.00  0.00    +0.214 A 
ATOM      2  C   UNL     1       6.726  -5.067  26.238  0.00  0.00    +0.238 A 
ATOM      3  O   UNL     1       7.267  -5.575  27.214  0.00  0.00    -0.283 OA
ATOM      4  C   UNL     1       5.637  -5.751  25.536  0.00  0.00    +0.109 A 
ATOM      5  C   UNL     1       5.386  -5.368  24.222  0.00  0.00    +0.147 A 
ATOM      6  C   UNL     1       4.427  -6.049  23.466  0.00  0.00    +0.092 A 
ATOM      7  C   UNL     1       3.727  -7.108  24.042  0.00  0.00    +0.124 A 
ATOM      8  C   UNL     1       3.953  -7.485  25.360  0.00  0.00    +0.091 A 
ATOM      9  O   UNL     1       6.064  -4.347  23.604  0.00  0.00    -0.451 OA
ATOM     10  C   UNL     1       4.903  -6.801  26.113  0.00  0.00    +0.135 A 
ATOM     11  C   UNL     1       6.905  -3.532  24.365  0.00  0.00    +0.181 A 
ENDROOT
BRANCH  11  12
ATOM     12  C   UNL     1       7.452  -2.380  23.595  0.00  0.00    +0.024 A 
ATOM     13  C   UNL     1       6.752  -1.175  23.496  0.00  0.00    +0.011 A 
ATOM     14  C   UNL     1       7.258  -0.099  22.739  0.00  0.00    -0.004 A 
ATOM     15  C   UNL     1       8.474  -0.138  22.035  0.00  0.00    -0.066 A 
ATOM     16  O   UNL     1       8.892   0.880  21.381  0.00  0.00    -0.871 OA
ATOM     17  C   UNL     1       9.143  -1.378  22.131  0.00  0.00    +0.110 A 
ATOM     18  C   UNL     1       8.650  -2.471  22.876  0.00  0.00    +0.056 A 
BRANCH  17  19
ATOM     19  O   UNL     1      10.340  -1.561  21.468  0.00  0.00    -0.507 OA
ATOM     20  H   UNL     1      11.036  -1.186  22.023  0.00  0.00    +0.292 HD
ENDBRANCH  17  19
ENDBRANCH  11  12
BRANCH   7  21
ATOM     21  O   UNL     1       2.794  -7.817  23.344  0.00  0.00    -0.507 OA
ATOM     22  H   UNL     1       2.248  -7.196  22.832  0.00  0.00    +0.292 HD
ENDBRANCH   7  21
BRANCH  10  23
ATOM     23  O   UNL     1       5.086  -7.153  27.420  0.00  0.00    -0.506 OA
ATOM     24  H   UNL     1       4.757  -6.449  28.001  0.00  0.00    +0.292 HD
ENDBRANCH  10  23
BRANCH   1  25
ATOM     25  O   UNL     1       7.996  -2.912  26.417  0.00  0.00    -0.453 OA
BRANCH  25  28
ATOM     26  C   UNL     1       5.160  -0.965  27.598  0.00  0.00    +0.198 C 
ATOM     27  O   UNL     1       5.893  -1.904  26.823  0.00  0.00    -0.337 OA
ATOM     28  C   UNL     1       7.292  -1.896  27.148  0.00  0.00    +0.339 C 
ATOM     29  C   UNL     1       7.924  -0.513  26.843  0.00  0.00    +0.214 C 
ATOM     30  C   UNL     1       7.122   0.574  27.584  0.00  0.00    +0.180 C 
ATOM     31  C   UNL     1       5.624   0.455  27.292  0.00  0.00    +0.171 C 
BRANCH  29  32
ATOM     32  O   UNL     1       9.304  -0.472  27.254  0.00  0.00    -0.383 OA
ATOM     33  H   UNL     1       9.340  -0.526  28.225  0.00  0.00    +0.210 HD
ENDBRANCH  29  32
BRANCH  30  34
ATOM     34  O   UNL     1       7.568   1.888  27.226  0.00  0.00    -0.386 OA
ATOM     35  H   UNL     1       8.534   1.885  27.373  0.00  0.00    +0.210 HD
ENDBRANCH  30  34
BRANCH  31  36
ATOM     36  O   UNL     1       4.920   1.415  28.089  0.00  0.00    -0.387 OA
ATOM     37  H   UNL     1       4.170   1.731  27.554  0.00  0.00    +0.210 HD
ENDBRANCH  31  36
ENDBRANCH  25  28
ENDBRANCH   1  25
TORSDOF 9
ENDMDL
MODEL 3
REMARK VINA RESULT:      -7.6      1.921      2.904
REMARK  Name = 
REMARK  9 active torsions:
REMARK  status: ('A' for Active; 'I' for Inactive)
REMARK    1  A    between atoms: C_2  and  O_35
REMARK    2  A    between atoms: C_4  and  O_34
REMARK    3  A    between atoms: C_6  and  O_33
REMARK    4  A    between atoms: C_8  and  O_11
REMARK    5  A    between atoms: O_11  and  C_12
REMARK    6  A    between atoms: C_13  and  C_25
REMARK    7  A    between atoms: C_17  and  O_24
REMARK    8  A    between atoms: C_19  and  O_23
REMARK    9  A    between atoms: C_27  and  O_32
REMARK                            x       y       z     vdW  Elec       q    Type
REMARK                         _______ _______ _______ _____ _____    ______ ____
ROOT
ATOM      1  C   UNL     1       7.944  -2.963  24.622  0.00  0.00    +0.214 A 
ATOM      2  C   UNL     1       9.150  -2.457  23.895  0.00  0.00    +0.238 A 
ATOM      3  O   UNL     1      10.203  -3.083  23.884  0.00  0.00    -0.283 OA
ATOM      4  C   UNL     1       9.049  -1.137  23.267  0.00  0.00    +0.109 A 
ATOM      5  C   UNL     1       8.018  -0.306  23.692  0.00  0.00    +0.147 A 
ATOM      6  C   UNL     1       7.926   1.001  23.203  0.00  0.00    +0.092 A 
ATOM      7  C   UNL     1       8.872   1.458  22.288  0.00  0.00    +0.124 A 
ATOM      8  C   UNL     1       9.894   0.629  21.839  0.00  0.00    +0.091 A 
ATOM      9  O   UNL     1       7.075  -0.702  24.608  0.00  0.00    -0.451 OA
ATOM     10  C   UNL     1       9.979  -0.674  22.321  0.00  0.00    +0.135 A 
ATOM     11  C   UNL     1       7.025  -2.043  24.993  0.00  0.00    +0.181 A 
ENDROOT
BRANCH  11  12
ATOM     12  C   UNL     1       5.861  -2.353  25.872  0.00  0.00    +0.024 A 
ATOM     13  C   UNL     1       6.040  -2.811  27.178  0.00  0.00    +0.011 A 
ATOM     14  C   UNL     1       4.937  -3.135  27.994  0.00  0.00    -0.004 A 
ATOM     15  C   UNL     1       3.598  -3.029  27.581  0.00  0.00    -0.066 A 
ATOM     16  O   UNL     1       2.636  -3.318  28.376  0.00  0.00    -0.871 OA
ATOM     17  C   UNL     1       3.450  -2.591  26.247  0.00  0.00    +0.110 A 
ATOM     18  C   UNL     1       4.541  -2.271  25.410  0.00  0.00    +0.056 A 
BRANCH  17  19
ATOM     19  O   UNL     1       2.187  -2.464  25.704  0.00  0.00    -0.507 OA
ATOM     20  H   UNL     1       1.555  -2.727  26.385  0.00  0.00    +0.292 HD
ENDBRANCH  17  19
ENDBRANCH  11  12
BRANCH   7  21
ATOM     21  O   UNL     1       8.840   2.728  21.793  0.00  0.00    -0.507 OA
ATOM     22  H   UNL     1       7.937   3.075  21.885  0.00  0.00    +0.292 HD
ENDBRANCH   7  21
BRANCH  10  23
ATOM     23  O   UNL     1      10.962  -1.491  21.840  0.00  0.00    -0.506 OA
ATOM     24  H   UNL     1      11.811  -1.022  21.842  0.00  0.00    +0.292 HD
ENDBRANCH  10  23
BRANCH   1  25
ATOM     25  O   UNL     1       7.840  -4.306  24.969  0.00  0.00    -0.453 OA
BRANCH  25  28
ATOM     26  C   UNL     1       7.266  -5.556  21.602  0.00  0.00    +0.198 C 
ATOM     27  O   UNL     1       7.665  -4.666  22.636  0.00  0.00    -0.337 OA
ATOM     28  C   UNL     1       7.350  -5.179  23.939  0.00  0.00    +0.339 C 
ATOM     29  C   UNL     1       5.820  -5.365  24.109  0.00  0.00    +0.214 C 
ATOM     30  C   UNL     1       5.297  -6.254  22.964  0.00  0.00    +0.180 C 
ATOM     31  C   UNL     1       5.751  -5.726  21.600  0.00  0.00    +0.171 C 
BRANCH  29  32
ATOM     32  O   UNL     1       5.508  -5.967  25.380  0.00  0.00    -0.383 OA
ATOM     33  H   UNL     1       4.759  -6.575  25.258  0.00  0.00    +0.210 HD
ENDBRANCH  29  32
BRANCH  30  34
ATOM     34  O   UNL     1       3.867  -6.342  22.981  0.00  0.00    -0.386 OA
ATOM     35  H   UNL     1       3.609  -6.208  23.914  0.00  0.00    +0.210 HD
ENDBRANCH  30  34
BRANCH  31  36
ATOM     36  O   UNL     1       5.333  -6.646  20.585  0.00  0.00    -0.387 OA
ATOM     37  H   UNL     1       6.091  -6.773  19.988  0.00  0.00    +0.210 HD
ENDBRANCH  31  36
ENDBRANCH  25  28
ENDBRANCH   1  25
TORSDOF 9
ENDMDL
MODEL 4
REMARK VINA RESULT:      -7.6      2.099      3.142
REMARK  Name = 
REMARK  9 active torsions:
REMARK  status: ('A' for Active; 'I' for Inactive)
REMARK    1  A    between atoms: C_2  and  O_35
REMARK    2  A    between atoms: C_4  and  O_34
REMARK    3  A    between atoms: C_6  and  O_33
REMARK    4  A    between atoms: C_8  and  O_11
REMARK    5  A    between atoms: O_11  and  C_12
REMARK    6  A    between atoms: C_13  and  C_25
REMARK    7  A    between atoms: C_17  and  O_24
REMARK    8  A    between atoms: C_19  and  O_23
REMARK    9  A    between atoms: C_27  and  O_32
REMARK                            x       y       z     vdW  Elec       q    Type
REMARK                         _______ _______ _______ _____ _____    ______ ____
ROOT
ATOM      1  C   UNL     1       7.697  -3.044  24.754  0.00  0.00    +0.214 A 
ATOM      2  C   UNL     1       8.917  -2.610  24.004  0.00  0.00    +0.238 A 
ATOM      3  O   UNL     1       9.969  -3.235  24.072  0.00  0.00    -0.283 OA
ATOM      4  C   UNL     1       8.830  -1.356  23.250  0.00  0.00    +0.109 A 
ATOM      5  C   UNL     1       7.793  -0.487  23.575  0.00  0.00    +0.147 A 
ATOM      6  C   UNL     1       7.714   0.766  22.962  0.00  0.00    +0.092 A 
ATOM      7  C   UNL     1       8.677   1.133  22.025  0.00  0.00    +0.124 A 
ATOM      8  C   UNL     1       9.705   0.266  21.676  0.00  0.00    +0.091 A 
ATOM      9  O   UNL     1       6.833  -0.794  24.508  0.00  0.00    -0.451 OA
ATOM     10  C   UNL     1       9.778  -0.986  22.282  0.00  0.00    +0.135 A 
ATOM     11  C   UNL     1       6.773  -2.092  25.018  0.00  0.00    +0.181 A 
ENDROOT
BRANCH  11  12
ATOM     12  C   UNL     1       5.593  -2.315  25.901  0.00  0.00    +0.024 A 
ATOM     13  C   UNL     1       5.743  -2.524  27.274  0.00  0.00    +0.011 A 
ATOM     14  C   UNL     1       4.627  -2.768  28.099  0.00  0.00    -0.004 A 
ATOM     15  C   UNL     1       3.302  -2.823  27.632  0.00  0.00    -0.066 A 
ATOM     16  O   UNL     1       2.326  -3.029  28.435  0.00  0.00    -0.871 OA
ATOM     17  C   UNL     1       3.186  -2.637  26.237  0.00  0.00    +0.110 A 
ATOM     18  C   UNL     1       4.291  -2.401  25.391  0.00  0.00    +0.056 A 
BRANCH  17  19
ATOM     19  O   UNL     1       1.942  -2.690  25.641  0.00  0.00    -0.507 OA
ATOM     20  H   UNL     1       2.014  -3.280  24.880  0.00  0.00    +0.292 HD
ENDBRANCH  17  19
ENDBRANCH  11  12
BRANCH   7  21
ATOM     21  O   UNL     1       8.657   2.351  21.411  0.00  0.00    -0.507 OA
ATOM     22  H   UNL     1       7.731   2.616  21.275  0.00  0.00    +0.292 HD
ENDBRANCH   7  21
BRANCH  10  23
ATOM     23  O   UNL     1      10.768  -1.846  21.899  0.00  0.00    -0.506 OA
ATOM     24  H   UNL     1      10.593  -2.731  22.257  0.00  0.00    +0.292 HD
ENDBRANCH  10  23
BRANCH   1  25
ATOM     25  O   UNL     1       7.584  -4.347  25.225  0.00  0.00    -0.453 OA
BRANCH  25  28
ATOM     26  C   UNL     1       5.378  -5.385  22.526  0.00  0.00    +0.198 C 
ATOM     27  O   UNL     1       6.178  -4.528  23.329  0.00  0.00    -0.337 OA
ATOM     28  C   UNL     1       6.709  -5.206  24.478  0.00  0.00    +0.339 C 
ATOM     29  C   UNL     1       5.568  -5.707  25.403  0.00  0.00    +0.214 C 
ATOM     30  C   UNL     1       4.603  -6.578  24.575  0.00  0.00    +0.180 C 
ATOM     31  C   UNL     1       4.153  -5.853  23.304  0.00  0.00    +0.171 C 
BRANCH  29  32
ATOM     32  O   UNL     1       6.093  -6.468  26.507  0.00  0.00    -0.383 OA
ATOM     33  H   UNL     1       6.545  -5.859  27.116  0.00  0.00    +0.210 HD
ENDBRANCH  29  32
BRANCH  30  34
ATOM     34  O   UNL     1       3.449  -6.950  25.339  0.00  0.00    -0.386 OA
ATOM     35  H   UNL     1       3.466  -7.926  25.378  0.00  0.00    +0.210 HD
ENDBRANCH  30  34
BRANCH  31  36
ATOM     36  O   UNL     1       3.350  -6.744  22.522  0.00  0.00    -0.387 OA
ATOM     37  H   UNL     1       3.205  -6.314  21.661  0.00  0.00    +0.210 HD
ENDBRANCH  31  36
ENDBRANCH  25  28
ENDBRANCH   1  25
TORSDOF 9
ENDMDL
MODEL 5
REMARK VINA RESULT:      -7.4      1.714      4.476
REMARK  Name = 
REMARK  9 active torsions:
REMARK  status: ('A' for Active; 'I' for Inactive)
REMARK    1  A    between atoms: C_2  and  O_35
REMARK    2  A    between atoms: C_4  and  O_34
REMARK    3  A    between atoms: C_6  and  O_33
REMARK    4  A    between atoms: C_8  and  O_11
REMARK    5  A    between atoms: O_11  and  C_12
REMARK    6  A    between atoms: C_13  and  C_25
REMARK    7  A    between atoms: C_17  and  O_24
REMARK    8  A    between atoms: C_19  and  O_23
REMARK    9  A    between atoms: C_27  and  O_32
REMARK                            x       y       z     vdW  Elec       q    Type
REMARK                         _______ _______ _______ _____ _____    ______ ____
ROOT
ATOM      1  C   UNL     1       7.821  -2.575  25.210  0.00  0.00    +0.214 A 
ATOM      2  C   UNL     1       8.669  -1.389  25.548  0.00  0.00    +0.238 A 
ATOM      3  O   UNL     1       8.964  -1.119  26.707  0.00  0.00    -0.283 OA
ATOM      4  C   UNL     1       9.062  -0.509  24.444  0.00  0.00    +0.109 A 
ATOM      5  C   UNL     1       8.337  -0.608  23.261  0.00  0.00    +0.147 A 
ATOM      6  C   UNL     1       8.598   0.271  22.205  0.00  0.00    +0.092 A 
ATOM      7  C   UNL     1       9.589   1.239  22.349  0.00  0.00    +0.124 A 
ATOM      8  C   UNL     1      10.335   1.334  23.518  0.00  0.00    +0.091 A 
ATOM      9  O   UNL     1       7.336  -1.530  23.079  0.00  0.00    -0.451 OA
ATOM     10  C   UNL     1      10.079   0.453  24.565  0.00  0.00    +0.135 A 
ATOM     11  C   UNL     1       7.155  -2.532  24.033  0.00  0.00    +0.181 A 
ENDROOT
BRANCH  11  12
ATOM     12  C   UNL     1       6.138  -3.544  23.629  0.00  0.00    +0.024 A 
ATOM     13  C   UNL     1       4.783  -3.365  23.914  0.00  0.00    +0.011 A 
ATOM     14  C   UNL     1       3.829  -4.340  23.559  0.00  0.00    -0.004 A 
ATOM     15  C   UNL     1       4.143  -5.544  22.907  0.00  0.00    -0.066 A 
ATOM     16  O   UNL     1       3.229  -6.383  22.591  0.00  0.00    -0.871 OA
ATOM     17  C   UNL     1       5.523  -5.709  22.658  0.00  0.00    +0.110 A 
ATOM     18  C   UNL     1       6.496  -4.750  23.013  0.00  0.00    +0.056 A 
BRANCH  17  19
ATOM     19  O   UNL     1       5.975  -6.860  22.042  0.00  0.00    -0.507 OA
ATOM     20  H   UNL     1       5.779  -6.776  21.100  0.00  0.00    +0.292 HD
ENDBRANCH  17  19
ENDBRANCH  11  12
BRANCH   7  21
ATOM     21  O   UNL     1       9.872   2.132  21.358  0.00  0.00    -0.507 OA
ATOM     22  H   UNL     1      10.272   1.654  20.612  0.00  0.00    +0.292 HD
ENDBRANCH   7  21
BRANCH  10  23
ATOM     23  O   UNL     1      10.848   0.528  25.692  0.00  0.00    -0.506 OA
ATOM     24  H   UNL     1      10.291   0.740  26.458  0.00  0.00    +0.292 HD
ENDBRANCH  10  23
BRANCH   1  25
ATOM     25  O   UNL     1       7.668  -3.616  26.119  0.00  0.00    -0.453 OA
BRANCH  25  28
ATOM     26  C   UNL     1       4.579  -2.643  27.774  0.00  0.00    +0.198 C 
ATOM     27  O   UNL     1       5.912  -2.545  27.290  0.00  0.00    -0.337 OA
ATOM     28  C   UNL     1       6.354  -3.766  26.678  0.00  0.00    +0.339 C 
ATOM     29  C   UNL     1       6.362  -4.930  27.703  0.00  0.00    +0.214 C 
ATOM     30  C   UNL     1       4.964  -5.042  28.340  0.00  0.00    +0.180 C 
ATOM     31  C   UNL     1       4.490  -3.690  28.880  0.00  0.00    +0.171 C 
BRANCH  29  32
ATOM     32  O   UNL     1       6.716  -6.175  27.072  0.00  0.00    -0.383 OA
ATOM     33  H   UNL     1       6.806  -6.856  27.760  0.00  0.00    +0.210 HD
ENDBRANCH  29  32
BRANCH  30  34
ATOM     34  O   UNL     1       4.948  -6.004  29.402  0.00  0.00    -0.386 OA
ATOM     35  H   UNL     1       5.837  -6.406  29.403  0.00  0.00    +0.210 HD
ENDBRANCH  30  34
BRANCH  31  36
ATOM     36  O   UNL     1       3.147  -3.827  29.358  0.00  0.00    -0.387 OA
ATOM     37  H   UNL     1       3.011  -3.131  30.026  0.00  0.00    +0.210 HD
ENDBRANCH  31  36
ENDBRANCH  25  28
ENDBRANCH   1  25
TORSDOF 9
ENDMDL
MODEL 6
REMARK VINA RESULT:      -7.4      2.347      7.290
REMARK  Name = 
REMARK  9 active torsions:
REMARK  status: ('A' for Active; 'I' for Inactive)
REMARK    1  A    between atoms: C_2  and  O_35
REMARK    2  A    between atoms: C_4  and  O_34
REMARK    3  A    between atoms: C_6  and  O_33
REMARK    4  A    between atoms: C_8  and  O_11
REMARK    5  A    between atoms: O_11  and  C_12
REMARK    6  A    between atoms: C_13  and  C_25
REMARK    7  A    between atoms: C_17  and  O_24
REMARK    8  A    between atoms: C_19  and  O_23
REMARK    9  A    between atoms: C_27  and  O_32
REMARK                            x       y       z     vdW  Elec       q    Type
REMARK                         _______ _______ _______ _____ _____    ______ ____
ROOT
ATOM      1  C   UNL     1       8.019  -2.228  25.378  0.00  0.00    +0.214 A 
ATOM      2  C   UNL     1       7.480  -3.616  25.530  0.00  0.00    +0.238 A 
ATOM      3  O   UNL     1       7.523  -4.207  26.603  0.00  0.00    -0.283 OA
ATOM      4  C   UNL     1       6.976  -4.276  24.323  0.00  0.00    +0.109 A 
ATOM      5  C   UNL     1       7.366  -3.746  23.097  0.00  0.00    +0.147 A 
ATOM      6  C   UNL     1       6.999  -4.388  21.910  0.00  0.00    +0.092 A 
ATOM      7  C   UNL     1       6.241  -5.555  21.968  0.00  0.00    +0.124 A 
ATOM      8  C   UNL     1       5.827  -6.082  23.186  0.00  0.00    +0.091 A 
ATOM      9  O   UNL     1       8.131  -2.611  22.988  0.00  0.00    -0.451 OA
ATOM     10  C   UNL     1       6.187  -5.437  24.367  0.00  0.00    +0.135 A 
ATOM     11  C   UNL     1       8.376  -1.846  24.130  0.00  0.00    +0.181 A 
ENDROOT
BRANCH  11  12
ATOM     12  C   UNL     1       9.089  -0.571  23.834  0.00  0.00    +0.024 A 
ATOM     13  C   UNL     1      10.111  -0.102  24.661  0.00  0.00    +0.011 A 
ATOM     14  C   UNL     1      10.760   1.121  24.396  0.00  0.00    -0.004 A 
ATOM     15  C   UNL     1      10.447   1.955  23.309  0.00  0.00    -0.066 A 
ATOM     16  O   UNL     1      11.086   3.047  23.108  0.00  0.00    -0.871 OA
ATOM     17  C   UNL     1       9.390   1.469  22.508  0.00  0.00    +0.110 A 
ATOM     18  C   UNL     1       8.721   0.252  22.761  0.00  0.00    +0.056 A 
BRANCH  17  19
ATOM     19  O   UNL     1       8.964   2.202  21.418  0.00  0.00    -0.507 OA
ATOM     20  H   UNL     1       8.106   1.848  21.153  0.00  0.00    +0.292 HD
ENDBRANCH  17  19
ENDBRANCH  11  12
BRANCH   7  21
ATOM     21  O   UNL     1       5.872  -6.230  20.842  0.00  0.00    -0.507 OA
ATOM     22  H   UNL     1       6.655  -6.349  20.279  0.00  0.00    +0.292 HD
ENDBRANCH   7  21
BRANCH  10  23
ATOM     23  O   UNL     1       5.738  -5.941  25.555  0.00  0.00    -0.506 OA
ATOM     24  H   UNL     1       5.434  -6.854  25.432  0.00  0.00    +0.292 HD
ENDBRANCH  10  23
BRANCH   1  25
ATOM     25  O   UNL     1       8.221  -1.422  26.493  0.00  0.00    -0.453 OA
BRANCH  25  28
ATOM     26  C   UNL     1       4.900   0.061  26.414  0.00  0.00    +0.198 C 
ATOM     27  O   UNL     1       6.096  -0.541  25.935  0.00  0.00    -0.337 OA
ATOM     28  C   UNL     1       7.059  -0.734  26.982  0.00  0.00    +0.339 C 
ATOM     29  C   UNL     1       7.488   0.622  27.599  0.00  0.00    +0.214 C 
ATOM     30  C   UNL     1       6.227   1.377  28.065  0.00  0.00    +0.180 C 
ATOM     31  C   UNL     1       5.185   1.461  26.947  0.00  0.00    +0.171 C 
BRANCH  29  32
ATOM     32  O   UNL     1       8.382   0.427  28.711  0.00  0.00    -0.383 OA
ATOM     33  H   UNL     1       8.982  -0.309  28.499  0.00  0.00    +0.210 HD
ENDBRANCH  29  32
BRANCH  30  34
ATOM     34  O   UNL     1       6.546   2.701  28.512  0.00  0.00    -0.386 OA
ATOM     35  H   UNL     1       5.720   3.051  28.900  0.00  0.00    +0.210 HD
ENDBRANCH  30  34
BRANCH  31  36
ATOM     36  O   UNL     1       3.998   2.071  27.465  0.00  0.00    -0.387 OA
ATOM     37  H   UNL     1       3.738   2.766  26.835  0.00  0.00    +0.210 HD
ENDBRANCH  31  36
ENDBRANCH  25  28
ENDBRANCH   1  25
TORSDOF 9
ENDMDL
MODEL 7
REMARK VINA RESULT:      -7.1      1.815      4.180
REMARK  Name = 
REMARK  9 active torsions:
REMARK  status: ('A' for Active; 'I' for Inactive)
REMARK    1  A    between atoms: C_2  and  O_35
REMARK    2  A    between atoms: C_4  and  O_34
REMARK    3  A    between atoms: C_6  and  O_33
REMARK    4  A    between atoms: C_8  and  O_11
REMARK    5  A    between atoms: O_11  and  C_12
REMARK    6  A    between atoms: C_13  and  C_25
REMARK    7  A    between atoms: C_17  and  O_24
REMARK    8  A    between atoms: C_19  and  O_23
REMARK    9  A    between atoms: C_27  and  O_32
REMARK                            x       y       z     vdW  Elec       q    Type
REMARK                         _______ _______ _______ _____ _____    ______ ____
ROOT
ATOM      1  C   UNL     1       7.591  -1.164  24.945  0.00  0.00    +0.214 A 
ATOM      2  C   UNL     1       7.655   0.241  25.457  0.00  0.00    +0.238 A 
ATOM      3  O   UNL     1       7.802   0.485  26.649  0.00  0.00    -0.283 OA
ATOM      4  C   UNL     1       7.447   1.318  24.485  0.00  0.00    +0.109 A 
ATOM      5  C   UNL     1       6.847   0.980  23.276  0.00  0.00    +0.147 A 
ATOM      6  C   UNL     1       6.532   1.977  22.348  0.00  0.00    +0.092 A 
ATOM      7  C   UNL     1       6.828   3.306  22.645  0.00  0.00    +0.124 A 
ATOM      8  C   UNL     1       7.446   3.654  23.839  0.00  0.00    +0.091 A 
ATOM      9  O   UNL     1       6.517  -0.312  22.948  0.00  0.00    -0.451 OA
ATOM     10  C   UNL     1       7.766   2.659  24.759  0.00  0.00    +0.135 A 
ATOM     11  C   UNL     1       6.963  -1.354  23.762  0.00  0.00    +0.181 A 
ENDROOT
BRANCH  11  12
ATOM     12  C   UNL     1       6.659  -2.702  23.201  0.00  0.00    +0.024 A 
ATOM     13  C   UNL     1       7.649  -3.472  22.588  0.00  0.00    +0.011 A 
ATOM     14  C   UNL     1       7.350  -4.731  22.030  0.00  0.00    -0.004 A 
ATOM     15  C   UNL     1       6.068  -5.309  22.038  0.00  0.00    -0.066 A 
ATOM     16  O   UNL     1       5.862  -6.467  21.532  0.00  0.00    -0.871 OA
ATOM     17  C   UNL     1       5.084  -4.494  22.639  0.00  0.00    +0.110 A 
ATOM     18  C   UNL     1       5.360  -3.226  23.195  0.00  0.00    +0.056 A 
BRANCH  17  19
ATOM     19  O   UNL     1       3.776  -4.930  22.694  0.00  0.00    -0.507 OA
ATOM     20  H   UNL     1       3.253  -4.219  23.085  0.00  0.00    +0.292 HD
ENDBRANCH  17  19
ENDBRANCH  11  12
BRANCH   7  21
ATOM     21  O   UNL     1       6.526   4.320  21.784  0.00  0.00    -0.507 OA
ATOM     22  H   UNL     1       7.355   4.715  21.465  0.00  0.00    +0.292 HD
ENDBRANCH   7  21
BRANCH  10  23
ATOM     23  O   UNL     1       8.413   3.009  25.910  0.00  0.00    -0.506 OA
ATOM     24  H   UNL     1       8.956   3.797  25.756  0.00  0.00    +0.292 HD
ENDBRANCH  10  23
BRANCH   1  25
ATOM     25  O   UNL     1       8.079  -2.217  25.710  0.00  0.00    -0.453 OA
BRANCH  25  28
ATOM     26  C   UNL     1       5.153  -3.413  27.509  0.00  0.00    +0.198 C 
ATOM     27  O   UNL     1       6.187  -2.529  27.098  0.00  0.00    -0.337 OA
ATOM     28  C   UNL     1       7.097  -3.153  26.180  0.00  0.00    +0.339 C 
ATOM     29  C   UNL     1       7.813  -4.360  26.842  0.00  0.00    +0.214 C 
ATOM     30  C   UNL     1       6.748  -5.327  27.395  0.00  0.00    +0.180 C 
ATOM     31  C   UNL     1       5.737  -4.593  28.279  0.00  0.00    +0.171 C 
BRANCH  29  32
ATOM     32  O   UNL     1       8.656  -5.045  25.897  0.00  0.00    -0.383 OA
ATOM     33  H   UNL     1       8.349  -4.834  24.998  0.00  0.00    +0.210 HD
ENDBRANCH  29  32
BRANCH  30  34
ATOM     34  O   UNL     1       7.347  -6.389  28.148  0.00  0.00    -0.386 OA
ATOM     35  H   UNL     1       8.207  -6.561  27.718  0.00  0.00    +0.210 HD
ENDBRANCH  30  34
BRANCH  31  36
ATOM     36  O   UNL     1       4.713  -5.513  28.674  0.00  0.00    -0.387 OA
ATOM     37  H   UNL     1       5.086  -6.064  29.385  0.00  0.00    +0.210 HD
ENDBRANCH  31  36
ENDBRANCH  25  28
ENDBRANCH   1  25
TORSDOF 9
ENDMDL
MODEL 8
REMARK VINA RESULT:      -7.0      2.524      3.836
REMARK  Name = 
REMARK  9 active torsions:
REMARK  status: ('A' for Active; 'I' for Inactive)
REMARK    1  A    between atoms: C_2  and  O_35
REMARK    2  A    between atoms: C_4  and  O_34
REMARK    3  A    between atoms: C_6  and  O_33
REMARK    4  A    between atoms: C_8  and  O_11
REMARK    5  A    between atoms: O_11  and  C_12
REMARK    6  A    between atoms: C_13  and  C_25
REMARK    7  A    between atoms: C_17  and  O_24
REMARK    8  A    between atoms: C_19  and  O_23
REMARK    9  A    between atoms: C_27  and  O_32
REMARK                            x       y       z     vdW  Elec       q    Type
REMARK                         _______ _______ _______ _____ _____    ______ ____
ROOT
ATOM      1  C   UNL     1       7.486  -2.401  25.601  0.00  0.00    +0.214 A 
ATOM      2  C   UNL     1       8.720  -2.309  24.759  0.00  0.00    +0.238 A 
ATOM      3  O   UNL     1       9.685  -3.040  24.951  0.00  0.00    -0.283 OA
ATOM      4  C   UNL     1       8.764  -1.249  23.748  0.00  0.00    +0.109 A 
ATOM      5  C   UNL     1       7.862  -0.199  23.885  0.00  0.00    +0.147 A 
ATOM      6  C   UNL     1       7.918   0.890  23.010  0.00  0.00    +0.092 A 
ATOM      7  C   UNL     1       8.881   0.910  22.003  0.00  0.00    +0.124 A 
ATOM      8  C   UNL     1       9.774  -0.143  21.843  0.00  0.00    +0.091 A 
ATOM      9  O   UNL     1       6.910  -0.163  24.874  0.00  0.00    -0.451 OA
ATOM     10  C   UNL     1       9.710  -1.230  22.710  0.00  0.00    +0.135 A 
ATOM     11  C   UNL     1       6.705  -1.298  25.660  0.00  0.00    +0.181 A 
ENDROOT
BRANCH  11  12
ATOM     12  C   UNL     1       5.543  -1.163  26.585  0.00  0.00    +0.024 A 
ATOM     13  C   UNL     1       4.311  -1.752  26.292  0.00  0.00    +0.011 A 
ATOM     14  C   UNL     1       3.206  -1.594  27.153  0.00  0.00    -0.004 A 
ATOM     15  C   UNL     1       3.241  -0.853  28.347  0.00  0.00    -0.066 A 
ATOM     16  O   UNL     1       2.209  -0.763  29.099  0.00  0.00    -0.871 OA
ATOM     17  C   UNL     1       4.491  -0.247  28.600  0.00  0.00    +0.110 A 
ATOM     18  C   UNL     1       5.607  -0.384  27.747  0.00  0.00    +0.056 A 
BRANCH  17  19
ATOM     19  O   UNL     1       4.659   0.530  29.729  0.00  0.00    -0.507 OA
ATOM     20  H   UNL     1       5.605   0.695  29.826  0.00  0.00    +0.292 HD
ENDBRANCH  17  19
ENDBRANCH  11  12
BRANCH   7  21
ATOM     21  O   UNL     1       8.992   1.956  21.135  0.00  0.00    -0.507 OA
ATOM     22  H   UNL     1       8.781   2.778  21.609  0.00  0.00    +0.292 HD
ENDBRANCH   7  21
BRANCH  10  23
ATOM     23  O   UNL     1      10.565  -2.279  22.515  0.00  0.00    -0.506 OA
ATOM     24  H   UNL     1      11.370  -1.969  22.071  0.00  0.00    +0.292 HD
ENDBRANCH  10  23
BRANCH   1  25
ATOM     25  O   UNL     1       7.226  -3.542  26.352  0.00  0.00    -0.453 OA
BRANCH  25  28
ATOM     26  C   UNL     1       5.544  -5.325  23.664  0.00  0.00    +0.198 C 
ATOM     27  O   UNL     1       5.994  -4.230  24.451  0.00  0.00    -0.337 OA
ATOM     28  C   UNL     1       6.706  -4.663  25.620  0.00  0.00    +0.339 C 
ATOM     29  C   UNL     1       5.791  -5.503  26.549  0.00  0.00    +0.214 C 
ATOM     30  C   UNL     1       5.191  -6.667  25.736  0.00  0.00    +0.180 C 
ATOM     31  C   UNL     1       4.539  -6.165  24.445  0.00  0.00    +0.171 C 
BRANCH  29  32
ATOM     32  O   UNL     1       6.526  -6.017  27.675  0.00  0.00    -0.383 OA
ATOM     33  H   UNL     1       7.420  -5.635  27.662  0.00  0.00    +0.210 HD
ENDBRANCH  29  32
BRANCH  30  34
ATOM     34  O   UNL     1       4.221  -7.394  26.501  0.00  0.00    -0.386 OA
ATOM     35  H   UNL     1       3.869  -6.755  27.150  0.00  0.00    +0.210 HD
ENDBRANCH  30  34
BRANCH  31  36
ATOM     36  O   UNL     1       4.099  -7.293  23.680  0.00  0.00    -0.387 OA
ATOM     37  H   UNL     1       4.882  -7.848  23.518  0.00  0.00    +0.210 HD
ENDBRANCH  31  36
ENDBRANCH  25  28
ENDBRANCH   1  25
TORSDOF 9
ENDMDL
MODEL 9
REMARK VINA RESULT:      -7.0      1.735      4.398
REMARK  Name = 
REMARK  9 active torsions:
REMARK  status: ('A' for Active; 'I' for Inactive)
REMARK    1  A    between atoms: C_2  and  O_35
REMARK    2  A    between atoms: C_4  and  O_34
REMARK    3  A    between atoms: C_6  and  O_33
REMARK    4  A    between atoms: C_8  and  O_11
REMARK    5  A    between atoms: O_11  and  C_12
REMARK    6  A    between atoms: C_13  and  C_25
REMARK    7  A    between atoms: C_17  and  O_24
REMARK    8  A    between atoms: C_19  and  O_23
REMARK    9  A    between atoms: C_27  and  O_32
REMARK                            x       y       z     vdW  Elec       q    Type
REMARK                         _______ _______ _______ _____ _____    ______ ____
ROOT
ATOM      1  C   UNL     1       6.387  -0.912  24.350  0.00  0.00    +0.214 A 
ATOM      2  C   UNL     1       6.594   0.504  24.790  0.00  0.00    +0.238 A 
ATOM      3  O   UNL     1       5.763   1.092  25.473  0.00  0.00    -0.283 OA
ATOM      4  C   UNL     1       7.792   1.190  24.299  0.00  0.00    +0.109 A 
ATOM      5  C   UNL     1       8.435   0.639  23.195  0.00  0.00    +0.147 A 
ATOM      6  C   UNL     1       9.525   1.300  22.619  0.00  0.00    +0.092 A 
ATOM      7  C   UNL     1       9.959   2.507  23.162  0.00  0.00    +0.124 A 
ATOM      8  C   UNL     1       9.338   3.056  24.278  0.00  0.00    +0.091 A 
ATOM      9  O   UNL     1       8.032  -0.536  22.612  0.00  0.00    -0.451 OA
ATOM     10  C   UNL     1       8.258   2.393  24.855  0.00  0.00    +0.135 A 
ATOM     11  C   UNL     1       7.063  -1.313  23.249  0.00  0.00    +0.181 A 
ENDROOT
BRANCH  11  12
ATOM     12  C   UNL     1       6.837  -2.626  22.580  0.00  0.00    +0.024 A 
ATOM     13  C   UNL     1       5.776  -2.815  21.693  0.00  0.00    +0.011 A 
ATOM     14  C   UNL     1       5.547  -4.067  21.088  0.00  0.00    -0.004 A 
ATOM     15  C   UNL     1       6.339  -5.206  21.316  0.00  0.00    -0.066 A 
ATOM     16  O   UNL     1       6.093  -6.312  20.721  0.00  0.00    -0.871 OA
ATOM     17  C   UNL     1       7.386  -4.990  22.239  0.00  0.00    +0.110 A 
ATOM     18  C   UNL     1       7.627  -3.748  22.863  0.00  0.00    +0.056 A 
BRANCH  17  19
ATOM     19  O   UNL     1       8.228  -6.032  22.573  0.00  0.00    -0.507 OA
ATOM     20  H   UNL     1       7.798  -6.850  22.293  0.00  0.00    +0.292 HD
ENDBRANCH  17  19
ENDBRANCH  11  12
BRANCH   7  21
ATOM     21  O   UNL     1      11.004   3.201  22.629  0.00  0.00    -0.507 OA
ATOM     22  H   UNL     1      10.955   3.142  21.659  0.00  0.00    +0.292 HD
ENDBRANCH   7  21
BRANCH  10  23
ATOM     23  O   UNL     1       7.684   2.921  25.977  0.00  0.00    -0.506 OA
ATOM     24  H   UNL     1       8.118   2.565  26.768  0.00  0.00    +0.292 HD
ENDBRANCH  10  23
BRANCH   1  25
ATOM     25  O   UNL     1       5.470  -1.728  25.003  0.00  0.00    -0.453 OA
BRANCH  25  28
ATOM     26  C   UNL     1       8.038  -3.575  26.799  0.00  0.00    +0.198 C 
ATOM     27  O   UNL     1       7.458  -2.708  25.833  0.00  0.00    -0.337 OA
ATOM     28  C   UNL     1       6.026  -2.675  25.928  0.00  0.00    +0.339 C 
ATOM     29  C   UNL     1       5.419  -4.075  25.656  0.00  0.00    +0.214 C 
ATOM     30  C   UNL     1       6.068  -5.093  26.614  0.00  0.00    +0.180 C 
ATOM     31  C   UNL     1       7.596  -5.014  26.556  0.00  0.00    +0.171 C 
BRANCH  29  32
ATOM     32  O   UNL     1       3.991  -4.067  25.843  0.00  0.00    -0.383 OA
ATOM     33  H   UNL     1       3.587  -4.638  25.167  0.00  0.00    +0.210 HD
ENDBRANCH  29  32
BRANCH  30  34
ATOM     34  O   UNL     1       5.655  -6.432  26.313  0.00  0.00    -0.386 OA
ATOM     35  H   UNL     1       5.787  -6.938  27.138  0.00  0.00    +0.210 HD
ENDBRANCH  30  34
BRANCH  31  36
ATOM     36  O   UNL     1       8.143  -5.898  27.541  0.00  0.00    -0.387 OA
ATOM     37  H   UNL     1       8.441  -5.345  28.284  0.00  0.00    +0.210 HD
ENDBRANCH  31  36
ENDBRANCH  25  28
ENDBRANCH   1  25
TORSDOF 9
ENDMDL
