MODEL 1
REMARK VINA RESULT:      -7.5      0.000      0.000
REMARK  Name = 
REMARK  22 active torsions:
REMARK  status: ('A' for Active; 'I' for Inactive)
REMARK    1  A    between atoms: C_1  and  C_2
REMARK    2  A    between atoms: C_3  and  O_61
REMARK    3  A    between atoms: C_5  and  O_60
REMARK    4  A    between atoms: C_7  and  O_59
REMARK    5  A    between atoms: C_8  and  O_11
REMARK    6  A    between atoms: O_11  and  C_12
REMARK    7  A    between atoms: C_14  and  O_58
REMARK    8  A    between atoms: C_19  and  C_50
REMARK    9  A    between atoms: C_20  and  O_23
REMARK   10  A    between atoms: O_23  and  C_24
REMARK   11  A    between atoms: C_26  and  O_36
REMARK   12  A    between atoms: C_27  and  O_35
REMARK   13  A    between atoms: C_28  and  O_34
REMARK   14  A    between atoms: C_30  and  C_32
REMARK   15  A    between atoms: C_32  and  O_33
REMARK   16  A    between atoms: O_36  and  C_37
REMARK   17  A    between atoms: C_39  and  O_49
REMARK   18  A    between atoms: C_41  and  O_48
REMARK   19  A    between atoms: C_42  and  O_47
REMARK   20  A    between atoms: C_44  and  C_46
REMARK   21  A    between atoms: C_52  and  O_57
REMARK   22  A    between atoms: C_53  and  O_56
REMARK                            x       y       z     vdW  Elec       q    Type
REMARK                         _______ _______ _______ _____ _____    ______ ____
ROOT
ATOM      1  C   UNL     1       6.200  -4.926  25.877  0.00  0.00    +0.131 A 
ATOM      2  C   UNL     1       5.575  -3.815  26.461  0.00  0.00    +0.093 A 
ATOM      3  C   UNL     1       6.263  -2.597  26.590  0.00  0.00    +0.147 A 
ATOM      4  O   UNL     1       5.627  -1.537  27.206  0.00  0.00    -0.451 OA
ATOM      5  C   UNL     1       6.033  -0.247  26.853  0.00  0.00    +0.181 A 
ATOM      6  C   UNL     1       7.261   0.014  26.304  0.00  0.00    +0.214 A 
ATOM      7  C   UNL     1       8.201  -1.145  26.338  0.00  0.00    +0.238 A 
ATOM      8  O   UNL     1       9.387  -1.011  26.604  0.00  0.00    -0.283 OA
ATOM      9  C   UNL     1       7.563  -2.465  26.128  0.00  0.00    +0.109 A 
ATOM     10  C   UNL     1       8.168  -3.544  25.485  0.00  0.00    +0.135 A 
ATOM     11  C   UNL     1       7.496  -4.770  25.367  0.00  0.00    +0.092 A 
ENDROOT
BRANCH   5  12
ATOM     12  C   UNL     1       4.995   0.797  27.157  0.00  0.00    +0.025 A 
ATOM     13  C   UNL     1       4.988   1.493  28.383  0.00  0.00    +0.015 A 
ATOM     14  C   UNL     1       4.061   2.508  28.661  0.00  0.00    +0.050 A 
ATOM     15  C   UNL     1       3.105   2.836  27.708  0.00  0.00    +0.158 A 
ATOM     16  C   UNL     1       3.067   2.155  26.511  0.00  0.00    +0.159 A 
ATOM     17  C   UNL     1       3.997   1.167  26.244  0.00  0.00    +0.060 A 
BRANCH  16  18
ATOM     18  O   UNL     1       2.098   2.511  25.609  0.00  0.00    -0.503 OA
ATOM     19  H   UNL     1       1.234   2.150  25.906  0.00  0.00    +0.292 HD
ENDBRANCH  16  18
BRANCH  15  20
ATOM     20  O   UNL     1       2.205   3.836  27.935  0.00  0.00    -0.503 OA
ATOM     21  H   UNL     1       2.538   4.274  28.749  0.00  0.00    +0.292 HD
ENDBRANCH  15  20
ENDBRANCH   5  12
BRANCH  10  22
ATOM     22  O   UNL     1       9.403  -3.397  24.922  0.00  0.00    -0.506 OA
ATOM     23  H   UNL     1      10.089  -3.682  25.548  0.00  0.00    +0.292 HD
ENDBRANCH  10  22
BRANCH   6  24
ATOM     24  O   UNL     1       7.546   1.187  25.630  0.00  0.00    -0.453 OA
BRANCH  24  25
ATOM     25  C   UNL     1       7.980   1.352  24.274  0.00  0.00    +0.340 C 
ATOM     26  O   UNL     1       8.828   0.238  23.950  0.00  0.00    -0.331 OA
ATOM     27  C   UNL     1       9.733   0.301  22.829  0.00  0.00    +0.179 C 
ATOM     28  C   UNL     1      10.250   1.685  22.433  0.00  0.00    +0.177 C 
ATOM     29  C   UNL     1      10.211   2.607  23.630  0.00  0.00    +0.180 C 
ATOM     30  C   UNL     1       8.764   2.728  24.167  0.00  0.00    +0.221 C 
BRANCH  29  31
ATOM     31  O   UNL     1      10.728   3.891  23.224  0.00  0.00    -0.386 OA
ATOM     32  H   UNL     1      10.495   4.530  23.921  0.00  0.00    +0.210 HD
ENDBRANCH  29  31
BRANCH  28  33
ATOM     33  O   UNL     1       9.475   2.283  21.387  0.00  0.00    -0.386 OA
ATOM     34  H   UNL     1       8.944   2.986  21.810  0.00  0.00    +0.210 HD
ENDBRANCH  28  33
BRANCH  30  35
ATOM     35  O   UNL     1       8.639   3.764  25.154  0.00  0.00    -0.337 OA
BRANCH  35  36
ATOM     36  C   UNL     1       8.448   5.158  24.937  0.00  0.00    +0.282 C 
ATOM     37  O   UNL     1       7.577   5.632  25.988  0.00  0.00    -0.343 OA
ATOM     38  C   UNL     1       6.289   4.991  25.984  0.00  0.00    +0.149 C 
ATOM     39  C   UNL     1       5.477   5.598  27.133  0.00  0.00    +0.041 C 
ATOM     40  C   UNL     1       5.543   5.151  24.641  0.00  0.00    +0.174 C 
ATOM     41  C   UNL     1       6.453   4.928  23.429  0.00  0.00    +0.179 C 
ATOM     42  C   UNL     1       7.793   5.639  23.617  0.00  0.00    +0.201 C 
BRANCH  42  43
ATOM     43  O   UNL     1       8.625   5.514  22.460  0.00  0.00    -0.384 OA
ATOM     44  H   UNL     1       8.956   4.607  22.427  0.00  0.00    +0.210 HD
ENDBRANCH  42  43
BRANCH  41  45
ATOM     45  O   UNL     1       5.794   5.383  22.239  0.00  0.00    -0.386 OA
ATOM     46  H   UNL     1       5.850   4.652  21.595  0.00  0.00    +0.210 HD
ENDBRANCH  41  45
BRANCH  40  47
ATOM     47  O   UNL     1       4.423   4.254  24.556  0.00  0.00    -0.387 OA
ATOM     48  H   UNL     1       3.608   4.786  24.527  0.00  0.00    +0.210 HD
ENDBRANCH  40  47
ENDBRANCH  35  36
ENDBRANCH  30  35
BRANCH  27  49
ATOM     49  C   UNL     1       9.218  -0.465  21.605  0.00  0.00    +0.190 C 
BRANCH  49  50
ATOM     50  O   UNL     1      10.011  -1.624  21.375  0.00  0.00    -0.392 OA
ATOM     51  H   UNL     1       9.719  -2.294  22.020  0.00  0.00    +0.210 HD
ENDBRANCH  49  50
ENDBRANCH  27  49
ENDBRANCH  24  25
ENDBRANCH   6  24
BRANCH   1  52
ATOM     52  O   UNL     1       5.684  -6.199  25.760  0.00  0.00    -0.461 OA
BRANCH  52  56
ATOM     53  C   UNL     1       1.724  -7.465  26.656  0.00  0.00    +0.041 C 
ATOM     54  C   UNL     1       2.465  -7.931  25.403  0.00  0.00    +0.150 C 
ATOM     55  O   UNL     1       3.875  -7.706  25.542  0.00  0.00    -0.334 OA
ATOM     56  C   UNL     1       4.275  -6.330  25.504  0.00  0.00    +0.339 C 
ATOM     57  C   UNL     1       3.931  -5.783  24.093  0.00  0.00    +0.214 C 
ATOM     58  C   UNL     1       2.397  -5.859  23.932  0.00  0.00    +0.180 C 
ATOM     59  C   UNL     1       1.901  -7.309  24.114  0.00  0.00    +0.174 C 
BRANCH  59  60
ATOM     60  O   UNL     1       2.286  -8.113  22.990  0.00  0.00    -0.387 OA
ATOM     61  H   UNL     1       3.252  -8.274  23.073  0.00  0.00    +0.210 HD
ENDBRANCH  59  60
BRANCH  58  62
ATOM     62  O   UNL     1       1.972  -5.307  22.683  0.00  0.00    -0.386 OA
ATOM     63  H   UNL     1       2.752  -4.940  22.232  0.00  0.00    +0.210 HD
ENDBRANCH  58  62
BRANCH  57  64
ATOM     64  O   UNL     1       4.557  -6.601  23.074  0.00  0.00    -0.383 OA
ATOM     65  H   UNL     1       3.931  -6.644  22.326  0.00  0.00    +0.210 HD
ENDBRANCH  57  64
ENDBRANCH  52  56
ENDBRANCH   1  52
TORSDOF 20
ENDMDL
MODEL 2
REMARK VINA RESULT:      -7.4      2.119      3.796
REMARK  Name = 
REMARK  22 active torsions:
REMARK  status: ('A' for Active; 'I' for Inactive)
REMARK    1  A    between atoms: C_1  and  C_2
REMARK    2  A    between atoms: C_3  and  O_61
REMARK    3  A    between atoms: C_5  and  O_60
REMARK    4  A    between atoms: C_7  and  O_59
REMARK    5  A    between atoms: C_8  and  O_11
REMARK    6  A    between atoms: O_11  and  C_12
REMARK    7  A    between atoms: C_14  and  O_58
REMARK    8  A    between atoms: C_19  and  C_50
REMARK    9  A    between atoms: C_20  and  O_23
REMARK   10  A    between atoms: O_23  and  C_24
REMARK   11  A    between atoms: C_26  and  O_36
REMARK   12  A    between atoms: C_27  and  O_35
REMARK   13  A    between atoms: C_28  and  O_34
REMARK   14  A    between atoms: C_30  and  C_32
REMARK   15  A    between atoms: C_32  and  O_33
REMARK   16  A    between atoms: O_36  and  C_37
REMARK   17  A    between atoms: C_39  and  O_49
REMARK   18  A    between atoms: C_41  and  O_48
REMARK   19  A    between atoms: C_42  and  O_47
REMARK   20  A    between atoms: C_44  and  C_46
REMARK   21  A    between atoms: C_52  and  O_57
REMARK   22  A    between atoms: C_53  and  O_56
REMARK                            x       y       z     vdW  Elec       q    Type
REMARK                         _______ _______ _______ _____ _____    ______ ____
ROOT
ATOM      1  C   UNL     1       8.594  -3.786  25.710  0.00  0.00    +0.131 A 
ATOM      2  C   UNL     1       8.162  -2.624  26.364  0.00  0.00    +0.093 A 
ATOM      3  C   UNL     1       8.533  -1.356  25.884  0.00  0.00    +0.147 A 
ATOM      4  O   UNL     1       8.119  -0.236  26.577  0.00  0.00    -0.451 OA
ATOM      5  C   UNL     1       7.985   0.955  25.858  0.00  0.00    +0.181 A 
ATOM      6  C   UNL     1       8.636   1.178  24.673  0.00  0.00    +0.214 A 
ATOM      7  C   UNL     1       9.668   0.151  24.344  0.00  0.00    +0.238 A 
ATOM      8  O   UNL     1      10.749   0.450  23.859  0.00  0.00    -0.283 OA
ATOM      9  C   UNL     1       9.315  -1.231  24.747  0.00  0.00    +0.109 A 
ATOM     10  C   UNL     1       9.693  -2.380  24.052  0.00  0.00    +0.135 A 
ATOM     11  C   UNL     1       9.343  -3.649  24.533  0.00  0.00    +0.092 A 
ENDROOT
BRANCH   5  12
ATOM     12  C   UNL     1       7.080   1.947  26.535  0.00  0.00    +0.025 A 
ATOM     13  C   UNL     1       5.864   1.549  27.127  0.00  0.00    +0.015 A 
ATOM     14  C   UNL     1       5.035   2.451  27.810  0.00  0.00    +0.050 A 
ATOM     15  C   UNL     1       5.409   3.786  27.898  0.00  0.00    +0.158 A 
ATOM     16  C   UNL     1       6.578   4.212  27.305  0.00  0.00    +0.159 A 
ATOM     17  C   UNL     1       7.393   3.309  26.649  0.00  0.00    +0.060 A 
BRANCH  16  18
ATOM     18  O   UNL     1       6.897   5.541  27.415  0.00  0.00    -0.503 OA
ATOM     19  H   UNL     1       6.074   6.058  27.563  0.00  0.00    +0.292 HD
ENDBRANCH  16  18
BRANCH  15  20
ATOM     20  O   UNL     1       4.640   4.685  28.578  0.00  0.00    -0.503 OA
ATOM     21  H   UNL     1       3.731   4.518  28.245  0.00  0.00    +0.292 HD
ENDBRANCH  15  20
ENDBRANCH   5  12
BRANCH  10  22
ATOM     22  O   UNL     1      10.366  -2.270  22.869  0.00  0.00    -0.506 OA
ATOM     23  H   UNL     1       9.796  -1.854  22.201  0.00  0.00    +0.292 HD
ENDBRANCH  10  22
BRANCH   6  24
ATOM     24  O   UNL     1       8.255   2.165  23.784  0.00  0.00    -0.453 OA
BRANCH  24  25
ATOM     25  C   UNL     1       9.020   3.283  23.313  0.00  0.00    +0.340 C 
ATOM     26  O   UNL     1      10.237   3.327  24.075  0.00  0.00    -0.331 OA
ATOM     27  C   UNL     1      11.028   4.533  24.134  0.00  0.00    +0.179 C 
ATOM     28  C   UNL     1      10.282   5.858  23.966  0.00  0.00    +0.177 C 
ATOM     29  C   UNL     1       8.839   5.689  24.383  0.00  0.00    +0.180 C 
ATOM     30  C   UNL     1       8.156   4.598  23.522  0.00  0.00    +0.221 C 
BRANCH  29  31
ATOM     31  O   UNL     1       8.178   6.962  24.236  0.00  0.00    -0.386 OA
ATOM     32  H   UNL     1       8.538   7.384  23.435  0.00  0.00    +0.210 HD
ENDBRANCH  29  31
BRANCH  28  33
ATOM     33  O   UNL     1      10.301   6.333  22.615  0.00  0.00    -0.386 OA
ATOM     34  H   UNL     1      10.672   5.607  22.077  0.00  0.00    +0.210 HD
ENDBRANCH  28  33
BRANCH  30  35
ATOM     35  O   UNL     1       6.735   4.562  23.724  0.00  0.00    -0.337 OA
BRANCH  35  36
ATOM     36  C   UNL     1       5.728   4.207  22.782  0.00  0.00    +0.282 C 
ATOM     37  O   UNL     1       4.886   5.369  22.607  0.00  0.00    -0.343 OA
ATOM     38  C   UNL     1       4.242   5.785  23.824  0.00  0.00    +0.149 C 
ATOM     39  C   UNL     1       3.380   7.005  23.487  0.00  0.00    +0.041 C 
ATOM     40  C   UNL     1       3.385   4.669  24.462  0.00  0.00    +0.174 C 
ATOM     41  C   UNL     1       4.089   3.307  24.458  0.00  0.00    +0.179 C 
ATOM     42  C   UNL     1       4.756   3.045  23.108  0.00  0.00    +0.201 C 
BRANCH  42  43
ATOM     43  O   UNL     1       5.347   1.743  23.055  0.00  0.00    -0.384 OA
ATOM     44  H   UNL     1       6.009   1.745  22.351  0.00  0.00    +0.210 HD
ENDBRANCH  42  43
BRANCH  41  45
ATOM     45  O   UNL     1       3.146   2.274  24.773  0.00  0.00    -0.386 OA
ATOM     46  H   UNL     1       2.277   2.709  24.853  0.00  0.00    +0.210 HD
ENDBRANCH  41  45
BRANCH  40  47
ATOM     47  O   UNL     1       3.016   5.000  25.811  0.00  0.00    -0.387 OA
ATOM     48  H   UNL     1       3.302   5.913  25.990  0.00  0.00    +0.210 HD
ENDBRANCH  40  47
ENDBRANCH  35  36
ENDBRANCH  30  35
BRANCH  27  49
ATOM     49  C   UNL     1      12.263   4.479  23.228  0.00  0.00    +0.190 C 
BRANCH  49  50
ATOM     50  O   UNL     1      13.205   5.473  23.613  0.00  0.00    -0.392 OA
ATOM     51  H   UNL     1      12.690   6.254  23.886  0.00  0.00    +0.210 HD
ENDBRANCH  49  50
ENDBRANCH  27  49
ENDBRANCH  24  25
ENDBRANCH   6  24
BRANCH   1  52
ATOM     52  O   UNL     1       8.382  -5.088  26.109  0.00  0.00    -0.461 OA
BRANCH  52  56
ATOM     53  C   UNL     1       4.875  -6.107  23.930  0.00  0.00    +0.041 C 
ATOM     54  C   UNL     1       4.848  -5.134  25.109  0.00  0.00    +0.150 C 
ATOM     55  O   UNL     1       6.170  -4.655  25.393  0.00  0.00    -0.334 OA
ATOM     56  C   UNL     1       7.056  -5.627  25.962  0.00  0.00    +0.339 C 
ATOM     57  C   UNL     1       6.482  -6.028  27.347  0.00  0.00    +0.214 C 
ATOM     58  C   UNL     1       5.110  -6.691  27.100  0.00  0.00    +0.180 C 
ATOM     59  C   UNL     1       4.165  -5.728  26.353  0.00  0.00    +0.174 C 
BRANCH  59  60
ATOM     60  O   UNL     1       3.749  -4.663  27.220  0.00  0.00    -0.387 OA
ATOM     61  H   UNL     1       3.350  -3.971  26.649  0.00  0.00    +0.210 HD
ENDBRANCH  59  60
BRANCH  58  62
ATOM     62  O   UNL     1       4.528  -7.164  28.319  0.00  0.00    -0.386 OA
ATOM     63  H   UNL     1       3.856  -6.520  28.604  0.00  0.00    +0.210 HD
ENDBRANCH  58  62
BRANCH  57  64
ATOM     64  O   UNL     1       6.300  -4.851  28.172  0.00  0.00    -0.383 OA
ATOM     65  H   UNL     1       5.680  -5.101  28.883  0.00  0.00    +0.210 HD
ENDBRANCH  57  64
ENDBRANCH  52  56
ENDBRANCH   1  52
TORSDOF 20
ENDMDL
MODEL 3
REMARK VINA RESULT:      -7.4      1.899      2.945
REMARK  Name = 
REMARK  22 active torsions:
REMARK  status: ('A' for Active; 'I' for Inactive)
REMARK    1  A    between atoms: C_1  and  C_2
REMARK    2  A    between atoms: C_3  and  O_61
REMARK    3  A    between atoms: C_5  and  O_60
REMARK    4  A    between atoms: C_7  and  O_59
REMARK    5  A    between atoms: C_8  and  O_11
REMARK    6  A    between atoms: O_11  and  C_12
REMARK    7  A    between atoms: C_14  and  O_58
REMARK    8  A    between atoms: C_19  and  C_50
REMARK    9  A    between atoms: C_20  and  O_23
REMARK   10  A    between atoms: O_23  and  C_24
REMARK   11  A    between atoms: C_26  and  O_36
REMARK   12  A    between atoms: C_27  and  O_35
REMARK   13  A    between atoms: C_28  and  O_34
REMARK   14  A    between atoms: C_30  and  C_32
REMARK   15  A    between atoms: C_32  and  O_33
REMARK   16  A    between atoms: O_36  and  C_37
REMARK   17  A    between atoms: C_39  and  O_49
REMARK   18  A    between atoms: C_41  and  O_48
REMARK   19  A    between atoms: C_42  and  O_47
REMARK   20  A    between atoms: C_44  and  C_46
REMARK   21  A    between atoms: C_52  and  O_57
REMARK   22  A    between atoms: C_53  and  O_56
REMARK                            x       y       z     vdW  Elec       q    Type
REMARK                         _______ _______ _______ _____ _____    ______ ____
ROOT
ATOM      1  C   UNL     1       5.711  -5.023  24.522  0.00  0.00    +0.131 A 
ATOM      2  C   UNL     1       5.766  -3.917  25.381  0.00  0.00    +0.093 A 
ATOM      3  C   UNL     1       6.369  -2.718  24.963  0.00  0.00    +0.147 A 
ATOM      4  O   UNL     1       6.438  -1.664  25.852  0.00  0.00    -0.451 OA
ATOM      5  C   UNL     1       6.497  -0.373  25.319  0.00  0.00    +0.181 A 
ATOM      6  C   UNL     1       6.924  -0.122  24.042  0.00  0.00    +0.214 A 
ATOM      7  C   UNL     1       7.536  -1.302  23.363  0.00  0.00    +0.238 A 
ATOM      8  O   UNL     1       8.533  -1.203  22.662  0.00  0.00    -0.283 OA
ATOM      9  C   UNL     1       6.902  -2.601  23.689  0.00  0.00    +0.109 A 
ATOM     10  C   UNL     1       6.792  -3.674  22.805  0.00  0.00    +0.135 A 
ATOM     11  C   UNL     1       6.207  -4.880  23.219  0.00  0.00    +0.092 A 
ENDROOT
BRANCH   5  12
ATOM     12  C   UNL     1       6.065   0.683  26.299  0.00  0.00    +0.025 A 
ATOM     13  C   UNL     1       4.704   0.992  26.496  0.00  0.00    +0.015 A 
ATOM     14  C   UNL     1       4.281   1.934  27.444  0.00  0.00    +0.050 A 
ATOM     15  C   UNL     1       5.230   2.601  28.209  0.00  0.00    +0.158 A 
ATOM     16  C   UNL     1       6.570   2.343  28.021  0.00  0.00    +0.159 A 
ATOM     17  C   UNL     1       6.972   1.400  27.094  0.00  0.00    +0.060 A 
BRANCH  16  18
ATOM     18  O   UNL     1       7.465   3.035  28.796  0.00  0.00    -0.503 OA
ATOM     19  H   UNL     1       7.990   2.396  29.328  0.00  0.00    +0.292 HD
ENDBRANCH  16  18
BRANCH  15  20
ATOM     20  O   UNL     1       4.852   3.505  29.160  0.00  0.00    -0.503 OA
ATOM     21  H   UNL     1       5.704   3.846  29.514  0.00  0.00    +0.292 HD
ENDBRANCH  15  20
ENDBRANCH   5  12
BRANCH  10  22
ATOM     22  O   UNL     1       7.208  -3.536  21.512  0.00  0.00    -0.506 OA
ATOM     23  H   UNL     1       8.093  -3.137  21.490  0.00  0.00    +0.292 HD
ENDBRANCH  10  22
BRANCH   6  24
ATOM     24  O   UNL     1       6.659   1.064  23.383  0.00  0.00    -0.453 OA
BRANCH  24  25
ATOM     25  C   UNL     1       7.536   2.176  23.165  0.00  0.00    +0.340 C 
ATOM     26  O   UNL     1       8.786   1.876  23.807  0.00  0.00    -0.331 OA
ATOM     27  C   UNL     1       9.727   2.925  24.118  0.00  0.00    +0.179 C 
ATOM     28  C   UNL     1       9.150   4.319  24.372  0.00  0.00    +0.177 C 
ATOM     29  C   UNL     1       7.720   4.202  24.847  0.00  0.00    +0.180 C 
ATOM     30  C   UNL     1       6.860   3.470  23.786  0.00  0.00    +0.221 C 
BRANCH  29  31
ATOM     31  O   UNL     1       7.221   5.531  25.098  0.00  0.00    -0.386 OA
ATOM     32  H   UNL     1       6.815   5.850  24.272  0.00  0.00    +0.210 HD
ENDBRANCH  29  31
BRANCH  28  33
ATOM     33  O   UNL     1       9.162   5.140  23.198  0.00  0.00    -0.386 OA
ATOM     34  H   UNL     1       8.259   5.500  23.109  0.00  0.00    +0.210 HD
ENDBRANCH  28  33
BRANCH  30  35
ATOM     35  O   UNL     1       5.458   3.538  24.089  0.00  0.00    -0.337 OA
BRANCH  35  36
ATOM     36  C   UNL     1       4.630   4.695  24.135  0.00  0.00    +0.282 C 
ATOM     37  O   UNL     1       3.454   4.341  24.897  0.00  0.00    -0.343 OA
ATOM     38  C   UNL     1       2.701   3.269  24.304  0.00  0.00    +0.149 C 
ATOM     39  C   UNL     1       1.488   3.015  25.204  0.00  0.00    +0.041 C 
ATOM     40  C   UNL     1       2.255   3.575  22.857  0.00  0.00    +0.174 C 
ATOM     41  C   UNL     1       3.368   4.213  22.018  0.00  0.00    +0.179 C 
ATOM     42  C   UNL     1       4.092   5.299  22.812  0.00  0.00    +0.201 C 
BRANCH  42  43
ATOM     43  O   UNL     1       5.079   5.966  22.019  0.00  0.00    -0.384 OA
ATOM     44  H   UNL     1       4.653   6.267  21.205  0.00  0.00    +0.210 HD
ENDBRANCH  42  43
BRANCH  41  45
ATOM     45  O   UNL     1       2.815   4.747  20.807  0.00  0.00    -0.386 OA
ATOM     46  H   UNL     1       3.519   4.691  20.134  0.00  0.00    +0.210 HD
ENDBRANCH  41  45
BRANCH  40  47
ATOM     47  O   UNL     1       1.790   2.390  22.191  0.00  0.00    -0.387 OA
ATOM     48  H   UNL     1       2.401   2.191  21.460  0.00  0.00    +0.210 HD
ENDBRANCH  40  47
ENDBRANCH  35  36
ENDBRANCH  30  35
BRANCH  27  49
ATOM     49  C   UNL     1      10.898   2.985  23.132  0.00  0.00    +0.190 C 
BRANCH  49  50
ATOM     50  O   UNL     1      10.472   2.592  21.831  0.00  0.00    -0.392 OA
ATOM     51  H   UNL     1      11.072   1.880  21.545  0.00  0.00    +0.210 HD
ENDBRANCH  49  50
ENDBRANCH  27  49
ENDBRANCH  24  25
ENDBRANCH   6  24
BRANCH   1  52
ATOM     52  O   UNL     1       5.230  -6.280  24.820  0.00  0.00    -0.461 OA
BRANCH  52  56
ATOM     53  C   UNL     1       1.521  -7.900  26.124  0.00  0.00    +0.041 C 
ATOM     54  C   UNL     1       2.099  -8.199  24.742  0.00  0.00    +0.150 C 
ATOM     55  O   UNL     1       3.500  -7.887  24.707  0.00  0.00    -0.334 OA
ATOM     56  C   UNL     1       3.809  -6.489  24.748  0.00  0.00    +0.339 C 
ATOM     57  C   UNL     1       3.235  -5.845  23.459  0.00  0.00    +0.214 C 
ATOM     58  C   UNL     1       1.701  -6.015  23.504  0.00  0.00    +0.180 C 
ATOM     59  C   UNL     1       1.321  -7.507  23.609  0.00  0.00    +0.174 C 
BRANCH  59  60
ATOM     60  O   UNL     1       1.587  -8.179  22.370  0.00  0.00    -0.387 OA
ATOM     61  H   UNL     1       1.767  -7.482  21.701  0.00  0.00    +0.210 HD
ENDBRANCH  59  60
BRANCH  58  62
ATOM     62  O   UNL     1       1.069  -5.386  22.386  0.00  0.00    -0.386 OA
ATOM     63  H   UNL     1       1.329  -5.867  21.580  0.00  0.00    +0.210 HD
ENDBRANCH  58  62
BRANCH  57  64
ATOM     64  O   UNL     1       3.754  -6.522  22.288  0.00  0.00    -0.383 OA
ATOM     65  H   UNL     1       4.253  -7.297  22.611  0.00  0.00    +0.210 HD
ENDBRANCH  57  64
ENDBRANCH  52  56
ENDBRANCH   1  52
TORSDOF 20
ENDMDL
MODEL 4
REMARK VINA RESULT:      -7.2      2.152      9.978
REMARK  Name = 
REMARK  22 active torsions:
REMARK  status: ('A' for Active; 'I' for Inactive)
REMARK    1  A    between atoms: C_1  and  C_2
REMARK    2  A    between atoms: C_3  and  O_61
REMARK    3  A    between atoms: C_5  and  O_60
REMARK    4  A    between atoms: C_7  and  O_59
REMARK    5  A    between atoms: C_8  and  O_11
REMARK    6  A    between atoms: O_11  and  C_12
REMARK    7  A    between atoms: C_14  and  O_58
REMARK    8  A    between atoms: C_19  and  C_50
REMARK    9  A    between atoms: C_20  and  O_23
REMARK   10  A    between atoms: O_23  and  C_24
REMARK   11  A    between atoms: C_26  and  O_36
REMARK   12  A    between atoms: C_27  and  O_35
REMARK   13  A    between atoms: C_28  and  O_34
REMARK   14  A    between atoms: C_30  and  C_32
REMARK   15  A    between atoms: C_32  and  O_33
REMARK   16  A    between atoms: O_36  and  C_37
REMARK   17  A    between atoms: C_39  and  O_49
REMARK   18  A    between atoms: C_41  and  O_48
REMARK   19  A    between atoms: C_42  and  O_47
REMARK   20  A    between atoms: C_44  and  C_46
REMARK   21  A    between atoms: C_52  and  O_57
REMARK   22  A    between atoms: C_53  and  O_56
REMARK                            x       y       z     vdW  Elec       q    Type
REMARK                         _______ _______ _______ _____ _____    ______ ____
ROOT
ATOM      1  C   UNL     1       6.630   3.186  26.672  0.00  0.00    +0.131 A 
ATOM      2  C   UNL     1       7.189   1.906  26.776  0.00  0.00    +0.093 A 
ATOM      3  C   UNL     1       6.365   0.768  26.812  0.00  0.00    +0.147 A 
ATOM      4  O   UNL     1       6.952  -0.474  26.954  0.00  0.00    -0.451 OA
ATOM      5  C   UNL     1       6.261  -1.576  26.443  0.00  0.00    +0.181 A 
ATOM      6  C   UNL     1       4.908  -1.562  26.227  0.00  0.00    +0.214 A 
ATOM      7  C   UNL     1       4.213  -0.372  26.799  0.00  0.00    +0.238 A 
ATOM      8  O   UNL     1       3.129  -0.459  27.357  0.00  0.00    -0.283 OA
ATOM      9  C   UNL     1       4.987   0.890  26.726  0.00  0.00    +0.109 A 
ATOM     10  C   UNL     1       4.426   2.155  26.555  0.00  0.00    +0.135 A 
ATOM     11  C   UNL     1       5.239   3.297  26.536  0.00  0.00    +0.092 A 
ENDROOT
BRANCH   5  12
ATOM     12  C   UNL     1       7.155  -2.757  26.184  0.00  0.00    +0.025 A 
ATOM     13  C   UNL     1       8.114  -2.741  25.151  0.00  0.00    +0.015 A 
ATOM     14  C   UNL     1       8.993  -3.812  24.932  0.00  0.00    +0.050 A 
ATOM     15  C   UNL     1       8.913  -4.935  25.745  0.00  0.00    +0.158 A 
ATOM     16  C   UNL     1       7.967  -4.994  26.745  0.00  0.00    +0.159 A 
ATOM     17  C   UNL     1       7.118  -3.924  26.961  0.00  0.00    +0.060 A 
BRANCH  16  18
ATOM     18  O   UNL     1       7.925  -6.128  27.513  0.00  0.00    -0.503 OA
ATOM     19  H   UNL     1       8.770  -6.212  28.009  0.00  0.00    +0.292 HD
ENDBRANCH  16  18
BRANCH  15  20
ATOM     20  O   UNL     1       9.771  -5.984  25.576  0.00  0.00    -0.503 OA
ATOM     21  H   UNL     1      10.415  -5.657  24.910  0.00  0.00    +0.292 HD
ENDBRANCH  15  20
ENDBRANCH   5  12
BRANCH  10  22
ATOM     22  O   UNL     1       3.081   2.282  26.354  0.00  0.00    -0.506 OA
ATOM     23  H   UNL     1       2.903   3.046  25.780  0.00  0.00    +0.292 HD
ENDBRANCH  10  22
BRANCH   6  24
ATOM     24  O   UNL     1       4.270  -2.478  25.411  0.00  0.00    -0.453 OA
BRANCH  24  25
ATOM     25  C   UNL     1       4.821  -3.637  24.772  0.00  0.00    +0.340 C 
ATOM     26  O   UNL     1       5.122  -3.282  23.412  0.00  0.00    -0.331 OA
ATOM     27  C   UNL     1       5.306  -4.300  22.407  0.00  0.00    +0.179 C 
ATOM     28  C   UNL     1       4.564  -5.621  22.615  0.00  0.00    +0.177 C 
ATOM     29  C   UNL     1       3.339  -5.389  23.469  0.00  0.00    +0.180 C 
ATOM     30  C   UNL     1       3.744  -4.801  24.843  0.00  0.00    +0.221 C 
BRANCH  29  31
ATOM     31  O   UNL     1       2.654  -6.649  23.621  0.00  0.00    -0.386 OA
ATOM     32  H   UNL     1       2.074  -6.760  22.846  0.00  0.00    +0.210 HD
ENDBRANCH  29  31
BRANCH  28  33
ATOM     33  O   UNL     1       5.374  -6.610  23.261  0.00  0.00    -0.386 OA
ATOM     34  H   UNL     1       6.026  -6.120  23.798  0.00  0.00    +0.210 HD
ENDBRANCH  28  33
BRANCH  30  35
ATOM     35  O   UNL     1       2.645  -4.778  25.766  0.00  0.00    -0.337 OA
BRANCH  35  36
ATOM     36  C   UNL     1       2.152  -5.851  26.562  0.00  0.00    +0.282 C 
ATOM     37  O   UNL     1       1.654  -5.271  27.789  0.00  0.00    -0.343 OA
ATOM     38  C   UNL     1       2.670  -4.582  28.538  0.00  0.00    +0.149 C 
ATOM     39  C   UNL     1       2.007  -4.037  29.806  0.00  0.00    +0.041 C 
ATOM     40  C   UNL     1       3.872  -5.485  28.892  0.00  0.00    +0.174 C 
ATOM     41  C   UNL     1       4.323  -6.358  27.716  0.00  0.00    +0.179 C 
ATOM     42  C   UNL     1       3.120  -6.977  27.006  0.00  0.00    +0.201 C 
BRANCH  42  43
ATOM     43  O   UNL     1       3.523  -7.864  25.958  0.00  0.00    -0.384 OA
ATOM     44  H   UNL     1       3.110  -8.723  26.119  0.00  0.00    +0.210 HD
ENDBRANCH  42  43
BRANCH  41  45
ATOM     45  O   UNL     1       5.221  -7.374  28.184  0.00  0.00    -0.386 OA
ATOM     46  H   UNL     1       5.261  -8.052  27.484  0.00  0.00    +0.210 HD
ENDBRANCH  41  45
BRANCH  40  47
ATOM     47  O   UNL     1       4.991  -4.709  29.354  0.00  0.00    -0.387 OA
ATOM     48  H   UNL     1       4.680  -4.118  30.063  0.00  0.00    +0.210 HD
ENDBRANCH  40  47
ENDBRANCH  35  36
ENDBRANCH  30  35
BRANCH  27  49
ATOM     49  C   UNL     1       6.782  -4.545  22.073  0.00  0.00    +0.190 C 
BRANCH  49  50
ATOM     50  O   UNL     1       6.912  -5.641  21.174  0.00  0.00    -0.392 OA
ATOM     51  H   UNL     1       6.849  -6.451  21.712  0.00  0.00    +0.210 HD
ENDBRANCH  49  50
ENDBRANCH  27  49
ENDBRANCH  24  25
ENDBRANCH   6  24
BRANCH   1  52
ATOM     52  O   UNL     1       7.302   4.389  26.710  0.00  0.00    -0.461 OA
BRANCH  52  56
ATOM     53  C   UNL     1       5.621   6.768  23.611  0.00  0.00    +0.041 C 
ATOM     54  C   UNL     1       6.323   5.440  23.329  0.00  0.00    +0.150 C 
ATOM     55  O   UNL     1       6.425   4.663  24.531  0.00  0.00    -0.334 OA
ATOM     56  C   UNL     1       7.349   5.169  25.502  0.00  0.00    +0.339 C 
ATOM     57  C   UNL     1       8.768   5.104  24.876  0.00  0.00    +0.214 C 
ATOM     58  C   UNL     1       8.771   6.043  23.650  0.00  0.00    +0.180 C 
ATOM     59  C   UNL     1       7.686   5.623  22.638  0.00  0.00    +0.174 C 
BRANCH  59  60
ATOM     60  O   UNL     1       8.056   4.399  21.987  0.00  0.00    -0.387 OA
ATOM     61  H   UNL     1       7.391   4.241  21.280  0.00  0.00    +0.210 HD
ENDBRANCH  59  60
BRANCH  58  62
ATOM     62  O   UNL     1      10.064   6.108  23.042  0.00  0.00    -0.386 OA
ATOM     63  H   UNL     1      10.197   7.011  22.704  0.00  0.00    +0.210 HD
ENDBRANCH  58  62
BRANCH  57  64
ATOM     64  O   UNL     1       9.060   3.753  24.441  0.00  0.00    -0.383 OA
ATOM     65  H   UNL     1       8.615   3.634  23.580  0.00  0.00    +0.210 HD
ENDBRANCH  57  64
ENDBRANCH  52  56
ENDBRANCH   1  52
TORSDOF 20
ENDMDL
MODEL 5
REMARK VINA RESULT:      -7.0      2.605      6.732
REMARK  Name = 
REMARK  22 active torsions:
REMARK  status: ('A' for Active; 'I' for Inactive)
REMARK    1  A    between atoms: C_1  and  C_2
REMARK    2  A    between atoms: C_3  and  O_61
REMARK    3  A    between atoms: C_5  and  O_60
REMARK    4  A    between atoms: C_7  and  O_59
REMARK    5  A    between atoms: C_8  and  O_11
REMARK    6  A    between atoms: O_11  and  C_12
REMARK    7  A    between atoms: C_14  and  O_58
REMARK    8  A    between atoms: C_19  and  C_50
REMARK    9  A    between atoms: C_20  and  O_23
REMARK   10  A    between atoms: O_23  and  C_24
REMARK   11  A    between atoms: C_26  and  O_36
REMARK   12  A    between atoms: C_27  and  O_35
REMARK   13  A    between atoms: C_28  and  O_34
REMARK   14  A    between atoms: C_30  and  C_32
REMARK   15  A    between atoms: C_32  and  O_33
REMARK   16  A    between atoms: O_36  and  C_37
REMARK   17  A    between atoms: C_39  and  O_49
REMARK   18  A    between atoms: C_41  and  O_48
REMARK   19  A    between atoms: C_42  and  O_47
REMARK   20  A    between atoms: C_44  and  C_46
REMARK   21  A    between atoms: C_52  and  O_57
REMARK   22  A    between atoms: C_53  and  O_56
REMARK                            x       y       z     vdW  Elec       q    Type
REMARK                         _______ _______ _______ _____ _____    ______ ____
ROOT
ATOM      1  C   UNL     1       9.315  -1.867  23.770  0.00  0.00    +0.131 A 
ATOM      2  C   UNL     1      10.006  -0.657  23.614  0.00  0.00    +0.093 A 
ATOM      3  C   UNL     1       9.310   0.529  23.323  0.00  0.00    +0.147 A 
ATOM      4  O   UNL     1      10.030   1.693  23.138  0.00  0.00    -0.451 OA
ATOM      5  C   UNL     1       9.382   2.902  23.408  0.00  0.00    +0.181 A 
ATOM      6  C   UNL     1       8.017   3.022  23.409  0.00  0.00    +0.214 A 
ATOM      7  C   UNL     1       7.301   1.828  22.870  0.00  0.00    +0.238 A 
ATOM      8  O   UNL     1       6.324   1.931  22.143  0.00  0.00    -0.283 OA
ATOM      9  C   UNL     1       7.929   0.528  23.204  0.00  0.00    +0.109 A 
ATOM     10  C   UNL     1       7.228  -0.657  23.424  0.00  0.00    +0.135 A 
ATOM     11  C   UNL     1       7.915  -1.849  23.698  0.00  0.00    +0.092 A 
ENDROOT
BRANCH   5  12
ATOM     12  C   UNL     1      10.339   4.031  23.672  0.00  0.00    +0.025 A 
ATOM     13  C   UNL     1       9.924   5.209  24.326  0.00  0.00    +0.015 A 
ATOM     14  C   UNL     1      10.816   6.249  24.629  0.00  0.00    +0.050 A 
ATOM     15  C   UNL     1      12.151   6.127  24.264  0.00  0.00    +0.158 A 
ATOM     16  C   UNL     1      12.582   5.001  23.599  0.00  0.00    +0.159 A 
ATOM     17  C   UNL     1      11.695   3.977  23.321  0.00  0.00    +0.060 A 
BRANCH  16  18
ATOM     18  O   UNL     1      13.907   4.935  23.254  0.00  0.00    -0.503 OA
ATOM     19  H   UNL     1      14.378   4.361  23.898  0.00  0.00    +0.292 HD
ENDBRANCH  16  18
BRANCH  15  20
ATOM     20  O   UNL     1      13.051   7.108  24.567  0.00  0.00    -0.503 OA
ATOM     21  H   UNL     1      13.683   6.668  25.179  0.00  0.00    +0.292 HD
ENDBRANCH  15  20
ENDBRANCH   5  12
BRANCH  10  22
ATOM     22  O   UNL     1       5.863  -0.651  23.424  0.00  0.00    -0.506 OA
ATOM     23  H   UNL     1       5.531  -0.810  22.525  0.00  0.00    +0.292 HD
ENDBRANCH  10  22
BRANCH   6  24
ATOM     24  O   UNL     1       7.359   4.080  24.008  0.00  0.00    -0.453 OA
BRANCH  24  25
ATOM     25  C   UNL     1       5.993   4.484  23.849  0.00  0.00    +0.340 C 
ATOM     26  O   UNL     1       5.976   5.916  23.724  0.00  0.00    -0.331 OA
ATOM     27  C   UNL     1       4.763   6.662  23.950  0.00  0.00    +0.179 C 
ATOM     28  C   UNL     1       3.745   6.053  24.916  0.00  0.00    +0.177 C 
ATOM     29  C   UNL     1       4.449   5.135  25.888  0.00  0.00    +0.180 C 
ATOM     30  C   UNL     1       5.181   4.004  25.125  0.00  0.00    +0.221 C 
BRANCH  29  31
ATOM     31  O   UNL     1       3.463   4.601  26.795  0.00  0.00    -0.386 OA
ATOM     32  H   UNL     1       2.794   4.140  26.258  0.00  0.00    +0.210 HD
ENDBRANCH  29  31
BRANCH  28  33
ATOM     33  O   UNL     1       2.734   5.294  24.242  0.00  0.00    -0.386 OA
ATOM     34  H   UNL     1       1.877   5.659  24.538  0.00  0.00    +0.210 HD
ENDBRANCH  28  33
BRANCH  30  35
ATOM     35  O   UNL     1       5.670   2.984  26.010  0.00  0.00    -0.337 OA
BRANCH  35  36
ATOM     36  C   UNL     1       4.929   2.223  26.958  0.00  0.00    +0.282 C 
ATOM     37  O   UNL     1       5.477   2.524  28.261  0.00  0.00    -0.343 OA
ATOM     38  C   UNL     1       6.866   2.171  28.383  0.00  0.00    +0.149 C 
ATOM     39  C   UNL     1       7.302   2.531  29.806  0.00  0.00    +0.041 C 
ATOM     40  C   UNL     1       7.134   0.678  28.088  0.00  0.00    +0.174 C 
ATOM     41  C   UNL     1       6.376   0.173  26.855  0.00  0.00    +0.179 C 
ATOM     42  C   UNL     1       4.933   0.675  26.862  0.00  0.00    +0.201 C 
BRANCH  42  43
ATOM     43  O   UNL     1       4.183   0.146  25.764  0.00  0.00    -0.384 OA
ATOM     44  H   UNL     1       4.223   0.785  25.040  0.00  0.00    +0.210 HD
ENDBRANCH  42  43
BRANCH  41  45
ATOM     45  O   UNL     1       6.420  -1.260  26.814  0.00  0.00    -0.386 OA
ATOM     46  H   UNL     1       6.067  -1.522  25.943  0.00  0.00    +0.210 HD
ENDBRANCH  41  45
BRANCH  40  47
ATOM     47  O   UNL     1       8.537   0.425  27.909  0.00  0.00    -0.387 OA
ATOM     48  H   UNL     1       8.679  -0.538  27.933  0.00  0.00    +0.210 HD
ENDBRANCH  40  47
ENDBRANCH  35  36
ENDBRANCH  30  35
BRANCH  27  49
ATOM     49  C   UNL     1       4.088   7.108  22.649  0.00  0.00    +0.190 C 
BRANCH  49  50
ATOM     50  O   UNL     1       3.964   6.008  21.752  0.00  0.00    -0.392 OA
ATOM     51  H   UNL     1       4.859   5.821  21.417  0.00  0.00    +0.210 HD
ENDBRANCH  49  50
ENDBRANCH  27  49
ENDBRANCH  24  25
ENDBRANCH   6  24
BRANCH   1  52
ATOM     52  O   UNL     1       9.865  -3.114  23.972  0.00  0.00    -0.461 OA
BRANCH  52  56
ATOM     53  C   UNL     1       6.945  -6.099  23.161  0.00  0.00    +0.041 C 
ATOM     54  C   UNL     1       6.688  -4.952  24.139  0.00  0.00    +0.150 C 
ATOM     55  O   UNL     1       7.632  -3.892  23.926  0.00  0.00    -0.334 OA
ATOM     56  C   UNL     1       8.976  -4.189  24.324  0.00  0.00    +0.339 C 
ATOM     57  C   UNL     1       8.972  -4.403  25.860  0.00  0.00    +0.214 C 
ATOM     58  C   UNL     1       8.084  -5.633  26.150  0.00  0.00    +0.180 C 
ATOM     59  C   UNL     1       6.658  -5.417  25.605  0.00  0.00    +0.174 C 
BRANCH  59  60
ATOM     60  O   UNL     1       5.962  -4.444  26.397  0.00  0.00    -0.387 OA
ATOM     61  H   UNL     1       6.119  -3.570  25.976  0.00  0.00    +0.210 HD
ENDBRANCH  59  60
BRANCH  58  62
ATOM     62  O   UNL     1       8.075  -5.957  27.543  0.00  0.00    -0.386 OA
ATOM     63  H   UNL     1       7.695  -6.848  27.646  0.00  0.00    +0.210 HD
ENDBRANCH  58  62
BRANCH  57  64
ATOM     64  O   UNL     1       8.411  -3.245  26.524  0.00  0.00    -0.383 OA
ATOM     65  H   UNL     1       8.775  -2.459  26.073  0.00  0.00    +0.210 HD
ENDBRANCH  57  64
ENDBRANCH  52  56
ENDBRANCH   1  52
TORSDOF 20
ENDMDL
MODEL 6
REMARK VINA RESULT:      -6.9      2.027      3.334
REMARK  Name = 
REMARK  22 active torsions:
REMARK  status: ('A' for Active; 'I' for Inactive)
REMARK    1  A    between atoms: C_1  and  C_2
REMARK    2  A    between atoms: C_3  and  O_61
REMARK    3  A    between atoms: C_5  and  O_60
REMARK    4  A    between atoms: C_7  and  O_59
REMARK    5  A    between atoms: C_8  and  O_11
REMARK    6  A    between atoms: O_11  and  C_12
REMARK    7  A    between atoms: C_14  and  O_58
REMARK    8  A    between atoms: C_19  and  C_50
REMARK    9  A    between atoms: C_20  and  O_23
REMARK   10  A    between atoms: O_23  and  C_24
REMARK   11  A    between atoms: C_26  and  O_36
REMARK   12  A    between atoms: C_27  and  O_35
REMARK   13  A    between atoms: C_28  and  O_34
REMARK   14  A    between atoms: C_30  and  C_32
REMARK   15  A    between atoms: C_32  and  O_33
REMARK   16  A    between atoms: O_36  and  C_37
REMARK   17  A    between atoms: C_39  and  O_49
REMARK   18  A    between atoms: C_41  and  O_48
REMARK   19  A    between atoms: C_42  and  O_47
REMARK   20  A    between atoms: C_44  and  C_46
REMARK   21  A    between atoms: C_52  and  O_57
REMARK   22  A    between atoms: C_53  and  O_56
REMARK                            x       y       z     vdW  Elec       q    Type
REMARK                         _______ _______ _______ _____ _____    ______ ____
ROOT
ATOM      1  C   UNL     1       5.220  -5.183  24.096  0.00  0.00    +0.131 A 
ATOM      2  C   UNL     1       5.373  -4.151  25.031  0.00  0.00    +0.093 A 
ATOM      3  C   UNL     1       6.007  -2.949  24.670  0.00  0.00    +0.147 A 
ATOM      4  O   UNL     1       6.174  -1.971  25.630  0.00  0.00    -0.451 OA
ATOM      5  C   UNL     1       6.263  -0.646  25.194  0.00  0.00    +0.181 A 
ATOM      6  C   UNL     1       6.629  -0.315  23.916  0.00  0.00    +0.214 A 
ATOM      7  C   UNL     1       7.148  -1.463  23.115  0.00  0.00    +0.238 A 
ATOM      8  O   UNL     1       8.108  -1.351  22.366  0.00  0.00    -0.283 OA
ATOM      9  C   UNL     1       6.474  -2.756  23.380  0.00  0.00    +0.109 A 
ATOM     10  C   UNL     1       6.265  -3.750  22.425  0.00  0.00    +0.135 A 
ATOM     11  C   UNL     1       5.649  -4.959  22.780  0.00  0.00    +0.092 A 
ENDROOT
BRANCH   5  12
ATOM     12  C   UNL     1       5.936   0.348  26.273  0.00  0.00    +0.025 A 
ATOM     13  C   UNL     1       4.624   0.491  26.769  0.00  0.00    +0.015 A 
ATOM     14  C   UNL     1       4.312   1.373  27.813  0.00  0.00    +0.050 A 
ATOM     15  C   UNL     1       5.320   2.146  28.375  0.00  0.00    +0.158 A 
ATOM     16  C   UNL     1       6.608   2.050  27.894  0.00  0.00    +0.159 A 
ATOM     17  C   UNL     1       6.905   1.165  26.875  0.00  0.00    +0.060 A 
BRANCH  16  18
ATOM     18  O   UNL     1       7.564   2.841  28.477  0.00  0.00    -0.503 OA
ATOM     19  H   UNL     1       7.122   3.546  29.000  0.00  0.00    +0.292 HD
ENDBRANCH  16  18
BRANCH  15  20
ATOM     20  O   UNL     1       5.057   2.995  29.410  0.00  0.00    -0.503 OA
ATOM     21  H   UNL     1       4.203   3.414  29.162  0.00  0.00    +0.292 HD
ENDBRANCH  15  20
ENDBRANCH   5  12
BRANCH  10  22
ATOM     22  O   UNL     1       6.615  -3.530  21.123  0.00  0.00    -0.506 OA
ATOM     23  H   UNL     1       7.311  -4.153  20.857  0.00  0.00    +0.292 HD
ENDBRANCH  10  22
BRANCH   6  24
ATOM     24  O   UNL     1       6.384   0.929  23.365  0.00  0.00    -0.453 OA
BRANCH  24  25
ATOM     25  C   UNL     1       7.319   1.979  23.083  0.00  0.00    +0.340 C 
ATOM     26  O   UNL     1       8.583   1.597  23.650  0.00  0.00    -0.331 OA
ATOM     27  C   UNL     1       9.610   2.582  23.893  0.00  0.00    +0.179 C 
ATOM     28  C   UNL     1       9.145   4.013  24.170  0.00  0.00    +0.177 C 
ATOM     29  C   UNL     1       7.743   3.994  24.733  0.00  0.00    +0.180 C 
ATOM     30  C   UNL     1       6.771   3.318  23.734  0.00  0.00    +0.221 C 
BRANCH  29  31
ATOM     31  O   UNL     1       7.351   5.356  25.004  0.00  0.00    -0.386 OA
ATOM     32  H   UNL     1       6.500   5.508  24.553  0.00  0.00    +0.210 HD
ENDBRANCH  29  31
BRANCH  28  33
ATOM     33  O   UNL     1       9.139   4.826  22.991  0.00  0.00    -0.386 OA
ATOM     34  H   UNL     1       8.204   4.905  22.719  0.00  0.00    +0.210 HD
ENDBRANCH  28  33
BRANCH  30  35
ATOM     35  O   UNL     1       5.398   3.482  24.122  0.00  0.00    -0.337 OA
BRANCH  35  36
ATOM     36  C   UNL     1       4.501   4.518  23.738  0.00  0.00    +0.282 C 
ATOM     37  O   UNL     1       3.908   5.033  24.952  0.00  0.00    -0.343 OA
ATOM     38  C   UNL     1       3.168   4.040  25.683  0.00  0.00    +0.149 C 
ATOM     39  C   UNL     1       2.592   4.726  26.925  0.00  0.00    +0.041 C 
ATOM     40  C   UNL     1       2.045   3.390  24.845  0.00  0.00    +0.174 C 
ATOM     41  C   UNL     1       2.495   3.040  23.422  0.00  0.00    +0.179 C 
ATOM     42  C   UNL     1       3.304   4.184  22.811  0.00  0.00    +0.201 C 
BRANCH  42  43
ATOM     43  O   UNL     1       3.662   3.911  21.453  0.00  0.00    -0.384 OA
ATOM     44  H   UNL     1       4.165   3.086  21.437  0.00  0.00    +0.210 HD
ENDBRANCH  42  43
BRANCH  41  45
ATOM     45  O   UNL     1       1.351   2.733  22.615  0.00  0.00    -0.386 OA
ATOM     46  H   UNL     1       1.246   3.475  21.991  0.00  0.00    +0.210 HD
ENDBRANCH  41  45
BRANCH  40  47
ATOM     47  O   UNL     1       1.538   2.205  25.480  0.00  0.00    -0.387 OA
ATOM     48  H   UNL     1       0.987   1.726  24.836  0.00  0.00    +0.210 HD
ENDBRANCH  40  47
ENDBRANCH  35  36
ENDBRANCH  30  35
BRANCH  27  49
ATOM     49  C   UNL     1      10.718   2.558  22.835  0.00  0.00    +0.190 C 
BRANCH  49  50
ATOM     50  O   UNL     1      10.177   2.247  21.556  0.00  0.00    -0.392 OA
ATOM     51  H   UNL     1       9.207   2.260  21.653  0.00  0.00    +0.210 HD
ENDBRANCH  49  50
ENDBRANCH  27  49
ENDBRANCH  24  25
ENDBRANCH   6  24
BRANCH   1  52
ATOM     52  O   UNL     1       4.699  -6.438  24.326  0.00  0.00    -0.461 OA
BRANCH  52  56
ATOM     53  C   UNL     1       0.807  -5.280  23.060  0.00  0.00    +0.041 C 
ATOM     54  C   UNL     1       1.141  -5.548  24.527  0.00  0.00    +0.150 C 
ATOM     55  O   UNL     1       2.561  -5.514  24.732  0.00  0.00    -0.334 OA
ATOM     56  C   UNL     1       3.281  -6.615  24.165  0.00  0.00    +0.339 C 
ATOM     57  C   UNL     1       2.814  -7.903  24.893  0.00  0.00    +0.214 C 
ATOM     58  C   UNL     1       1.310  -8.083  24.589  0.00  0.00    +0.180 C 
ATOM     59  C   UNL     1       0.509  -6.849  25.052  0.00  0.00    +0.174 C 
BRANCH  59  60
ATOM     60  O   UNL     1       0.446  -6.802  26.485  0.00  0.00    -0.387 OA
ATOM     61  H   UNL     1       1.212  -6.264  26.786  0.00  0.00    +0.210 HD
ENDBRANCH  59  60
BRANCH  58  62
ATOM     62  O   UNL     1       0.799  -9.290  25.161  0.00  0.00    -0.386 OA
ATOM     63  H   UNL     1       0.248  -9.734  24.493  0.00  0.00    +0.210 HD
ENDBRANCH  58  62
BRANCH  57  64
ATOM     64  O   UNL     1       2.996  -7.762  26.323  0.00  0.00    -0.383 OA
ATOM     65  H   UNL     1       2.234  -8.201  26.747  0.00  0.00    +0.210 HD
ENDBRANCH  57  64
ENDBRANCH  52  56
ENDBRANCH   1  52
TORSDOF 20
ENDMDL
MODEL 7
REMARK VINA RESULT:      -6.9      2.225      9.899
REMARK  Name = 
REMARK  22 active torsions:
REMARK  status: ('A' for Active; 'I' for Inactive)
REMARK    1  A    between atoms: C_1  and  C_2
REMARK    2  A    between atoms: C_3  and  O_61
REMARK    3  A    between atoms: C_5  and  O_60
REMARK    4  A    between atoms: C_7  and  O_59
REMARK    5  A    between atoms: C_8  and  O_11
REMARK    6  A    between atoms: O_11  and  C_12
REMARK    7  A    between atoms: C_14  and  O_58
REMARK    8  A    between atoms: C_19  and  C_50
REMARK    9  A    between atoms: C_20  and  O_23
REMARK   10  A    between atoms: O_23  and  C_24
REMARK   11  A    between atoms: C_26  and  O_36
REMARK   12  A    between atoms: C_27  and  O_35
REMARK   13  A    between atoms: C_28  and  O_34
REMARK   14  A    between atoms: C_30  and  C_32
REMARK   15  A    between atoms: C_32  and  O_33
REMARK   16  A    between atoms: O_36  and  C_37
REMARK   17  A    between atoms: C_39  and  O_49
REMARK   18  A    between atoms: C_41  and  O_48
REMARK   19  A    between atoms: C_42  and  O_47
REMARK   20  A    between atoms: C_44  and  C_46
REMARK   21  A    between atoms: C_52  and  O_57
REMARK   22  A    between atoms: C_53  and  O_56
REMARK                            x       y       z     vdW  Elec       q    Type
REMARK                         _______ _______ _______ _____ _____    ______ ____
ROOT
ATOM      1  C   UNL     1       6.043   3.333  26.558  0.00  0.00    +0.131 A 
ATOM      2  C   UNL     1       6.740   2.132  26.747  0.00  0.00    +0.093 A 
ATOM      3  C   UNL     1       6.046   0.914  26.855  0.00  0.00    +0.147 A 
ATOM      4  O   UNL     1       6.765  -0.243  27.079  0.00  0.00    -0.451 OA
ATOM      5  C   UNL     1       6.205  -1.446  26.640  0.00  0.00    +0.181 A 
ATOM      6  C   UNL     1       4.861  -1.596  26.419  0.00  0.00    +0.214 A 
ATOM      7  C   UNL     1       4.033  -0.455  26.910  0.00  0.00    +0.238 A 
ATOM      8  O   UNL     1       2.960  -0.626  27.469  0.00  0.00    -0.283 OA
ATOM      9  C   UNL     1       4.664   0.877  26.757  0.00  0.00    +0.109 A 
ATOM     10  C   UNL     1       3.968   2.058  26.501  0.00  0.00    +0.135 A 
ATOM     11  C   UNL     1       4.650   3.280  26.410  0.00  0.00    +0.092 A 
ENDROOT
BRANCH   5  12
ATOM     12  C   UNL     1       7.227  -2.535  26.461  0.00  0.00    +0.025 A 
ATOM     13  C   UNL     1       8.414  -2.318  25.732  0.00  0.00    +0.015 A 
ATOM     14  C   UNL     1       9.402  -3.305  25.603  0.00  0.00    +0.050 A 
ATOM     15  C   UNL     1       9.207  -4.545  26.198  0.00  0.00    +0.158 A 
ATOM     16  C   UNL     1       8.045  -4.798  26.894  0.00  0.00    +0.159 A 
ATOM     17  C   UNL     1       7.086  -3.811  27.027  0.00  0.00    +0.060 A 
BRANCH  16  18
ATOM     18  O   UNL     1       7.898  -6.040  27.455  0.00  0.00    -0.503 OA
ATOM     19  H   UNL     1       8.508  -6.121  28.221  0.00  0.00    +0.292 HD
ENDBRANCH  16  18
BRANCH  15  20
ATOM     20  O   UNL     1      10.159  -5.519  26.115  0.00  0.00    -0.503 OA
ATOM     21  H   UNL     1      10.569  -5.526  27.008  0.00  0.00    +0.292 HD
ENDBRANCH  15  20
ENDBRANCH   5  12
BRANCH  10  22
ATOM     22  O   UNL     1       2.620   2.022  26.289  0.00  0.00    -0.506 OA
ATOM     23  H   UNL     1       2.388   1.239  25.762  0.00  0.00    +0.292 HD
ENDBRANCH  10  22
BRANCH   6  24
ATOM     24  O   UNL     1       4.337  -2.628  25.663  0.00  0.00    -0.453 OA
BRANCH  24  25
ATOM     25  C   UNL     1       3.526  -3.727  26.096  0.00  0.00    +0.340 C 
ATOM     26  O   UNL     1       3.786  -3.934  27.495  0.00  0.00    -0.331 OA
ATOM     27  C   UNL     1       3.448  -5.184  28.131  0.00  0.00    +0.179 C 
ATOM     28  C   UNL     1       3.450  -6.433  27.248  0.00  0.00    +0.177 C 
ATOM     29  C   UNL     1       4.376  -6.226  26.072  0.00  0.00    +0.180 C 
ATOM     30  C   UNL     1       3.920  -5.003  25.238  0.00  0.00    +0.221 C 
BRANCH  29  31
ATOM     31  O   UNL     1       4.370  -7.431  25.279  0.00  0.00    -0.386 OA
ATOM     32  H   UNL     1       3.893  -8.110  25.789  0.00  0.00    +0.210 HD
ENDBRANCH  29  31
BRANCH  28  33
ATOM     33  O   UNL     1       2.148  -6.747  26.739  0.00  0.00    -0.386 OA
ATOM     34  H   UNL     1       2.129  -7.717  26.622  0.00  0.00    +0.210 HD
ENDBRANCH  28  33
BRANCH  30  35
ATOM     35  O   UNL     1       4.627  -4.905  23.993  0.00  0.00    -0.337 OA
BRANCH  35  36
ATOM     36  C   UNL     1       6.014  -5.122  23.757  0.00  0.00    +0.282 C 
ATOM     37  O   UNL     1       6.628  -3.819  23.630  0.00  0.00    -0.343 OA
ATOM     38  C   UNL     1       6.098  -3.052  22.535  0.00  0.00    +0.149 C 
ATOM     39  C   UNL     1       6.845  -1.715  22.515  0.00  0.00    +0.041 C 
ATOM     40  C   UNL     1       6.228  -3.774  21.176  0.00  0.00    +0.174 C 
ATOM     41  C   UNL     1       5.851  -5.257  21.255  0.00  0.00    +0.179 C 
ATOM     42  C   UNL     1       6.460  -5.907  22.497  0.00  0.00    +0.201 C 
BRANCH  42  43
ATOM     43  O   UNL     1       6.189  -7.312  22.546  0.00  0.00    -0.384 OA
ATOM     44  H   UNL     1       5.802  -7.511  23.408  0.00  0.00    +0.210 HD
ENDBRANCH  42  43
BRANCH  41  45
ATOM     45  O   UNL     1       6.278  -5.930  20.063  0.00  0.00    -0.386 OA
ATOM     46  H   UNL     1       7.251  -5.988  20.112  0.00  0.00    +0.210 HD
ENDBRANCH  41  45
BRANCH  40  47
ATOM     47  O   UNL     1       5.424  -3.140  20.168  0.00  0.00    -0.387 OA
ATOM     48  H   UNL     1       5.981  -2.987  19.384  0.00  0.00    +0.210 HD
ENDBRANCH  40  47
ENDBRANCH  35  36
ENDBRANCH  30  35
BRANCH  27  49
ATOM     49  C   UNL     1       2.163  -5.099  28.963  0.00  0.00    +0.190 C 
BRANCH  49  50
ATOM     50  O   UNL     1       1.921  -6.334  29.628  0.00  0.00    -0.392 OA
ATOM     51  H   UNL     1       1.694  -6.113  30.550  0.00  0.00    +0.210 HD
ENDBRANCH  49  50
ENDBRANCH  27  49
ENDBRANCH  24  25
ENDBRANCH   6  24
BRANCH   1  52
ATOM     52  O   UNL     1       6.578   4.603  26.519  0.00  0.00    -0.461 OA
BRANCH  52  56
ATOM     53  C   UNL     1       5.173   6.310  22.885  0.00  0.00    +0.041 C 
ATOM     54  C   UNL     1       6.070   5.072  22.911  0.00  0.00    +0.150 C 
ATOM     55  O   UNL     1       6.059   4.473  24.215  0.00  0.00    -0.334 OA
ATOM     56  C   UNL     1       6.735   5.224  25.231  0.00  0.00    +0.339 C 
ATOM     57  C   UNL     1       8.237   5.287  24.844  0.00  0.00    +0.214 C 
ATOM     58  C   UNL     1       8.335   6.057  23.509  0.00  0.00    +0.180 C 
ATOM     59  C   UNL     1       7.498   5.362  22.416  0.00  0.00    +0.174 C 
BRANCH  59  60
ATOM     60  O   UNL     1       8.120   4.133  22.015  0.00  0.00    -0.387 OA
ATOM     61  H   UNL     1       8.050   3.517  22.777  0.00  0.00    +0.210 HD
ENDBRANCH  59  60
BRANCH  58  62
ATOM     62  O   UNL     1       9.695   6.231  23.102  0.00  0.00    -0.386 OA
ATOM     63  H   UNL     1       9.707   6.815  22.323  0.00  0.00    +0.210 HD
ENDBRANCH  58  62
BRANCH  57  64
ATOM     64  O   UNL     1       8.762   3.950  24.662  0.00  0.00    -0.383 OA
ATOM     65  H   UNL     1       8.036   3.332  24.875  0.00  0.00    +0.210 HD
ENDBRANCH  57  64
ENDBRANCH  52  56
ENDBRANCH   1  52
TORSDOF 20
ENDMDL
MODEL 8
REMARK VINA RESULT:      -6.8      2.377      3.739
REMARK  Name = 
REMARK  22 active torsions:
REMARK  status: ('A' for Active; 'I' for Inactive)
REMARK    1  A    between atoms: C_1  and  C_2
REMARK    2  A    between atoms: C_3  and  O_61
REMARK    3  A    between atoms: C_5  and  O_60
REMARK    4  A    between atoms: C_7  and  O_59
REMARK    5  A    between atoms: C_8  and  O_11
REMARK    6  A    between atoms: O_11  and  C_12
REMARK    7  A    between atoms: C_14  and  O_58
REMARK    8  A    between atoms: C_19  and  C_50
REMARK    9  A    between atoms: C_20  and  O_23
REMARK   10  A    between atoms: O_23  and  C_24
REMARK   11  A    between atoms: C_26  and  O_36
REMARK   12  A    between atoms: C_27  and  O_35
REMARK   13  A    between atoms: C_28  and  O_34
REMARK   14  A    between atoms: C_30  and  C_32
REMARK   15  A    between atoms: C_32  and  O_33
REMARK   16  A    between atoms: O_36  and  C_37
REMARK   17  A    between atoms: C_39  and  O_49
REMARK   18  A    between atoms: C_41  and  O_48
REMARK   19  A    between atoms: C_42  and  O_47
REMARK   20  A    between atoms: C_44  and  C_46
REMARK   21  A    between atoms: C_52  and  O_57
REMARK   22  A    between atoms: C_53  and  O_56
REMARK                            x       y       z     vdW  Elec       q    Type
REMARK                         _______ _______ _______ _____ _____    ______ ____
ROOT
ATOM      1  C   UNL     1       4.273  -4.274  24.750  0.00  0.00    +0.131 A 
ATOM      2  C   UNL     1       4.590  -3.167  25.550  0.00  0.00    +0.093 A 
ATOM      3  C   UNL     1       5.365  -2.114  25.034  0.00  0.00    +0.147 A 
ATOM      4  O   UNL     1       5.690  -1.060  25.864  0.00  0.00    -0.451 OA
ATOM      5  C   UNL     1       5.939   0.179  25.267  0.00  0.00    +0.181 A 
ATOM      6  C   UNL     1       6.306   0.303  23.953  0.00  0.00    +0.214 A 
ATOM      7  C   UNL     1       6.643  -0.992  23.291  0.00  0.00    +0.238 A 
ATOM      8  O   UNL     1       7.585  -1.101  22.520  0.00  0.00    -0.283 OA
ATOM      9  C   UNL     1       5.813  -2.141  23.723  0.00  0.00    +0.109 A 
ATOM     10  C   UNL     1       5.445  -3.206  22.900  0.00  0.00    +0.135 A 
ATOM     11  C   UNL     1       4.687  -4.270  23.411  0.00  0.00    +0.092 A 
ENDROOT
BRANCH   5  12
ATOM     12  C   UNL     1       5.780   1.330  26.221  0.00  0.00    +0.025 A 
ATOM     13  C   UNL     1       4.560   2.028  26.336  0.00  0.00    +0.015 A 
ATOM     14  C   UNL     1       4.378   3.067  27.259  0.00  0.00    +0.050 A 
ATOM     15  C   UNL     1       5.433   3.437  28.083  0.00  0.00    +0.158 A 
ATOM     16  C   UNL     1       6.647   2.794  27.976  0.00  0.00    +0.159 A 
ATOM     17  C   UNL     1       6.808   1.761  27.073  0.00  0.00    +0.060 A 
BRANCH  16  18
ATOM     18  O   UNL     1       7.658   3.204  28.807  0.00  0.00    -0.503 OA
ATOM     19  H   UNL     1       7.903   2.463  29.404  0.00  0.00    +0.292 HD
ENDBRANCH  16  18
BRANCH  15  20
ATOM     20  O   UNL     1       5.283   4.427  29.012  0.00  0.00    -0.503 OA
ATOM     21  H   UNL     1       5.402   3.965  29.871  0.00  0.00    +0.292 HD
ENDBRANCH  15  20
ENDBRANCH   5  12
BRANCH  10  22
ATOM     22  O   UNL     1       5.780  -3.192  21.577  0.00  0.00    -0.506 OA
ATOM     23  H   UNL     1       4.978  -3.131  21.033  0.00  0.00    +0.292 HD
ENDBRANCH  10  22
BRANCH   6  24
ATOM     24  O   UNL     1       6.210   1.493  23.257  0.00  0.00    -0.453 OA
BRANCH  24  25
ATOM     25  C   UNL     1       7.227   2.478  23.031  0.00  0.00    +0.340 C 
ATOM     26  O   UNL     1       8.397   2.067  23.757  0.00  0.00    -0.331 OA
ATOM     27  C   UNL     1       9.444   3.011  24.065  0.00  0.00    +0.179 C 
ATOM     28  C   UNL     1       9.032   4.477  24.214  0.00  0.00    +0.177 C 
ATOM     29  C   UNL     1       7.577   4.560  24.614  0.00  0.00    +0.180 C 
ATOM     30  C   UNL     1       6.686   3.878  23.547  0.00  0.00    +0.221 C 
BRANCH  29  31
ATOM     31  O   UNL     1       7.234   5.953  24.769  0.00  0.00    -0.386 OA
ATOM     32  H   UNL     1       8.011   6.474  24.499  0.00  0.00    +0.210 HD
ENDBRANCH  29  31
BRANCH  28  33
ATOM     33  O   UNL     1       9.202   5.221  23.002  0.00  0.00    -0.386 OA
ATOM     34  H   UNL     1       8.609   4.810  22.344  0.00  0.00    +0.210 HD
ENDBRANCH  28  33
BRANCH  30  35
ATOM     35  O   UNL     1       5.290   4.131  23.767  0.00  0.00    -0.337 OA
BRANCH  35  36
ATOM     36  C   UNL     1       4.348   4.679  22.851  0.00  0.00    +0.282 C 
ATOM     37  O   UNL     1       3.869   5.914  23.429  0.00  0.00    -0.343 OA
ATOM     38  C   UNL     1       3.213   5.726  24.696  0.00  0.00    +0.149 C 
ATOM     39  C   UNL     1       2.751   7.105  25.176  0.00  0.00    +0.041 C 
ATOM     40  C   UNL     1       2.022   4.746  24.616  0.00  0.00    +0.174 C 
ATOM     41  C   UNL     1       2.338   3.497  23.785  0.00  0.00    +0.179 C 
ATOM     42  C   UNL     1       3.072   3.873  22.498  0.00  0.00    +0.201 C 
BRANCH  42  43
ATOM     43  O   UNL     1       3.301   2.731  21.667  0.00  0.00    -0.384 OA
ATOM     44  H   UNL     1       3.684   3.039  20.835  0.00  0.00    +0.210 HD
ENDBRANCH  42  43
BRANCH  41  45
ATOM     45  O   UNL     1       1.126   2.789  23.495  0.00  0.00    -0.386 OA
ATOM     46  H   UNL     1       1.347   1.839  23.523  0.00  0.00    +0.210 HD
ENDBRANCH  41  45
BRANCH  40  47
ATOM     47  O   UNL     1       1.592   4.338  25.925  0.00  0.00    -0.387 OA
ATOM     48  H   UNL     1       0.655   4.582  26.028  0.00  0.00    +0.210 HD
ENDBRANCH  40  47
ENDBRANCH  35  36
ENDBRANCH  30  35
BRANCH  27  49
ATOM     49  C   UNL     1      10.660   2.873  23.143  0.00  0.00    +0.190 C 
BRANCH  49  50
ATOM     50  O   UNL     1      10.248   2.520  21.827  0.00  0.00    -0.392 OA
ATOM     51  H   UNL     1      10.553   1.607  21.675  0.00  0.00    +0.210 HD
ENDBRANCH  49  50
ENDBRANCH  27  49
ENDBRANCH  24  25
ENDBRANCH   6  24
BRANCH   1  52
ATOM     52  O   UNL     1       3.598  -5.411  25.140  0.00  0.00    -0.461 OA
BRANCH  52  56
ATOM     53  C   UNL     1       3.342  -4.173  29.201  0.00  0.00    +0.041 C 
ATOM     54  C   UNL     1       3.711  -5.603  28.807  0.00  0.00    +0.150 C 
ATOM     55  O   UNL     1       4.123  -5.653  27.433  0.00  0.00    -0.334 OA
ATOM     56  C   UNL     1       3.073  -5.453  26.479  0.00  0.00    +0.339 C 
ATOM     57  C   UNL     1       2.076  -6.632  26.628  0.00  0.00    +0.214 C 
ATOM     58  C   UNL     1       1.477  -6.549  28.050  0.00  0.00    +0.180 C 
ATOM     59  C   UNL     1       2.591  -6.612  29.114  0.00  0.00    +0.174 C 
BRANCH  59  60
ATOM     60  O   UNL     1       3.147  -7.933  29.179  0.00  0.00    -0.387 OA
ATOM     61  H   UNL     1       3.035  -8.333  28.289  0.00  0.00    +0.210 HD
ENDBRANCH  59  60
BRANCH  58  62
ATOM     62  O   UNL     1       0.485  -7.558  28.261  0.00  0.00    -0.386 OA
ATOM     63  H   UNL     1       0.137  -7.829  27.393  0.00  0.00    +0.210 HD
ENDBRANCH  58  62
BRANCH  57  64
ATOM     64  O   UNL     1       2.768  -7.895  26.477  0.00  0.00    -0.383 OA
ATOM     65  H   UNL     1       2.353  -8.519  27.103  0.00  0.00    +0.210 HD
ENDBRANCH  57  64
ENDBRANCH  52  56
ENDBRANCH   1  52
TORSDOF 20
ENDMDL
MODEL 9
REMARK VINA RESULT:      -6.7      2.325      6.001
REMARK  Name = 
REMARK  22 active torsions:
REMARK  status: ('A' for Active; 'I' for Inactive)
REMARK    1  A    between atoms: C_1  and  C_2
REMARK    2  A    between atoms: C_3  and  O_61
REMARK    3  A    between atoms: C_5  and  O_60
REMARK    4  A    between atoms: C_7  and  O_59
REMARK    5  A    between atoms: C_8  and  O_11
REMARK    6  A    between atoms: O_11  and  C_12
REMARK    7  A    between atoms: C_14  and  O_58
REMARK    8  A    between atoms: C_19  and  C_50
REMARK    9  A    between atoms: C_20  and  O_23
REMARK   10  A    between atoms: O_23  and  C_24
REMARK   11  A    between atoms: C_26  and  O_36
REMARK   12  A    between atoms: C_27  and  O_35
REMARK   13  A    between atoms: C_28  and  O_34
REMARK   14  A    between atoms: C_30  and  C_32
REMARK   15  A    between atoms: C_32  and  O_33
REMARK   16  A    between atoms: O_36  and  C_37
REMARK   17  A    between atoms: C_39  and  O_49
REMARK   18  A    between atoms: C_41  and  O_48
REMARK   19  A    between atoms: C_42  and  O_47
REMARK   20  A    between atoms: C_44  and  C_46
REMARK   21  A    between atoms: C_52  and  O_57
REMARK   22  A    between atoms: C_53  and  O_56
REMARK                            x       y       z     vdW  Elec       q    Type
REMARK                         _______ _______ _______ _____ _____    ______ ____
ROOT
ATOM      1  C   UNL     1       7.026  -1.718  24.810  0.00  0.00    +0.131 A 
ATOM      2  C   UNL     1       7.901  -0.730  24.340  0.00  0.00    +0.093 A 
ATOM      3  C   UNL     1       7.501   0.616  24.300  0.00  0.00    +0.147 A 
ATOM      4  O   UNL     1       8.378   1.555  23.794  0.00  0.00    -0.451 OA
ATOM      5  C   UNL     1       8.247   2.871  24.248  0.00  0.00    +0.181 A 
ATOM      6  C   UNL     1       7.084   3.352  24.788  0.00  0.00    +0.214 A 
ATOM      7  C   UNL     1       5.916   2.435  24.632  0.00  0.00    +0.238 A 
ATOM      8  O   UNL     1       4.801   2.848  24.351  0.00  0.00    -0.283 OA
ATOM      9  C   UNL     1       6.243   0.994  24.742  0.00  0.00    +0.109 A 
ATOM     10  C   UNL     1       5.391   0.027  25.274  0.00  0.00    +0.135 A 
ATOM     11  C   UNL     1       5.775  -1.322  25.302  0.00  0.00    +0.092 A 
ENDROOT
BRANCH   5  12
ATOM     12  C   UNL     1       9.500   3.681  24.059  0.00  0.00    +0.025 A 
ATOM     13  C   UNL     1      10.647   3.132  23.450  0.00  0.00    +0.015 A 
ATOM     14  C   UNL     1      11.804   3.889  23.216  0.00  0.00    +0.050 A 
ATOM     15  C   UNL     1      11.835   5.222  23.607  0.00  0.00    +0.158 A 
ATOM     16  C   UNL     1      10.741   5.781  24.230  0.00  0.00    +0.159 A 
ATOM     17  C   UNL     1       9.601   5.027  24.440  0.00  0.00    +0.060 A 
BRANCH  16  18
ATOM     18  O   UNL     1      10.826   7.097  24.603  0.00  0.00    -0.503 OA
ATOM     19  H   UNL     1      11.121   7.147  25.540  0.00  0.00    +0.292 HD
ENDBRANCH  16  18
BRANCH  15  20
ATOM     20  O   UNL     1      12.935   5.995  23.371  0.00  0.00    -0.503 OA
ATOM     21  H   UNL     1      13.486   5.873  24.175  0.00  0.00    +0.292 HD
ENDBRANCH  15  20
ENDBRANCH   5  12
BRANCH  10  22
ATOM     22  O   UNL     1       4.195   0.398  25.819  0.00  0.00    -0.506 OA
ATOM     23  H   UNL     1       4.091  -0.005  26.697  0.00  0.00    +0.292 HD
ENDBRANCH  10  22
BRANCH   6  24
ATOM     24  O   UNL     1       7.033   4.501  25.554  0.00  0.00    -0.453 OA
BRANCH  24  25
ATOM     25  C   UNL     1       6.644   4.641  26.927  0.00  0.00    +0.340 C 
ATOM     26  O   UNL     1       6.922   3.394  27.585  0.00  0.00    -0.331 OA
ATOM     27  C   UNL     1       6.293   3.067  28.842  0.00  0.00    +0.179 C 
ATOM     28  C   UNL     1       4.920   3.686  29.112  0.00  0.00    +0.177 C 
ATOM     29  C   UNL     1       4.237   4.003  27.801  0.00  0.00    +0.180 C 
ATOM     30  C   UNL     1       5.096   4.988  26.971  0.00  0.00    +0.221 C 
BRANCH  29  31
ATOM     31  O   UNL     1       2.940   4.560  28.096  0.00  0.00    -0.386 OA
ATOM     32  H   UNL     1       2.512   3.972  28.744  0.00  0.00    +0.210 HD
ENDBRANCH  29  31
BRANCH  28  33
ATOM     33  O   UNL     1       5.004   4.897  29.872  0.00  0.00    -0.386 OA
ATOM     34  H   UNL     1       4.086   5.212  29.984  0.00  0.00    +0.210 HD
ENDBRANCH  28  33
BRANCH  30  35
ATOM     35  O   UNL     1       4.387   5.493  25.829  0.00  0.00    -0.337 OA
BRANCH  35  36
ATOM     36  C   UNL     1       4.449   6.802  25.273  0.00  0.00    +0.282 C 
ATOM     37  O   UNL     1       3.131   7.106  24.763  0.00  0.00    -0.343 OA
ATOM     38  C   UNL     1       2.701   6.196  23.735  0.00  0.00    +0.149 C 
ATOM     39  C   UNL     1       1.308   6.645  23.286  0.00  0.00    +0.041 C 
ATOM     40  C   UNL     1       3.673   6.142  22.536  0.00  0.00    +0.174 C 
ATOM     41  C   UNL     1       5.143   6.087  22.968  0.00  0.00    +0.179 C 
ATOM     42  C   UNL     1       5.416   7.083  24.094  0.00  0.00    +0.201 C 
BRANCH  42  43
ATOM     43  O   UNL     1       6.801   7.108  24.454  0.00  0.00    -0.384 OA
ATOM     44  H   UNL     1       6.877   7.541  25.314  0.00  0.00    +0.210 HD
ENDBRANCH  42  43
BRANCH  41  45
ATOM     45  O   UNL     1       5.989   6.345  21.839  0.00  0.00    -0.386 OA
ATOM     46  H   UNL     1       5.458   6.868  21.210  0.00  0.00    +0.210 HD
ENDBRANCH  41  45
BRANCH  40  47
ATOM     47  O   UNL     1       3.393   5.017  21.687  0.00  0.00    -0.387 OA
ATOM     48  H   UNL     1       4.088   4.968  21.006  0.00  0.00    +0.210 HD
ENDBRANCH  40  47
ENDBRANCH  35  36
ENDBRANCH  30  35
BRANCH  27  49
ATOM     49  C   UNL     1       7.227   3.258  30.042  0.00  0.00    +0.190 C 
BRANCH  49  50
ATOM     50  O   UNL     1       7.723   4.592  30.077  0.00  0.00    -0.392 OA
ATOM     51  H   UNL     1       8.269   4.707  29.278  0.00  0.00    +0.210 HD
ENDBRANCH  49  50
ENDBRANCH  27  49
ENDBRANCH  24  25
ENDBRANCH   6  24
BRANCH   1  52
ATOM     52  O   UNL     1       7.246  -3.079  24.829  0.00  0.00    -0.461 OA
BRANCH  52  56
ATOM     53  C   UNL     1       3.919  -5.704  24.470  0.00  0.00    +0.041 C 
ATOM     54  C   UNL     1       5.334  -6.122  24.070  0.00  0.00    +0.150 C 
ATOM     55  O   UNL     1       6.302  -5.240  24.657  0.00  0.00    -0.334 OA
ATOM     56  C   UNL     1       6.327  -3.917  24.107  0.00  0.00    +0.339 C 
ATOM     57  C   UNL     1       6.761  -4.037  22.622  0.00  0.00    +0.214 C 
ATOM     58  C   UNL     1       5.676  -4.858  21.892  0.00  0.00    +0.180 C 
ATOM     59  C   UNL     1       5.509  -6.244  22.546  0.00  0.00    +0.174 C 
BRANCH  59  60
ATOM     60  O   UNL     1       6.647  -7.071  22.263  0.00  0.00    -0.387 OA
ATOM     61  H   UNL     1       7.344  -6.481  21.900  0.00  0.00    +0.210 HD
ENDBRANCH  59  60
BRANCH  58  62
ATOM     62  O   UNL     1       5.950  -4.963  20.492  0.00  0.00    -0.386 OA
ATOM     63  H   UNL     1       5.508  -5.762  20.154  0.00  0.00    +0.210 HD
ENDBRANCH  58  62
BRANCH  57  64
ATOM     64  O   UNL     1       8.028  -4.732  22.526  0.00  0.00    -0.383 OA
ATOM     65  H   UNL     1       8.215  -5.097  23.412  0.00  0.00    +0.210 HD
ENDBRANCH  57  64
ENDBRANCH  52  56
ENDBRANCH   1  52
TORSDOF 20
ENDMDL
