MODEL 1
REMARK VINA RESULT:      -7.9      0.000      0.000
REMARK  Name = 
REMARK  17 active torsions:
REMARK  status: ('A' for Active; 'I' for Inactive)
REMARK    1  A    between atoms: C_3  and  O_49
REMARK    2  A    between atoms: C_4  and  O_48
REMARK    3  A    between atoms: C_6  and  C_7
REMARK    4  A    between atoms: C_8  and  O_20
REMARK    5  A    between atoms: C_12  and  O_19
REMARK    6  A    between atoms: C_14  and  O_18
REMARK    7  A    between atoms: O_20  and  C_21
REMARK    8  A    between atoms: C_23  and  O_47
REMARK    9  A    between atoms: C_25  and  O_46
REMARK   10  A    between atoms: C_27  and  O_45
REMARK   11  A    between atoms: C_29  and  C_32
REMARK   12  A    between atoms: C_32  and  O_33
REMARK   13  A    between atoms: O_33  and  C_34
REMARK   14  A    between atoms: C_34  and  C_36
REMARK   15  A    between atoms: C_38  and  O_44
REMARK   16  A    between atoms: C_39  and  O_43
REMARK   17  A    between atoms: C_40  and  O_42
REMARK                            x       y       z     vdW  Elec       q    Type
REMARK                         _______ _______ _______ _____ _____    ______ ____
ROOT
ATOM      1  C   UNL     1       8.576  -1.177  23.226  0.00  0.00    +0.340 C 
ATOM      2  O   UNL     1       9.037  -0.138  24.083  0.00  0.00    -0.330 OA
ATOM      3  C   UNL     1       9.976   0.855  23.656  0.00  0.00    +0.191 C 
ATOM      4  C   UNL     1      10.057   1.161  22.137  0.00  0.00    +0.178 C 
ATOM      5  C   UNL     1       8.995   0.401  21.351  0.00  0.00    +0.180 C 
ATOM      6  C   UNL     1       9.052  -1.067  21.772  0.00  0.00    +0.214 C 
ENDROOT
BRANCH   4   7
ATOM      7  O   UNL     1       9.970   2.553  21.807  0.00  0.00    -0.386 OA
ATOM      8  H   UNL     1       9.279   2.922  22.392  0.00  0.00    +0.210 HD
ENDBRANCH   4   7
BRANCH   5   9
ATOM      9  O   UNL     1       7.724   1.028  21.559  0.00  0.00    -0.386 OA
ATOM     10  H   UNL     1       7.033   0.347  21.660  0.00  0.00    +0.210 HD
ENDBRANCH   5   9
BRANCH   6  11
ATOM     11  O   UNL     1      10.392  -1.559  21.619  0.00  0.00    -0.383 OA
ATOM     12  H   UNL     1      10.687  -1.901  22.483  0.00  0.00    +0.210 HD
ENDBRANCH   6  11
BRANCH   1  13
ATOM     13  O   UNL     1       7.146  -1.072  23.243  0.00  0.00    -0.453 OA
BRANCH  13  24
ATOM     14  C   UNL     1       5.971  -2.123  25.037  0.00  0.00    +0.181 A 
ATOM     15  O   UNL     1       5.268  -3.178  25.621  0.00  0.00    -0.451 OA
ATOM     16  C   UNL     1       5.119  -4.339  24.895  0.00  0.00    +0.147 A 
ATOM     17  C   UNL     1       5.369  -4.399  23.529  0.00  0.00    +0.109 A 
ATOM     18  C   UNL     1       5.159  -5.578  22.805  0.00  0.00    +0.135 A 
ATOM     19  C   UNL     1       4.708  -6.719  23.448  0.00  0.00    +0.091 A 
ATOM     20  C   UNL     1       4.467  -6.663  24.817  0.00  0.00    +0.124 A 
ATOM     21  C   UNL     1       5.879  -3.206  22.873  0.00  0.00    +0.238 A 
ATOM     22  O   UNL     1       5.864  -3.160  21.647  0.00  0.00    -0.283 OA
ATOM     23  C   UNL     1       4.665  -5.486  25.546  0.00  0.00    +0.092 A 
ATOM     24  C   UNL     1       6.364  -2.099  23.741  0.00  0.00    +0.214 A 
BRANCH  14  26
ATOM     25  C   UNL     1       5.459   0.268  25.675  0.00  0.00    +0.015 A 
ATOM     26  C   UNL     1       6.159  -0.933  25.925  0.00  0.00    +0.025 A 
ATOM     27  C   UNL     1       7.124  -0.930  26.943  0.00  0.00    +0.060 A 
ATOM     28  C   UNL     1       7.466   0.257  27.585  0.00  0.00    +0.159 A 
ATOM     29  C   UNL     1       6.827   1.450  27.272  0.00  0.00    +0.158 A 
ATOM     30  C   UNL     1       5.792   1.461  26.343  0.00  0.00    +0.050 A 
BRANCH  28  31
ATOM     31  O   UNL     1       8.482   0.246  28.499  0.00  0.00    -0.503 OA
ATOM     32  H   UNL     1       9.173  -0.314  28.091  0.00  0.00    +0.292 HD
ENDBRANCH  28  31
BRANCH  29  33
ATOM     33  O   UNL     1       7.275   2.589  27.885  0.00  0.00    -0.503 OA
ATOM     34  H   UNL     1       7.402   2.399  28.831  0.00  0.00    +0.292 HD
ENDBRANCH  29  33
ENDBRANCH  14  26
BRANCH  20  35
ATOM     35  O   UNL     1       4.017  -7.762  25.487  0.00  0.00    -0.507 OA
ATOM     36  H   UNL     1       4.740  -8.117  26.032  0.00  0.00    +0.292 HD
ENDBRANCH  20  35
BRANCH  18  37
ATOM     37  O   UNL     1       5.368  -5.682  21.454  0.00  0.00    -0.506 OA
ATOM     38  H   UNL     1       4.739  -5.076  20.999  0.00  0.00    +0.292 HD
ENDBRANCH  18  37
ENDBRANCH  13  24
ENDBRANCH   1  13
BRANCH   3  39
ATOM     39  C   UNL     1       9.605   2.069  24.521  0.00  0.00    +0.266 C 
BRANCH  39  40
ATOM     40  O   UNL     1       8.350   2.659  24.196  0.00  0.00    -0.458 OA
BRANCH  40  41
ATOM     41  C   UNL     1       8.117   3.848  24.791  0.00  0.00    +0.340 C 
ATOM     42  O   UNL     1       8.598   4.249  25.837  0.00  0.00    -0.245 OA
BRANCH  41  43
ATOM     43  C   UNL     1       7.108   4.585  24.010  0.00  0.00    +0.066 A 
ATOM     44  C   UNL     1       7.567   5.334  22.922  0.00  0.00    +0.064 A 
ATOM     45  C   UNL     1       6.655   6.044  22.162  0.00  0.00    +0.163 A 
ATOM     46  C   UNL     1       5.301   6.006  22.471  0.00  0.00    +0.201 A 
ATOM     47  C   UNL     1       4.843   5.259  23.554  0.00  0.00    +0.163 A 
ATOM     48  C   UNL     1       5.740   4.540  24.336  0.00  0.00    +0.064 A 
BRANCH  45  49
ATOM     49  O   UNL     1       7.104   6.793  21.115  0.00  0.00    -0.503 OA
ATOM     50  H   UNL     1       6.719   6.368  20.324  0.00  0.00    +0.292 HD
ENDBRANCH  45  49
BRANCH  46  51
ATOM     51  O   UNL     1       4.427   6.719  21.697  0.00  0.00    -0.501 OA
ATOM     52  H   UNL     1       4.890   7.566  21.531  0.00  0.00    +0.292 HD
ENDBRANCH  46  51
BRANCH  47  53
ATOM     53  O   UNL     1       3.501   5.277  23.813  0.00  0.00    -0.503 OA
ATOM     54  H   UNL     1       3.310   6.040  24.388  0.00  0.00    +0.292 HD
ENDBRANCH  47  53
ENDBRANCH  41  43
ENDBRANCH  40  41
ENDBRANCH  39  40
ENDBRANCH   3  39
TORSDOF 17
ENDMDL
MODEL 2
REMARK VINA RESULT:      -7.8      0.139      1.252
REMARK  Name = 
REMARK  17 active torsions:
REMARK  status: ('A' for Active; 'I' for Inactive)
REMARK    1  A    between atoms: C_3  and  O_49
REMARK    2  A    between atoms: C_4  and  O_48
REMARK    3  A    between atoms: C_6  and  C_7
REMARK    4  A    between atoms: C_8  and  O_20
REMARK    5  A    between atoms: C_12  and  O_19
REMARK    6  A    between atoms: C_14  and  O_18
REMARK    7  A    between atoms: O_20  and  C_21
REMARK    8  A    between atoms: C_23  and  O_47
REMARK    9  A    between atoms: C_25  and  O_46
REMARK   10  A    between atoms: C_27  and  O_45
REMARK   11  A    between atoms: C_29  and  C_32
REMARK   12  A    between atoms: C_32  and  O_33
REMARK   13  A    between atoms: O_33  and  C_34
REMARK   14  A    between atoms: C_34  and  C_36
REMARK   15  A    between atoms: C_38  and  O_44
REMARK   16  A    between atoms: C_39  and  O_43
REMARK   17  A    between atoms: C_40  and  O_42
REMARK                            x       y       z     vdW  Elec       q    Type
REMARK                         _______ _______ _______ _____ _____    ______ ____
ROOT
ATOM      1  C   UNL     1       8.622  -1.195  23.290  0.00  0.00    +0.340 C 
ATOM      2  O   UNL     1       9.037  -0.132  24.140  0.00  0.00    -0.330 OA
ATOM      3  C   UNL     1       9.996   0.851  23.734  0.00  0.00    +0.191 C 
ATOM      4  C   UNL     1      10.154   1.115  22.212  0.00  0.00    +0.178 C 
ATOM      5  C   UNL     1       9.134   0.331  21.395  0.00  0.00    +0.180 C 
ATOM      6  C   UNL     1       9.171  -1.125  21.859  0.00  0.00    +0.214 C 
ENDROOT
BRANCH   4   7
ATOM      7  O   UNL     1      10.083   2.497  21.840  0.00  0.00    -0.386 OA
ATOM      8  H   UNL     1      10.493   2.555  20.954  0.00  0.00    +0.210 HD
ENDBRANCH   4   7
BRANCH   5   9
ATOM      9  O   UNL     1       7.854   0.961  21.521  0.00  0.00    -0.386 OA
ATOM     10  H   UNL     1       7.486   1.140  20.635  0.00  0.00    +0.210 HD
ENDBRANCH   5   9
BRANCH   6  11
ATOM     11  O   UNL     1      10.517  -1.617  21.789  0.00  0.00    -0.383 OA
ATOM     12  H   UNL     1      10.648  -2.011  20.907  0.00  0.00    +0.210 HD
ENDBRANCH   6  11
BRANCH   1  13
ATOM     13  O   UNL     1       7.192  -1.092  23.231  0.00  0.00    -0.453 OA
BRANCH  13  24
ATOM     14  C   UNL     1       5.967  -2.101  25.016  0.00  0.00    +0.181 A 
ATOM     15  O   UNL     1       5.238  -3.138  25.601  0.00  0.00    -0.451 OA
ATOM     16  C   UNL     1       5.088  -4.308  24.889  0.00  0.00    +0.147 A 
ATOM     17  C   UNL     1       5.365  -4.391  23.529  0.00  0.00    +0.109 A 
ATOM     18  C   UNL     1       5.154  -5.578  22.819  0.00  0.00    +0.135 A 
ATOM     19  C   UNL     1       4.674  -6.703  23.469  0.00  0.00    +0.091 A 
ATOM     20  C   UNL     1       4.407  -6.623  24.832  0.00  0.00    +0.124 A 
ATOM     21  C   UNL     1       5.904  -3.215  22.867  0.00  0.00    +0.238 A 
ATOM     22  O   UNL     1       5.914  -3.187  21.640  0.00  0.00    -0.283 OA
ATOM     23  C   UNL     1       4.606  -5.438  25.547  0.00  0.00    +0.092 A 
ATOM     24  C   UNL     1       6.387  -2.102  23.728  0.00  0.00    +0.214 A 
BRANCH  14  26
ATOM     25  C   UNL     1       5.473   0.305  25.609  0.00  0.00    +0.015 A 
ATOM     26  C   UNL     1       6.154  -0.901  25.890  0.00  0.00    +0.025 A 
ATOM     27  C   UNL     1       7.099  -0.895  26.926  0.00  0.00    +0.060 A 
ATOM     28  C   UNL     1       7.445   0.297  27.557  0.00  0.00    +0.159 A 
ATOM     29  C   UNL     1       6.827   1.493  27.215  0.00  0.00    +0.158 A 
ATOM     30  C   UNL     1       5.809   1.504  26.266  0.00  0.00    +0.050 A 
BRANCH  28  31
ATOM     31  O   UNL     1       8.443   0.288  28.490  0.00  0.00    -0.503 OA
ATOM     32  H   UNL     1       9.095  -0.355  28.144  0.00  0.00    +0.292 HD
ENDBRANCH  28  31
BRANCH  29  33
ATOM     33  O   UNL     1       7.277   2.636  27.820  0.00  0.00    -0.503 OA
ATOM     34  H   UNL     1       7.728   3.181  27.151  0.00  0.00    +0.292 HD
ENDBRANCH  29  33
ENDBRANCH  14  26
BRANCH  20  35
ATOM     35  O   UNL     1       3.928  -7.706  25.509  0.00  0.00    -0.507 OA
ATOM     36  H   UNL     1       4.671  -8.161  25.941  0.00  0.00    +0.292 HD
ENDBRANCH  20  35
BRANCH  18  37
ATOM     37  O   UNL     1       5.388  -5.704  21.474  0.00  0.00    -0.506 OA
ATOM     38  H   UNL     1       5.890  -6.538  21.326  0.00  0.00    +0.292 HD
ENDBRANCH  18  37
ENDBRANCH  13  24
ENDBRANCH   1  13
BRANCH   3  39
ATOM     39  C   UNL     1       9.580   2.088  24.544  0.00  0.00    +0.266 C 
BRANCH  39  40
ATOM     40  O   UNL     1       8.482   2.809  23.993  0.00  0.00    -0.458 OA
BRANCH  40  41
ATOM     41  C   UNL     1       8.169   3.945  24.651  0.00  0.00    +0.340 C 
ATOM     42  O   UNL     1       8.570   4.289  25.749  0.00  0.00    -0.245 OA
BRANCH  41  43
ATOM     43  C   UNL     1       7.180   4.699  23.860  0.00  0.00    +0.066 A 
ATOM     44  C   UNL     1       5.831   4.513  24.182  0.00  0.00    +0.064 A 
ATOM     45  C   UNL     1       4.868   5.198  23.464  0.00  0.00    +0.163 A 
ATOM     46  C   UNL     1       5.237   6.066  22.443  0.00  0.00    +0.201 A 
ATOM     47  C   UNL     1       6.579   6.252  22.123  0.00  0.00    +0.163 A 
ATOM     48  C   UNL     1       7.567   5.572  22.828  0.00  0.00    +0.064 A 
BRANCH  45  49
ATOM     49  O   UNL     1       3.553   5.000  23.761  0.00  0.00    -0.503 OA
ATOM     50  H   UNL     1       3.340   5.694  24.416  0.00  0.00    +0.292 HD
ENDBRANCH  45  49
BRANCH  46  51
ATOM     51  O   UNL     1       4.258   6.729  21.755  0.00  0.00    -0.501 OA
ATOM     52  H   UNL     1       4.748   7.260  21.093  0.00  0.00    +0.292 HD
ENDBRANCH  46  51
BRANCH  47  53
ATOM     53  O   UNL     1       6.873   7.108  21.098  0.00  0.00    -0.503 OA
ATOM     54  H   UNL     1       7.609   6.729  20.585  0.00  0.00    +0.292 HD
ENDBRANCH  47  53
ENDBRANCH  41  43
ENDBRANCH  40  41
ENDBRANCH  39  40
ENDBRANCH   3  39
TORSDOF 17
ENDMDL
MODEL 3
REMARK VINA RESULT:      -7.7      2.318      9.479
REMARK  Name = 
REMARK  17 active torsions:
REMARK  status: ('A' for Active; 'I' for Inactive)
REMARK    1  A    between atoms: C_3  and  O_49
REMARK    2  A    between atoms: C_4  and  O_48
REMARK    3  A    between atoms: C_6  and  C_7
REMARK    4  A    between atoms: C_8  and  O_20
REMARK    5  A    between atoms: C_12  and  O_19
REMARK    6  A    between atoms: C_14  and  O_18
REMARK    7  A    between atoms: O_20  and  C_21
REMARK    8  A    between atoms: C_23  and  O_47
REMARK    9  A    between atoms: C_25  and  O_46
REMARK   10  A    between atoms: C_27  and  O_45
REMARK   11  A    between atoms: C_29  and  C_32
REMARK   12  A    between atoms: C_32  and  O_33
REMARK   13  A    between atoms: O_33  and  C_34
REMARK   14  A    between atoms: C_34  and  C_36
REMARK   15  A    between atoms: C_38  and  O_44
REMARK   16  A    between atoms: C_39  and  O_43
REMARK   17  A    between atoms: C_40  and  O_42
REMARK                            x       y       z     vdW  Elec       q    Type
REMARK                         _______ _______ _______ _____ _____    ______ ____
ROOT
ATOM      1  C   UNL     1       7.166   1.466  26.289  0.00  0.00    +0.340 C 
ATOM      2  O   UNL     1       7.747   0.173  26.421  0.00  0.00    -0.330 OA
ATOM      3  C   UNL     1       7.075  -0.912  27.070  0.00  0.00    +0.191 C 
ATOM      4  C   UNL     1       5.524  -0.872  27.117  0.00  0.00    +0.178 C 
ATOM      5  C   UNL     1       4.966   0.307  26.328  0.00  0.00    +0.180 C 
ATOM      6  C   UNL     1       5.711   1.568  26.766  0.00  0.00    +0.214 C 
ENDROOT
BRANCH   4   7
ATOM      7  O   UNL     1       4.885  -2.074  26.667  0.00  0.00    -0.386 OA
ATOM      8  H   UNL     1       5.538  -2.788  26.804  0.00  0.00    +0.210 HD
ENDBRANCH   4   7
BRANCH   5   9
ATOM      9  O   UNL     1       5.063   0.018  24.928  0.00  0.00    -0.386 OA
ATOM     10  H   UNL     1       5.195  -0.940  24.797  0.00  0.00    +0.210 HD
ENDBRANCH   5   9
BRANCH   6  11
ATOM     11  O   UNL     1       5.635   1.698  28.193  0.00  0.00    -0.383 OA
ATOM     12  H   UNL     1       6.481   2.069  28.507  0.00  0.00    +0.210 HD
ENDBRANCH   6  11
BRANCH   1  13
ATOM     13  O   UNL     1       7.201   1.752  24.883  0.00  0.00    -0.453 OA
BRANCH  13  24
ATOM     14  C   UNL     1       9.219   1.682  23.607  0.00  0.00    +0.181 A 
ATOM     15  O   UNL     1      10.392   2.239  23.094  0.00  0.00    -0.451 OA
ATOM     16  C   UNL     1      10.723   3.520  23.476  0.00  0.00    +0.147 A 
ATOM     17  C   UNL     1       9.814   4.371  24.093  0.00  0.00    +0.109 A 
ATOM     18  C   UNL     1      10.161   5.685  24.423  0.00  0.00    +0.135 A 
ATOM     19  C   UNL     1      11.433   6.160  24.150  0.00  0.00    +0.091 A 
ATOM     20  C   UNL     1      12.348   5.305  23.542  0.00  0.00    +0.124 A 
ATOM     21  C   UNL     1       8.494   3.849  24.409  0.00  0.00    +0.238 A 
ATOM     22  O   UNL     1       7.609   4.643  24.714  0.00  0.00    -0.283 OA
ATOM     23  C   UNL     1      12.006   3.993  23.200  0.00  0.00    +0.092 A 
ATOM     24  C   UNL     1       8.296   2.378  24.314  0.00  0.00    +0.214 A 
BRANCH  14  26
ATOM     25  C   UNL     1       7.757  -0.122  22.610  0.00  0.00    +0.015 A 
ATOM     26  C   UNL     1       8.979   0.260  23.210  0.00  0.00    +0.025 A 
ATOM     27  C   UNL     1       9.894  -0.751  23.536  0.00  0.00    +0.060 A 
ATOM     28  C   UNL     1       9.543  -2.092  23.394  0.00  0.00    +0.159 A 
ATOM     29  C   UNL     1       8.305  -2.456  22.879  0.00  0.00    +0.158 A 
ATOM     30  C   UNL     1       7.415  -1.477  22.446  0.00  0.00    +0.050 A 
BRANCH  28  31
ATOM     31  O   UNL     1      10.416  -3.053  23.817  0.00  0.00    -0.503 OA
ATOM     32  H   UNL     1       9.910  -3.571  24.475  0.00  0.00    +0.292 HD
ENDBRANCH  28  31
BRANCH  29  33
ATOM     33  O   UNL     1       8.000  -3.791  22.847  0.00  0.00    -0.503 OA
ATOM     34  H   UNL     1       7.874  -4.099  23.761  0.00  0.00    +0.292 HD
ENDBRANCH  29  33
ENDBRANCH  14  26
BRANCH  20  35
ATOM     35  O   UNL     1      13.609   5.734  23.251  0.00  0.00    -0.507 OA
ATOM     36  H   UNL     1      14.246   5.057  23.539  0.00  0.00    +0.292 HD
ENDBRANCH  20  35
BRANCH  18  37
ATOM     37  O   UNL     1       9.294   6.571  25.010  0.00  0.00    -0.506 OA
ATOM     38  H   UNL     1       8.615   6.824  24.343  0.00  0.00    +0.292 HD
ENDBRANCH  18  37
ENDBRANCH  13  24
ENDBRANCH   1  13
BRANCH   3  39
ATOM     39  C   UNL     1       7.648  -2.145  26.354  0.00  0.00    +0.266 C 
BRANCH  39  40
ATOM     40  O   UNL     1       7.255  -3.389  26.924  0.00  0.00    -0.458 OA
BRANCH  40  41
ATOM     41  C   UNL     1       7.611  -4.474  26.205  0.00  0.00    +0.340 C 
ATOM     42  O   UNL     1       8.693  -4.682  25.682  0.00  0.00    -0.245 OA
BRANCH  41  43
ATOM     43  C   UNL     1       6.446  -5.366  26.073  0.00  0.00    +0.066 A 
ATOM     44  C   UNL     1       5.926  -5.912  27.252  0.00  0.00    +0.064 A 
ATOM     45  C   UNL     1       4.834  -6.758  27.176  0.00  0.00    +0.163 A 
ATOM     46  C   UNL     1       4.255  -7.052  25.947  0.00  0.00    +0.201 A 
ATOM     47  C   UNL     1       4.773  -6.508  24.774  0.00  0.00    +0.163 A 
ATOM     48  C   UNL     1       5.872  -5.658  24.823  0.00  0.00    +0.064 A 
BRANCH  45  49
ATOM     49  O   UNL     1       4.340  -7.309  28.321  0.00  0.00    -0.503 OA
ATOM     50  H   UNL     1       5.101  -7.778  28.718  0.00  0.00    +0.292 HD
ENDBRANCH  45  49
BRANCH  46  51
ATOM     51  O   UNL     1       3.175  -7.890  25.909  0.00  0.00    -0.501 OA
ATOM     52  H   UNL     1       3.261  -8.354  25.050  0.00  0.00    +0.292 HD
ENDBRANCH  46  51
BRANCH  47  53
ATOM     53  O   UNL     1       4.167  -6.850  23.597  0.00  0.00    -0.503 OA
ATOM     54  H   UNL     1       3.225  -6.607  23.655  0.00  0.00    +0.292 HD
ENDBRANCH  47  53
ENDBRANCH  41  43
ENDBRANCH  40  41
ENDBRANCH  39  40
ENDBRANCH   3  39
TORSDOF 17
ENDMDL
MODEL 4
REMARK VINA RESULT:      -7.5      2.242      8.887
REMARK  Name = 
REMARK  17 active torsions:
REMARK  status: ('A' for Active; 'I' for Inactive)
REMARK    1  A    between atoms: C_3  and  O_49
REMARK    2  A    between atoms: C_4  and  O_48
REMARK    3  A    between atoms: C_6  and  C_7
REMARK    4  A    between atoms: C_8  and  O_20
REMARK    5  A    between atoms: C_12  and  O_19
REMARK    6  A    between atoms: C_14  and  O_18
REMARK    7  A    between atoms: O_20  and  C_21
REMARK    8  A    between atoms: C_23  and  O_47
REMARK    9  A    between atoms: C_25  and  O_46
REMARK   10  A    between atoms: C_27  and  O_45
REMARK   11  A    between atoms: C_29  and  C_32
REMARK   12  A    between atoms: C_32  and  O_33
REMARK   13  A    between atoms: O_33  and  C_34
REMARK   14  A    between atoms: C_34  and  C_36
REMARK   15  A    between atoms: C_38  and  O_44
REMARK   16  A    between atoms: C_39  and  O_43
REMARK   17  A    between atoms: C_40  and  O_42
REMARK                            x       y       z     vdW  Elec       q    Type
REMARK                         _______ _______ _______ _____ _____    ______ ____
ROOT
ATOM      1  C   UNL     1       7.023   1.444  26.320  0.00  0.00    +0.340 C 
ATOM      2  O   UNL     1       6.789   0.091  26.694  0.00  0.00    -0.330 OA
ATOM      3  C   UNL     1       5.607  -0.324  27.387  0.00  0.00    +0.191 C 
ATOM      4  C   UNL     1       4.335   0.552  27.229  0.00  0.00    +0.178 C 
ATOM      5  C   UNL     1       4.550   1.681  26.228  0.00  0.00    +0.180 C 
ATOM      6  C   UNL     1       5.851   2.397  26.589  0.00  0.00    +0.214 C 
ENDROOT
BRANCH   4   7
ATOM      7  O   UNL     1       3.156  -0.174  26.861  0.00  0.00    -0.386 OA
ATOM      8  H   UNL     1       2.653  -0.301  27.690  0.00  0.00    +0.210 HD
ENDBRANCH   4   7
BRANCH   5   9
ATOM      9  O   UNL     1       4.520   1.140  24.902  0.00  0.00    -0.386 OA
ATOM     10  H   UNL     1       5.170   0.415  24.826  0.00  0.00    +0.210 HD
ENDBRANCH   5   9
BRANCH   6  11
ATOM     11  O   UNL     1       5.809   2.802  27.965  0.00  0.00    -0.383 OA
ATOM     12  H   UNL     1       6.324   3.626  28.053  0.00  0.00    +0.210 HD
ENDBRANCH   6  11
BRANCH   1  13
ATOM     13  O   UNL     1       7.260   1.408  24.906  0.00  0.00    -0.453 OA
BRANCH  13  24
ATOM     14  C   UNL     1       9.424   1.344  23.896  0.00  0.00    +0.181 A 
ATOM     15  O   UNL     1      10.598   1.931  23.421  0.00  0.00    -0.451 OA
ATOM     16  C   UNL     1      10.760   3.289  23.590  0.00  0.00    +0.147 A 
ATOM     17  C   UNL     1       9.704   4.126  23.932  0.00  0.00    +0.109 A 
ATOM     18  C   UNL     1       9.885   5.509  24.047  0.00  0.00    +0.135 A 
ATOM     19  C   UNL     1      11.134   6.068  23.832  0.00  0.00    +0.091 A 
ATOM     20  C   UNL     1      12.193   5.230  23.500  0.00  0.00    +0.124 A 
ATOM     21  C   UNL     1       8.408   3.522  24.192  0.00  0.00    +0.238 A 
ATOM     22  O   UNL     1       7.422   4.252  24.243  0.00  0.00    -0.283 OA
ATOM     23  C   UNL     1      12.018   3.848  23.374  0.00  0.00    +0.092 A 
ATOM     24  C   UNL     1       8.358   2.044  24.353  0.00  0.00    +0.214 A 
BRANCH  14  26
ATOM     25  C   UNL     1       9.146  -0.732  22.482  0.00  0.00    +0.015 A 
ATOM     26  C   UNL     1       9.367  -0.143  23.748  0.00  0.00    +0.025 A 
ATOM     27  C   UNL     1       9.399  -0.988  24.867  0.00  0.00    +0.060 A 
ATOM     28  C   UNL     1       9.087  -2.339  24.739  0.00  0.00    +0.159 A 
ATOM     29  C   UNL     1       8.791  -2.890  23.499  0.00  0.00    +0.158 A 
ATOM     30  C   UNL     1       8.855  -2.103  22.354  0.00  0.00    +0.050 A 
BRANCH  28  31
ATOM     31  O   UNL     1       9.025  -3.113  25.862  0.00  0.00    -0.503 OA
ATOM     32  H   UNL     1       8.520  -2.575  26.504  0.00  0.00    +0.292 HD
ENDBRANCH  28  31
BRANCH  29  33
ATOM     33  O   UNL     1       8.413  -4.206  23.464  0.00  0.00    -0.503 OA
ATOM     34  H   UNL     1       7.958  -4.373  22.621  0.00  0.00    +0.292 HD
ENDBRANCH  29  33
ENDBRANCH  14  26
BRANCH  20  35
ATOM     35  O   UNL     1      13.437   5.740  23.275  0.00  0.00    -0.507 OA
ATOM     36  H   UNL     1      13.636   5.678  22.325  0.00  0.00    +0.292 HD
ENDBRANCH  20  35
BRANCH  18  37
ATOM     37  O   UNL     1       8.872   6.379  24.357  0.00  0.00    -0.506 OA
ATOM     38  H   UNL     1       8.157   5.872  24.804  0.00  0.00    +0.292 HD
ENDBRANCH  18  37
ENDBRANCH  13  24
ENDBRANCH   1  13
BRANCH   3  39
ATOM     39  C   UNL     1       5.428  -1.776  26.918  0.00  0.00    +0.266 C 
BRANCH  39  40
ATOM     40  O   UNL     1       5.123  -1.912  25.533  0.00  0.00    -0.458 OA
BRANCH  40  41
ATOM     41  C   UNL     1       4.067  -2.710  25.267  0.00  0.00    +0.340 C 
ATOM     42  O   UNL     1       2.954  -2.638  25.758  0.00  0.00    -0.245 OA
BRANCH  41  43
ATOM     43  C   UNL     1       4.487  -3.762  24.324  0.00  0.00    +0.066 A 
ATOM     44  C   UNL     1       5.010  -3.344  23.095  0.00  0.00    +0.064 A 
ATOM     45  C   UNL     1       5.414  -4.296  22.178  0.00  0.00    +0.163 A 
ATOM     46  C   UNL     1       5.312  -5.650  22.478  0.00  0.00    +0.201 A 
ATOM     47  C   UNL     1       4.793  -6.066  23.701  0.00  0.00    +0.163 A 
ATOM     48  C   UNL     1       4.376  -5.128  24.639  0.00  0.00    +0.064 A 
BRANCH  45  49
ATOM     49  O   UNL     1       5.902  -3.891  20.972  0.00  0.00    -0.503 OA
ATOM     50  H   UNL     1       5.966  -2.919  21.045  0.00  0.00    +0.292 HD
ENDBRANCH  45  49
BRANCH  46  51
ATOM     51  O   UNL     1       5.723  -6.565  21.548  0.00  0.00    -0.501 OA
ATOM     52  H   UNL     1       6.066  -7.312  22.081  0.00  0.00    +0.292 HD
ENDBRANCH  46  51
BRANCH  47  53
ATOM     53  O   UNL     1       4.705  -7.411  23.927  0.00  0.00    -0.503 OA
ATOM     54  H   UNL     1       4.094  -7.557  24.672  0.00  0.00    +0.292 HD
ENDBRANCH  47  53
ENDBRANCH  41  43
ENDBRANCH  40  41
ENDBRANCH  39  40
ENDBRANCH   3  39
TORSDOF 17
ENDMDL
MODEL 5
REMARK VINA RESULT:      -7.2      2.461      9.186
REMARK  Name = 
REMARK  17 active torsions:
REMARK  status: ('A' for Active; 'I' for Inactive)
REMARK    1  A    between atoms: C_3  and  O_49
REMARK    2  A    between atoms: C_4  and  O_48
REMARK    3  A    between atoms: C_6  and  C_7
REMARK    4  A    between atoms: C_8  and  O_20
REMARK    5  A    between atoms: C_12  and  O_19
REMARK    6  A    between atoms: C_14  and  O_18
REMARK    7  A    between atoms: O_20  and  C_21
REMARK    8  A    between atoms: C_23  and  O_47
REMARK    9  A    between atoms: C_25  and  O_46
REMARK   10  A    between atoms: C_27  and  O_45
REMARK   11  A    between atoms: C_29  and  C_32
REMARK   12  A    between atoms: C_32  and  O_33
REMARK   13  A    between atoms: O_33  and  C_34
REMARK   14  A    between atoms: C_34  and  C_36
REMARK   15  A    between atoms: C_38  and  O_44
REMARK   16  A    between atoms: C_39  and  O_43
REMARK   17  A    between atoms: C_40  and  O_42
REMARK                            x       y       z     vdW  Elec       q    Type
REMARK                         _______ _______ _______ _____ _____    ______ ____
ROOT
ATOM      1  C   UNL     1       6.686   2.535  26.174  0.00  0.00    +0.340 C 
ATOM      2  O   UNL     1       6.727   1.334  26.936  0.00  0.00    -0.330 OA
ATOM      3  C   UNL     1       5.611   0.868  27.702  0.00  0.00    +0.191 C 
ATOM      4  C   UNL     1       4.195   1.331  27.264  0.00  0.00    +0.178 C 
ATOM      5  C   UNL     1       4.240   2.137  25.972  0.00  0.00    +0.180 C 
ATOM      6  C   UNL     1       5.313   3.216  26.122  0.00  0.00    +0.214 C 
ENDROOT
BRANCH   4   7
ATOM      7  O   UNL     1       3.244   0.269  27.115  0.00  0.00    -0.386 OA
ATOM      8  H   UNL     1       3.760  -0.511  26.830  0.00  0.00    +0.210 HD
ENDBRANCH   4   7
BRANCH   5   9
ATOM      9  O   UNL     1       4.449   1.243  24.872  0.00  0.00    -0.386 OA
ATOM     10  H   UNL     1       4.624   0.344  25.207  0.00  0.00    +0.210 HD
ENDBRANCH   5   9
BRANCH   6  11
ATOM     11  O   UNL     1       5.061   3.981  27.310  0.00  0.00    -0.383 OA
ATOM     12  H   UNL     1       4.107   3.931  27.504  0.00  0.00    +0.210 HD
ENDBRANCH   6  11
BRANCH   1  13
ATOM     13  O   UNL     1       7.049   2.147  24.841  0.00  0.00    -0.453 OA
BRANCH  13  24
ATOM     14  C   UNL     1       9.224   1.606  24.017  0.00  0.00    +0.181 A 
ATOM     15  O   UNL     1      10.504   1.930  23.564  0.00  0.00    -0.451 OA
ATOM     16  C   UNL     1      10.880   3.255  23.573  0.00  0.00    +0.147 A 
ATOM     17  C   UNL     1       9.962   4.287  23.726  0.00  0.00    +0.109 A 
ATOM     18  C   UNL     1      10.364   5.626  23.679  0.00  0.00    +0.135 A 
ATOM     19  C   UNL     1      11.699   5.947  23.492  0.00  0.00    +0.091 A 
ATOM     20  C   UNL     1      12.620   4.914  23.351  0.00  0.00    +0.124 A 
ATOM     21  C   UNL     1       8.571   3.937  23.958  0.00  0.00    +0.238 A 
ATOM     22  O   UNL     1       7.719   4.813  23.841  0.00  0.00    -0.283 OA
ATOM     23  C   UNL     1      12.225   3.573  23.386  0.00  0.00    +0.092 A 
ATOM     24  C   UNL     1       8.266   2.521  24.299  0.00  0.00    +0.214 A 
BRANCH  14  26
ATOM     25  C   UNL     1       9.573  -0.700  24.990  0.00  0.00    +0.015 A 
ATOM     26  C   UNL     1       8.929   0.140  24.053  0.00  0.00    +0.025 A 
ATOM     27  C   UNL     1       8.113  -0.463  23.084  0.00  0.00    +0.060 A 
ATOM     28  C   UNL     1       8.056  -1.850  22.975  0.00  0.00    +0.159 A 
ATOM     29  C   UNL     1       8.761  -2.666  23.852  0.00  0.00    +0.158 A 
ATOM     30  C   UNL     1       9.494  -2.102  24.891  0.00  0.00    +0.050 A 
BRANCH  28  31
ATOM     31  O   UNL     1       7.335  -2.405  21.957  0.00  0.00    -0.503 OA
ATOM     32  H   UNL     1       6.765  -1.678  21.636  0.00  0.00    +0.292 HD
ENDBRANCH  28  31
BRANCH  29  33
ATOM     33  O   UNL     1       8.721  -4.017  23.631  0.00  0.00    -0.503 OA
ATOM     34  H   UNL     1       8.149  -4.186  22.862  0.00  0.00    +0.292 HD
ENDBRANCH  29  33
ENDBRANCH  14  26
BRANCH  20  35
ATOM     35  O   UNL     1      13.942   5.187  23.160  0.00  0.00    -0.507 OA
ATOM     36  H   UNL     1      14.054   5.620  22.296  0.00  0.00    +0.292 HD
ENDBRANCH  20  35
BRANCH  18  37
ATOM     37  O   UNL     1       9.495   6.680  23.799  0.00  0.00    -0.506 OA
ATOM     38  H   UNL     1       8.882   6.489  24.545  0.00  0.00    +0.292 HD
ENDBRANCH  18  37
ENDBRANCH  13  24
ENDBRANCH   1  13
BRANCH   3  39
ATOM     39  C   UNL     1       5.802  -0.656  27.692  0.00  0.00    +0.266 C 
BRANCH  39  40
ATOM     40  O   UNL     1       6.421  -1.162  26.513  0.00  0.00    -0.458 OA
BRANCH  40  41
ATOM     41  C   UNL     1       5.613  -1.907  25.730  0.00  0.00    +0.340 C 
ATOM     42  O   UNL     1       4.939  -1.516  24.793  0.00  0.00    -0.245 OA
BRANCH  41  43
ATOM     43  C   UNL     1       5.603  -3.292  26.233  0.00  0.00    +0.066 A 
ATOM     44  C   UNL     1       4.373  -3.959  26.238  0.00  0.00    +0.064 A 
ATOM     45  C   UNL     1       4.316  -5.260  26.705  0.00  0.00    +0.163 A 
ATOM     46  C   UNL     1       5.467  -5.898  27.152  0.00  0.00    +0.201 A 
ATOM     47  C   UNL     1       6.691  -5.234  27.146  0.00  0.00    +0.163 A 
ATOM     48  C   UNL     1       6.775  -3.925  26.686  0.00  0.00    +0.064 A 
BRANCH  45  49
ATOM     49  O   UNL     1       3.114  -5.903  26.733  0.00  0.00    -0.503 OA
ATOM     50  H   UNL     1       3.236  -6.679  26.152  0.00  0.00    +0.292 HD
ENDBRANCH  45  49
BRANCH  46  51
ATOM     51  O   UNL     1       5.373  -7.185  27.605  0.00  0.00    -0.501 OA
ATOM     52  H   UNL     1       5.985  -7.215  28.371  0.00  0.00    +0.292 HD
ENDBRANCH  46  51
BRANCH  47  53
ATOM     53  O   UNL     1       7.781  -5.914  27.615  0.00  0.00    -0.503 OA
ATOM     54  H   UNL     1       7.588  -6.868  27.574  0.00  0.00    +0.292 HD
ENDBRANCH  47  53
ENDBRANCH  41  43
ENDBRANCH  40  41
ENDBRANCH  39  40
ENDBRANCH   3  39
TORSDOF 17
ENDMDL
MODEL 6
REMARK VINA RESULT:      -7.2      2.549      9.112
REMARK  Name = 
REMARK  17 active torsions:
REMARK  status: ('A' for Active; 'I' for Inactive)
REMARK    1  A    between atoms: C_3  and  O_49
REMARK    2  A    between atoms: C_4  and  O_48
REMARK    3  A    between atoms: C_6  and  C_7
REMARK    4  A    between atoms: C_8  and  O_20
REMARK    5  A    between atoms: C_12  and  O_19
REMARK    6  A    between atoms: C_14  and  O_18
REMARK    7  A    between atoms: O_20  and  C_21
REMARK    8  A    between atoms: C_23  and  O_47
REMARK    9  A    between atoms: C_25  and  O_46
REMARK   10  A    between atoms: C_27  and  O_45
REMARK   11  A    between atoms: C_29  and  C_32
REMARK   12  A    between atoms: C_32  and  O_33
REMARK   13  A    between atoms: O_33  and  C_34
REMARK   14  A    between atoms: C_34  and  C_36
REMARK   15  A    between atoms: C_38  and  O_44
REMARK   16  A    between atoms: C_39  and  O_43
REMARK   17  A    between atoms: C_40  and  O_42
REMARK                            x       y       z     vdW  Elec       q    Type
REMARK                         _______ _______ _______ _____ _____    ______ ____
ROOT
ATOM      1  C   UNL     1       5.288  -0.704  26.919  0.00  0.00    +0.340 C 
ATOM      2  O   UNL     1       5.488  -1.890  27.681  0.00  0.00    -0.330 OA
ATOM      3  C   UNL     1       4.453  -2.483  28.472  0.00  0.00    +0.191 C 
ATOM      4  C   UNL     1       2.983  -2.193  28.066  0.00  0.00    +0.178 C 
ATOM      5  C   UNL     1       2.903  -1.391  26.772  0.00  0.00    +0.180 C 
ATOM      6  C   UNL     1       3.843  -0.191  26.898  0.00  0.00    +0.214 C 
ENDROOT
BRANCH   4   7
ATOM      7  O   UNL     1       2.162  -3.361  27.937  0.00  0.00    -0.386 OA
ATOM      8  H   UNL     1       2.263  -3.850  28.778  0.00  0.00    +0.210 HD
ENDBRANCH   4   7
BRANCH   5   9
ATOM      9  O   UNL     1       3.192  -2.256  25.669  0.00  0.00    -0.386 OA
ATOM     10  H   UNL     1       3.913  -2.869  25.909  0.00  0.00    +0.210 HD
ENDBRANCH   5   9
BRANCH   6  11
ATOM     11  O   UNL     1       3.528   0.542  28.091  0.00  0.00    -0.383 OA
ATOM     12  H   UNL     1       3.962   0.096  28.842  0.00  0.00    +0.210 HD
ENDBRANCH   6  11
BRANCH   1  13
ATOM     13  O   UNL     1       5.665  -1.050  25.579  0.00  0.00    -0.453 OA
BRANCH  13  24
ATOM     14  C   UNL     1       7.914  -0.977  24.779  0.00  0.00    +0.181 A 
ATOM     15  O   UNL     1       9.026  -0.332  24.234  0.00  0.00    -0.451 OA
ATOM     16  C   UNL     1       8.945   1.026  24.015  0.00  0.00    +0.147 A 
ATOM     17  C   UNL     1       7.735   1.711  24.029  0.00  0.00    +0.109 A 
ATOM     18  C   UNL     1       7.676   3.081  23.751  0.00  0.00    +0.135 A 
ATOM     19  C   UNL     1       8.834   3.785  23.468  0.00  0.00    +0.091 A 
ATOM     20  C   UNL     1      10.046   3.103  23.464  0.00  0.00    +0.124 A 
ATOM     21  C   UNL     1       6.532   0.967  24.364  0.00  0.00    +0.238 A 
ATOM     22  O   UNL     1       5.442   1.484  24.136  0.00  0.00    -0.283 OA
ATOM     23  C   UNL     1      10.113   1.732  23.732  0.00  0.00    +0.092 A 
ATOM     24  C   UNL     1       6.702  -0.393  24.942  0.00  0.00    +0.214 A 
BRANCH  14  26
ATOM     25  C   UNL     1       8.614  -2.856  26.316  0.00  0.00    +0.015 A 
ATOM     26  C   UNL     1       8.117  -2.432  25.063  0.00  0.00    +0.025 A 
ATOM     27  C   UNL     1       7.947  -3.400  24.063  0.00  0.00    +0.060 A 
ATOM     28  C   UNL     1       8.385  -4.707  24.266  0.00  0.00    +0.159 A 
ATOM     29  C   UNL     1       8.949  -5.092  25.476  0.00  0.00    +0.158 A 
ATOM     30  C   UNL     1       9.033  -4.183  26.526  0.00  0.00    +0.050 A 
BRANCH  28  31
ATOM     31  O   UNL     1       8.300  -5.600  23.237  0.00  0.00    -0.503 OA
ATOM     32  H   UNL     1       8.352  -6.477  23.668  0.00  0.00    +0.292 HD
ENDBRANCH  28  31
BRANCH  29  33
ATOM     33  O   UNL     1       9.431  -6.371  25.571  0.00  0.00    -0.503 OA
ATOM     34  H   UNL     1       9.616  -6.696  24.674  0.00  0.00    +0.292 HD
ENDBRANCH  29  33
ENDBRANCH  14  26
BRANCH  20  35
ATOM     35  O   UNL     1      11.209   3.758  23.185  0.00  0.00    -0.507 OA
ATOM     36  H   UNL     1      11.538   4.177  23.999  0.00  0.00    +0.292 HD
ENDBRANCH  20  35
BRANCH  18  37
ATOM     37  O   UNL     1       6.506   3.796  23.728  0.00  0.00    -0.506 OA
ATOM     38  H   UNL     1       5.853   3.299  23.184  0.00  0.00    +0.292 HD
ENDBRANCH  18  37
ENDBRANCH  13  24
ENDBRANCH   1  13
BRANCH   3  39
ATOM     39  C   UNL     1       4.824  -3.973  28.458  0.00  0.00    +0.266 C 
BRANCH  39  40
ATOM     40  O   UNL     1       5.686  -4.354  27.390  0.00  0.00    -0.458 OA
BRANCH  40  41
ATOM     41  C   UNL     1       5.758  -5.684  27.172  0.00  0.00    +0.340 C 
ATOM     42  O   UNL     1       6.438  -6.489  27.784  0.00  0.00    -0.245 OA
BRANCH  41  43
ATOM     43  C   UNL     1       4.927  -6.023  26.004  0.00  0.00    +0.066 A 
ATOM     44  C   UNL     1       4.206  -7.222  26.061  0.00  0.00    +0.064 A 
ATOM     45  C   UNL     1       3.416  -7.582  24.985  0.00  0.00    +0.163 A 
ATOM     46  C   UNL     1       3.331  -6.760  23.867  0.00  0.00    +0.201 A 
ATOM     47  C   UNL     1       4.047  -5.567  23.811  0.00  0.00    +0.163 A 
ATOM     48  C   UNL     1       4.852  -5.184  24.878  0.00  0.00    +0.064 A 
BRANCH  45  49
ATOM     49  O   UNL     1       2.732  -8.760  25.029  0.00  0.00    -0.503 OA
ATOM     50  H   UNL     1       2.370  -8.871  24.128  0.00  0.00    +0.292 HD
ENDBRANCH  45  49
BRANCH  46  51
ATOM     51  O   UNL     1       2.538  -7.147  22.822  0.00  0.00    -0.501 OA
ATOM     52  H   UNL     1       1.632  -7.146  23.195  0.00  0.00    +0.292 HD
ENDBRANCH  46  51
BRANCH  47  53
ATOM     53  O   UNL     1       3.932  -4.813  22.676  0.00  0.00    -0.503 OA
ATOM     54  H   UNL     1       3.426  -5.324  22.019  0.00  0.00    +0.292 HD
ENDBRANCH  47  53
ENDBRANCH  41  43
ENDBRANCH  40  41
ENDBRANCH  39  40
ENDBRANCH   3  39
TORSDOF 17
ENDMDL
MODEL 7
REMARK VINA RESULT:      -7.2      1.665      4.427
REMARK  Name = 
REMARK  17 active torsions:
REMARK  status: ('A' for Active; 'I' for Inactive)
REMARK    1  A    between atoms: C_3  and  O_49
REMARK    2  A    between atoms: C_4  and  O_48
REMARK    3  A    between atoms: C_6  and  C_7
REMARK    4  A    between atoms: C_8  and  O_20
REMARK    5  A    between atoms: C_12  and  O_19
REMARK    6  A    between atoms: C_14  and  O_18
REMARK    7  A    between atoms: O_20  and  C_21
REMARK    8  A    between atoms: C_23  and  O_47
REMARK    9  A    between atoms: C_25  and  O_46
REMARK   10  A    between atoms: C_27  and  O_45
REMARK   11  A    between atoms: C_29  and  C_32
REMARK   12  A    between atoms: C_32  and  O_33
REMARK   13  A    between atoms: O_33  and  C_34
REMARK   14  A    between atoms: C_34  and  C_36
REMARK   15  A    between atoms: C_38  and  O_44
REMARK   16  A    between atoms: C_39  and  O_43
REMARK   17  A    between atoms: C_40  and  O_42
REMARK                            x       y       z     vdW  Elec       q    Type
REMARK                         _______ _______ _______ _____ _____    ______ ____
ROOT
ATOM      1  C   UNL     1       6.322   0.067  26.259  0.00  0.00    +0.340 C 
ATOM      2  O   UNL     1       6.690   1.390  25.884  0.00  0.00    -0.330 OA
ATOM      3  C   UNL     1       6.560   2.507  26.770  0.00  0.00    +0.191 C 
ATOM      4  C   UNL     1       6.570   2.220  28.295  0.00  0.00    +0.178 C 
ATOM      5  C   UNL     1       6.847   0.751  28.591  0.00  0.00    +0.180 C 
ATOM      6  C   UNL     1       5.909  -0.093  27.728  0.00  0.00    +0.214 C 
ENDROOT
BRANCH   4   7
ATOM      7  O   UNL     1       7.491   3.024  29.044  0.00  0.00    -0.386 OA
ATOM      8  H   UNL     1       8.259   2.448  29.227  0.00  0.00    +0.210 HD
ENDBRANCH   4   7
BRANCH   5   9
ATOM      9  O   UNL     1       8.240   0.488  28.383  0.00  0.00    -0.386 OA
ATOM     10  H   UNL     1       8.437  -0.442  28.602  0.00  0.00    +0.210 HD
ENDBRANCH   5   9
BRANCH   6  11
ATOM     11  O   UNL     1       4.553   0.327  27.941  0.00  0.00    -0.383 OA
ATOM     12  H   UNL     1       4.398   1.126  27.403  0.00  0.00    +0.210 HD
ENDBRANCH   6  11
BRANCH   1  13
ATOM     13  O   UNL     1       7.493  -0.729  26.029  0.00  0.00    -0.453 OA
BRANCH  13  24
ATOM     14  C   UNL     1       8.029  -1.571  23.859  0.00  0.00    +0.181 A 
ATOM     15  O   UNL     1       7.967  -2.520  22.838  0.00  0.00    -0.451 OA
ATOM     16  C   UNL     1       7.160  -3.621  23.022  0.00  0.00    +0.147 A 
ATOM     17  C   UNL     1       6.652  -3.970  24.269  0.00  0.00    +0.109 A 
ATOM     18  C   UNL     1       5.878  -5.123  24.437  0.00  0.00    +0.135 A 
ATOM     19  C   UNL     1       5.590  -5.934  23.353  0.00  0.00    +0.091 A 
ATOM     20  C   UNL     1       6.088  -5.579  22.103  0.00  0.00    +0.124 A 
ATOM     21  C   UNL     1       6.930  -3.090  25.391  0.00  0.00    +0.238 A 
ATOM     22  O   UNL     1       6.714  -3.504  26.527  0.00  0.00    -0.283 OA
ATOM     23  C   UNL     1       6.871  -4.434  21.927  0.00  0.00    +0.092 A 
ATOM     24  C   UNL     1       7.488  -1.744  25.089  0.00  0.00    +0.214 A 
BRANCH  14  26
ATOM     25  C   UNL     1      10.024  -0.081  24.292  0.00  0.00    +0.015 A 
ATOM     26  C   UNL     1       8.861  -0.368  23.542  0.00  0.00    +0.025 A 
ATOM     27  C   UNL     1       8.445   0.573  22.589  0.00  0.00    +0.060 A 
ATOM     28  C   UNL     1       9.087   1.805  22.490  0.00  0.00    +0.159 A 
ATOM     29  C   UNL     1      10.181   2.109  23.291  0.00  0.00    +0.158 A 
ATOM     30  C   UNL     1      10.684   1.156  24.172  0.00  0.00    +0.050 A 
BRANCH  28  31
ATOM     31  O   UNL     1       8.595   2.740  21.625  0.00  0.00    -0.503 OA
ATOM     32  H   UNL     1       8.802   2.386  20.737  0.00  0.00    +0.292 HD
ENDBRANCH  28  31
BRANCH  29  33
ATOM     33  O   UNL     1      10.707   3.369  23.195  0.00  0.00    -0.503 OA
ATOM     34  H   UNL     1      10.008   3.971  22.884  0.00  0.00    +0.292 HD
ENDBRANCH  29  33
ENDBRANCH  14  26
BRANCH  20  35
ATOM     35  O   UNL     1       5.832  -6.353  21.010  0.00  0.00    -0.507 OA
ATOM     36  H   UNL     1       6.516  -7.042  20.944  0.00  0.00    +0.292 HD
ENDBRANCH  20  35
BRANCH  18  37
ATOM     37  O   UNL     1       5.375  -5.524  25.649  0.00  0.00    -0.506 OA
ATOM     38  H   UNL     1       6.028  -6.131  26.066  0.00  0.00    +0.292 HD
ENDBRANCH  18  37
ENDBRANCH  13  24
ENDBRANCH   1  13
BRANCH   3  39
ATOM     39  C   UNL     1       7.682   3.446  26.302  0.00  0.00    +0.266 C 
BRANCH  39  40
ATOM     40  O   UNL     1       7.706   4.707  26.965  0.00  0.00    -0.458 OA
BRANCH  40  41
ATOM     41  C   UNL     1       6.763   5.578  26.549  0.00  0.00    +0.340 C 
ATOM     42  O   UNL     1       5.884   6.083  27.227  0.00  0.00    -0.245 OA
BRANCH  41  43
ATOM     43  C   UNL     1       6.904   5.780  25.096  0.00  0.00    +0.066 A 
ATOM     44  C   UNL     1       8.205   5.875  24.590  0.00  0.00    +0.064 A 
ATOM     45  C   UNL     1       8.385   6.068  23.232  0.00  0.00    +0.163 A 
ATOM     46  C   UNL     1       7.289   6.156  22.382  0.00  0.00    +0.201 A 
ATOM     47  C   UNL     1       5.994   6.061  22.887  0.00  0.00    +0.163 A 
ATOM     48  C   UNL     1       5.786   5.871  24.248  0.00  0.00    +0.064 A 
BRANCH  45  49
ATOM     49  O   UNL     1       9.651   6.183  22.741  0.00  0.00    -0.503 OA
ATOM     50  H   UNL     1      10.000   5.270  22.740  0.00  0.00    +0.292 HD
ENDBRANCH  45  49
BRANCH  46  51
ATOM     51  O   UNL     1       7.504   6.345  21.045  0.00  0.00    -0.501 OA
ATOM     52  H   UNL     1       8.378   6.786  21.003  0.00  0.00    +0.292 HD
ENDBRANCH  46  51
BRANCH  47  53
ATOM     53  O   UNL     1       4.959   6.172  21.999  0.00  0.00    -0.503 OA
ATOM     54  H   UNL     1       4.343   6.849  22.331  0.00  0.00    +0.292 HD
ENDBRANCH  47  53
ENDBRANCH  41  43
ENDBRANCH  40  41
ENDBRANCH  39  40
ENDBRANCH   3  39
TORSDOF 17
ENDMDL
MODEL 8
REMARK VINA RESULT:      -7.0      2.172      4.947
REMARK  Name = 
REMARK  17 active torsions:
REMARK  status: ('A' for Active; 'I' for Inactive)
REMARK    1  A    between atoms: C_3  and  O_49
REMARK    2  A    between atoms: C_4  and  O_48
REMARK    3  A    between atoms: C_6  and  C_7
REMARK    4  A    between atoms: C_8  and  O_20
REMARK    5  A    between atoms: C_12  and  O_19
REMARK    6  A    between atoms: C_14  and  O_18
REMARK    7  A    between atoms: O_20  and  C_21
REMARK    8  A    between atoms: C_23  and  O_47
REMARK    9  A    between atoms: C_25  and  O_46
REMARK   10  A    between atoms: C_27  and  O_45
REMARK   11  A    between atoms: C_29  and  C_32
REMARK   12  A    between atoms: C_32  and  O_33
REMARK   13  A    between atoms: O_33  and  C_34
REMARK   14  A    between atoms: C_34  and  C_36
REMARK   15  A    between atoms: C_38  and  O_44
REMARK   16  A    between atoms: C_39  and  O_43
REMARK   17  A    between atoms: C_40  and  O_42
REMARK                            x       y       z     vdW  Elec       q    Type
REMARK                         _______ _______ _______ _____ _____    ______ ____
ROOT
ATOM      1  C   UNL     1       6.026   0.123  25.916  0.00  0.00    +0.340 C 
ATOM      2  O   UNL     1       6.478   1.343  25.340  0.00  0.00    -0.330 OA
ATOM      3  C   UNL     1       6.390   2.598  26.023  0.00  0.00    +0.191 C 
ATOM      4  C   UNL     1       6.347   2.570  27.575  0.00  0.00    +0.178 C 
ATOM      5  C   UNL     1       6.533   1.159  28.118  0.00  0.00    +0.180 C 
ATOM      6  C   UNL     1       5.569   0.232  27.376  0.00  0.00    +0.214 C 
ENDROOT
BRANCH   4   7
ATOM      7  O   UNL     1       7.294   3.439  28.210  0.00  0.00    -0.386 OA
ATOM      8  H   UNL     1       8.167   3.190  27.848  0.00  0.00    +0.210 HD
ENDBRANCH   4   7
BRANCH   5   9
ATOM      9  O   UNL     1       7.913   0.793  28.003  0.00  0.00    -0.386 OA
ATOM     10  H   UNL     1       8.365   1.401  27.388  0.00  0.00    +0.210 HD
ENDBRANCH   5   9
BRANCH   6  11
ATOM     11  O   UNL     1       4.235   0.752  27.472  0.00  0.00    -0.383 OA
ATOM     12  H   UNL     1       3.781   0.573  26.628  0.00  0.00    +0.210 HD
ENDBRANCH   6  11
BRANCH   1  13
ATOM     13  O   UNL     1       7.155  -0.760  25.860  0.00  0.00    -0.453 OA
BRANCH  13  24
ATOM     14  C   UNL     1       7.947  -1.763  23.843  0.00  0.00    +0.181 A 
ATOM     15  O   UNL     1       7.946  -2.749  22.854  0.00  0.00    -0.451 OA
ATOM     16  C   UNL     1       6.994  -3.743  22.929  0.00  0.00    +0.147 A 
ATOM     17  C   UNL     1       6.246  -3.970  24.078  0.00  0.00    +0.109 A 
ATOM     18  C   UNL     1       5.323  -5.020  24.144  0.00  0.00    +0.135 A 
ATOM     19  C   UNL     1       5.128  -5.847  23.050  0.00  0.00    +0.091 A 
ATOM     20  C   UNL     1       5.869  -5.613  21.896  0.00  0.00    +0.124 A 
ATOM     21  C   UNL     1       6.432  -3.072  25.205  0.00  0.00    +0.238 A 
ATOM     22  O   UNL     1       5.980  -3.402  26.297  0.00  0.00    -0.283 OA
ATOM     23  C   UNL     1       6.801  -4.572  21.825  0.00  0.00    +0.092 A 
ATOM     24  C   UNL     1       7.188  -1.814  24.964  0.00  0.00    +0.214 A 
BRANCH  14  26
ATOM     25  C   UNL     1       9.945  -0.425  24.616  0.00  0.00    +0.015 A 
ATOM     26  C   UNL     1       8.956  -0.678  23.639  0.00  0.00    +0.025 A 
ATOM     27  C   UNL     1       8.873   0.198  22.547  0.00  0.00    +0.060 A 
ATOM     28  C   UNL     1       9.654   1.351  22.508  0.00  0.00    +0.159 A 
ATOM     29  C   UNL     1      10.566   1.631  23.518  0.00  0.00    +0.158 A 
ATOM     30  C   UNL     1      10.749   0.729  24.561  0.00  0.00    +0.050 A 
BRANCH  28  31
ATOM     31  O   UNL     1       9.476   2.236  21.484  0.00  0.00    -0.503 OA
ATOM     32  H   UNL     1       9.386   1.675  20.687  0.00  0.00    +0.292 HD
ENDBRANCH  28  31
BRANCH  29  33
ATOM     33  O   UNL     1      11.237   2.823  23.452  0.00  0.00    -0.503 OA
ATOM     34  H   UNL     1      11.967   2.730  22.815  0.00  0.00    +0.292 HD
ENDBRANCH  29  33
ENDBRANCH  14  26
BRANCH  20  35
ATOM     35  O   UNL     1       5.712  -6.407  20.799  0.00  0.00    -0.507 OA
ATOM     36  H   UNL     1       4.790  -6.715  20.762  0.00  0.00    +0.292 HD
ENDBRANCH  20  35
BRANCH  18  37
ATOM     37  O   UNL     1       4.579  -5.301  25.261  0.00  0.00    -0.506 OA
ATOM     38  H   UNL     1       3.627  -5.258  25.015  0.00  0.00    +0.292 HD
ENDBRANCH  18  37
ENDBRANCH  13  24
ENDBRANCH   1  13
BRANCH   3  39
ATOM     39  C   UNL     1       7.574   3.386  25.444  0.00  0.00    +0.266 C 
BRANCH  39  40
ATOM     40  O   UNL     1       7.244   4.200  24.321  0.00  0.00    -0.458 OA
BRANCH  40  41
ATOM     41  C   UNL     1       7.362   5.527  24.536  0.00  0.00    +0.340 C 
ATOM     42  O   UNL     1       6.464   6.351  24.535  0.00  0.00    -0.245 OA
BRANCH  41  43
ATOM     43  C   UNL     1       8.788   5.860  24.701  0.00  0.00    +0.066 A 
ATOM     44  C   UNL     1       9.618   5.677  23.589  0.00  0.00    +0.064 A 
ATOM     45  C   UNL     1      10.964   5.973  23.700  0.00  0.00    +0.163 A 
ATOM     46  C   UNL     1      11.483   6.457  24.895  0.00  0.00    +0.201 A 
ATOM     47  C   UNL     1      10.656   6.640  26.001  0.00  0.00    +0.163 A 
ATOM     48  C   UNL     1       9.300   6.346  25.917  0.00  0.00    +0.064 A 
BRANCH  45  49
ATOM     49  O   UNL     1      11.778   5.773  22.625  0.00  0.00    -0.503 OA
ATOM     50  H   UNL     1      12.604   6.246  22.849  0.00  0.00    +0.292 HD
ENDBRANCH  45  49
BRANCH  46  51
ATOM     51  O   UNL     1      12.818   6.742  24.968  0.00  0.00    -0.501 OA
ATOM     52  H   UNL     1      13.062   6.516  25.890  0.00  0.00    +0.292 HD
ENDBRANCH  46  51
BRANCH  47  53
ATOM     53  O   UNL     1      11.232   7.104  27.152  0.00  0.00    -0.503 OA
ATOM     54  H   UNL     1      10.754   6.721  27.909  0.00  0.00    +0.292 HD
ENDBRANCH  47  53
ENDBRANCH  41  43
ENDBRANCH  40  41
ENDBRANCH  39  40
ENDBRANCH   3  39
TORSDOF 17
ENDMDL
MODEL 9
REMARK VINA RESULT:      -7.0      2.248      7.997
REMARK  Name = 
REMARK  17 active torsions:
REMARK  status: ('A' for Active; 'I' for Inactive)
REMARK    1  A    between atoms: C_3  and  O_49
REMARK    2  A    between atoms: C_4  and  O_48
REMARK    3  A    between atoms: C_6  and  C_7
REMARK    4  A    between atoms: C_8  and  O_20
REMARK    5  A    between atoms: C_12  and  O_19
REMARK    6  A    between atoms: C_14  and  O_18
REMARK    7  A    between atoms: O_20  and  C_21
REMARK    8  A    between atoms: C_23  and  O_47
REMARK    9  A    between atoms: C_25  and  O_46
REMARK   10  A    between atoms: C_27  and  O_45
REMARK   11  A    between atoms: C_29  and  C_32
REMARK   12  A    between atoms: C_32  and  O_33
REMARK   13  A    between atoms: O_33  and  C_34
REMARK   14  A    between atoms: C_34  and  C_36
REMARK   15  A    between atoms: C_38  and  O_44
REMARK   16  A    between atoms: C_39  and  O_43
REMARK   17  A    between atoms: C_40  and  O_42
REMARK                            x       y       z     vdW  Elec       q    Type
REMARK                         _______ _______ _______ _____ _____    ______ ____
ROOT
ATOM      1  C   UNL     1       8.134   2.094  22.848  0.00  0.00    +0.340 C 
ATOM      2  O   UNL     1       7.669   0.793  22.505  0.00  0.00    -0.330 OA
ATOM      3  C   UNL     1       8.555  -0.310  22.286  0.00  0.00    +0.191 C 
ATOM      4  C   UNL     1       9.948  -0.259  22.969  0.00  0.00    +0.178 C 
ATOM      5  C   UNL     1      10.084   0.952  23.884  0.00  0.00    +0.180 C 
ATOM      6  C   UNL     1       9.644   2.190  23.103  0.00  0.00    +0.214 C 
ENDROOT
BRANCH   4   7
ATOM      7  O   UNL     1      10.290  -1.439  23.708  0.00  0.00    -0.386 OA
ATOM      8  H   UNL     1      10.696  -1.123  24.540  0.00  0.00    +0.210 HD
ENDBRANCH   4   7
BRANCH   5   9
ATOM      9  O   UNL     1       9.341   0.714  25.085  0.00  0.00    -0.386 OA
ATOM     10  H   UNL     1       9.336  -0.241  25.287  0.00  0.00    +0.210 HD
ENDBRANCH   5   9
BRANCH   6  11
ATOM     11  O   UNL     1      10.380   2.268  21.874  0.00  0.00    -0.383 OA
ATOM     12  H   UNL     1      10.124   1.507  21.321  0.00  0.00    +0.210 HD
ENDBRANCH   6  11
BRANCH   1  13
ATOM     13  O   UNL     1       7.448   2.431  24.062  0.00  0.00    -0.453 OA
BRANCH  13  24
ATOM     14  C   UNL     1       5.128   2.214  24.585  0.00  0.00    +0.181 A 
ATOM     15  O   UNL     1       3.788   2.598  24.502  0.00  0.00    -0.451 OA
ATOM     16  C   UNL     1       3.462   3.643  23.666  0.00  0.00    +0.147 A 
ATOM     17  C   UNL     1       4.420   4.505  23.146  0.00  0.00    +0.109 A 
ATOM     18  C   UNL     1       4.056   5.591  22.341  0.00  0.00    +0.135 A 
ATOM     19  C   UNL     1       2.725   5.817  22.037  0.00  0.00    +0.091 A 
ATOM     20  C   UNL     1       1.766   4.948  22.548  0.00  0.00    +0.124 A 
ATOM     21  C   UNL     1       5.817   4.235  23.442  0.00  0.00    +0.238 A 
ATOM     22  O   UNL     1       6.645   5.111  23.211  0.00  0.00    -0.283 OA
ATOM     23  C   UNL     1       2.120   3.867  23.361  0.00  0.00    +0.092 A 
ATOM     24  C   UNL     1       6.151   2.912  24.034  0.00  0.00    +0.214 A 
BRANCH  14  26
ATOM     25  C   UNL     1       5.537  -0.262  24.872  0.00  0.00    +0.015 A 
ATOM     26  C   UNL     1       5.381   1.019  25.447  0.00  0.00    +0.025 A 
ATOM     27  C   UNL     1       5.341   1.109  26.846  0.00  0.00    +0.060 A 
ATOM     28  C   UNL     1       5.320  -0.045  27.626  0.00  0.00    +0.159 A 
ATOM     29  C   UNL     1       5.391  -1.304  27.043  0.00  0.00    +0.158 A 
ATOM     30  C   UNL     1       5.539  -1.425  25.665  0.00  0.00    +0.050 A 
BRANCH  28  31
ATOM     31  O   UNL     1       5.177   0.073  28.979  0.00  0.00    -0.503 OA
ATOM     32  H   UNL     1       4.654   0.891  29.099  0.00  0.00    +0.292 HD
ENDBRANCH  28  31
BRANCH  29  33
ATOM     33  O   UNL     1       5.281  -2.391  27.868  0.00  0.00    -0.503 OA
ATOM     34  H   UNL     1       5.649  -2.156  28.737  0.00  0.00    +0.292 HD
ENDBRANCH  29  33
ENDBRANCH  14  26
BRANCH  20  35
ATOM     35  O   UNL     1       0.443   5.139  22.277  0.00  0.00    -0.507 OA
ATOM     36  H   UNL     1       0.119   5.890  22.802  0.00  0.00    +0.292 HD
ENDBRANCH  20  35
BRANCH  18  37
ATOM     37  O   UNL     1       4.960   6.483  21.825  0.00  0.00    -0.506 OA
ATOM     38  H   UNL     1       5.255   6.149  20.947  0.00  0.00    +0.292 HD
ENDBRANCH  18  37
ENDBRANCH  13  24
ENDBRANCH   1  13
BRANCH   3  39
ATOM     39  C   UNL     1       7.701  -1.520  22.695  0.00  0.00    +0.266 C 
BRANCH  39  40
ATOM     40  O   UNL     1       8.225  -2.776  22.275  0.00  0.00    -0.458 OA
BRANCH  40  41
ATOM     41  C   UNL     1       7.367  -3.811  22.395  0.00  0.00    +0.340 C 
ATOM     42  O   UNL     1       6.583  -4.213  21.552  0.00  0.00    -0.245 OA
BRANCH  41  43
ATOM     43  C   UNL     1       7.463  -4.356  23.760  0.00  0.00    +0.066 A 
ATOM     44  C   UNL     1       8.740  -4.687  24.226  0.00  0.00    +0.064 A 
ATOM     45  C   UNL     1       8.877  -5.205  25.501  0.00  0.00    +0.163 A 
ATOM     46  C   UNL     1       7.762  -5.385  26.312  0.00  0.00    +0.201 A 
ATOM     47  C   UNL     1       6.491  -5.055  25.848  0.00  0.00    +0.163 A 
ATOM     48  C   UNL     1       6.326  -4.536  24.569  0.00  0.00    +0.064 A 
BRANCH  45  49
ATOM     49  O   UNL     1      10.118  -5.550  25.948  0.00  0.00    -0.503 OA
ATOM     50  H   UNL     1       9.977  -5.843  26.870  0.00  0.00    +0.292 HD
ENDBRANCH  45  49
BRANCH  46  51
ATOM     51  O   UNL     1       7.935  -5.898  27.568  0.00  0.00    -0.501 OA
ATOM     52  H   UNL     1       8.803  -6.351  27.525  0.00  0.00    +0.292 HD
ENDBRANCH  46  51
BRANCH  47  53
ATOM     53  O   UNL     1       5.435  -5.271  26.689  0.00  0.00    -0.503 OA
ATOM     54  H   UNL     1       4.932  -6.037  26.358  0.00  0.00    +0.292 HD
ENDBRANCH  47  53
ENDBRANCH  41  43
ENDBRANCH  40  41
ENDBRANCH  39  40
ENDBRANCH   3  39
TORSDOF 17
ENDMDL
