MODEL 1
REMARK VINA RESULT:      -7.4      0.000      0.000
REMARK  Name = 
REMARK  20 active torsions:
REMARK  status: ('A' for Active; 'I' for Inactive)
REMARK    1  A    between atoms: C_1  and  C_2
REMARK    2  A    between atoms: C_4  and  O_65
REMARK    3  A    between atoms: C_6  and  O_64
REMARK    4  A    between atoms: C_8  and  O_63
REMARK    5  A    between atoms: C_10  and  O_13
REMARK    6  A    between atoms: O_13  and  C_14
REMARK    7  A    between atoms: C_16  and  O_62
REMARK    8  A    between atoms: C_18  and  O_61
REMARK    9  A    between atoms: C_22  and  O_24
REMARK   10  A    between atoms: O_24  and  C_25
REMARK   11  A    between atoms: C_26  and  C_53
REMARK   12  A    between atoms: C_30  and  O_37
REMARK   13  A    between atoms: C_32  and  O_36
REMARK   14  A    between atoms: O_37  and  C_38
REMARK   15  A    between atoms: C_40  and  O_52
REMARK   16  A    between atoms: C_42  and  O_51
REMARK   17  A    between atoms: C_44  and  O_50
REMARK   18  A    between atoms: C_46  and  C_49
REMARK   19  A    between atoms: C_55  and  O_60
REMARK   20  A    between atoms: C_56  and  O_59
REMARK                            x       y       z     vdW  Elec       q    Type
REMARK                         _______ _______ _______ _____ _____    ______ ____
ROOT
ATOM      1  C   UNL     1       5.456  -4.464  26.856  0.00  0.00    +0.214 A 
ATOM      2  C   UNL     1       6.812  -4.685  26.213  0.00  0.00    +0.238 A 
ATOM      3  O   UNL     1       7.117  -5.825  25.866  0.00  0.00    -0.283 OA
ATOM      4  C   UNL     1       7.675  -3.492  25.968  0.00  0.00    +0.109 A 
ATOM      5  C   UNL     1       7.215  -2.283  26.455  0.00  0.00    +0.147 A 
ATOM      6  C   UNL     1       7.876  -1.074  26.189  0.00  0.00    +0.093 A 
ATOM      7  C   UNL     1       9.055  -1.060  25.454  0.00  0.00    +0.131 A 
ATOM      8  C   UNL     1       9.566  -2.282  24.997  0.00  0.00    +0.092 A 
ATOM      9  O   UNL     1       6.100  -2.163  27.223  0.00  0.00    -0.451 OA
ATOM     10  C   UNL     1       8.887  -3.494  25.259  0.00  0.00    +0.135 A 
ATOM     11  C   UNL     1       5.208  -3.216  27.338  0.00  0.00    +0.181 A 
ENDROOT
BRANCH  11  12
ATOM     12  C   UNL     1       4.007  -2.660  28.003  0.00  0.00    +0.025 A 
ATOM     13  C   UNL     1       3.748  -3.020  29.338  0.00  0.00    +0.015 A 
ATOM     14  C   UNL     1       2.543  -2.667  29.955  0.00  0.00    +0.050 A 
ATOM     15  C   UNL     1       1.604  -1.933  29.248  0.00  0.00    +0.158 A 
ATOM     16  C   UNL     1       1.843  -1.561  27.931  0.00  0.00    +0.159 A 
ATOM     17  C   UNL     1       3.013  -1.966  27.284  0.00  0.00    +0.060 A 
BRANCH  16  18
ATOM     18  O   UNL     1       0.914  -0.758  27.328  0.00  0.00    -0.503 OA
ATOM     19  H   UNL     1       1.042   0.154  27.647  0.00  0.00    +0.292 HD
ENDBRANCH  16  18
BRANCH  15  20
ATOM     20  O   UNL     1       0.443  -1.566  29.867  0.00  0.00    -0.503 OA
ATOM     21  H   UNL     1       0.551  -0.615  30.067  0.00  0.00    +0.292 HD
ENDBRANCH  15  20
ENDBRANCH  11  12
BRANCH  10  22
ATOM     22  O   UNL     1       9.428  -4.661  24.794  0.00  0.00    -0.506 OA
ATOM     23  H   UNL     1      10.382  -4.692  24.962  0.00  0.00    +0.292 HD
ENDBRANCH  10  22
BRANCH   7  24
ATOM     24  O   UNL     1       9.736   0.087  25.110  0.00  0.00    -0.461 OA
BRANCH  24  25
ATOM     25  C   UNL     1      10.124   0.206  23.725  0.00  0.00    +0.339 C 
ATOM     26  O   UNL     1      10.994   1.317  23.456  0.00  0.00    -0.334 OA
ATOM     27  C   UNL     1      10.395   2.600  23.637  0.00  0.00    +0.150 C 
ATOM     28  C   UNL     1      11.463   3.652  23.341  0.00  0.00    +0.041 C 
ATOM     29  C   UNL     1       9.187   2.804  22.713  0.00  0.00    +0.174 C 
ATOM     30  C   UNL     1       8.190   1.641  22.845  0.00  0.00    +0.180 C 
ATOM     31  C   UNL     1       8.887   0.267  22.799  0.00  0.00    +0.214 C 
BRANCH  31  32
ATOM     32  O   UNL     1       9.278  -0.061  21.450  0.00  0.00    -0.383 OA
ATOM     33  H   UNL     1       8.630  -0.689  21.084  0.00  0.00    +0.210 HD
ENDBRANCH  31  32
BRANCH  30  34
ATOM     34  O   UNL     1       7.231   1.747  21.779  0.00  0.00    -0.386 OA
ATOM     35  H   UNL     1       7.086   2.688  21.586  0.00  0.00    +0.210 HD
ENDBRANCH  30  34
BRANCH  29  36
ATOM     36  O   UNL     1       8.549   4.060  22.985  0.00  0.00    -0.387 OA
ATOM     37  H   UNL     1       8.452   4.170  23.945  0.00  0.00    +0.210 HD
ENDBRANCH  29  36
ENDBRANCH  24  25
ENDBRANCH   7  24
BRANCH   1  38
ATOM     38  O   UNL     1       4.685  -5.610  26.830  0.00  0.00    -0.453 OA
BRANCH  38  40
ATOM     39  C   UNL     1       3.189  -5.824  24.875  0.00  0.00    +0.221 C 
ATOM     40  C   UNL     1       3.322  -5.646  26.428  0.00  0.00    +0.340 C 
ATOM     41  O   UNL     1       2.686  -6.772  27.044  0.00  0.00    -0.337 OA
ATOM     42  C   UNL     1       1.269  -6.760  26.848  0.00  0.00    +0.198 C 
ATOM     43  C   UNL     1       0.988  -7.034  25.386  0.00  0.00    +0.171 C 
ATOM     44  C   UNL     1       1.678  -5.948  24.557  0.00  0.00    +0.180 C 
BRANCH  44  45
ATOM     45  O   UNL     1       1.472  -6.179  23.160  0.00  0.00    -0.386 OA
ATOM     46  H   UNL     1       2.110  -6.877  22.914  0.00  0.00    +0.210 HD
ENDBRANCH  44  45
BRANCH  43  47
ATOM     47  O   UNL     1       1.487  -8.343  25.080  0.00  0.00    -0.387 OA
ATOM     48  H   UNL     1       0.807  -8.805  24.554  0.00  0.00    +0.210 HD
ENDBRANCH  43  47
BRANCH  39  49
ATOM     49  O   UNL     1       3.630  -4.756  24.025  0.00  0.00    -0.337 OA
BRANCH  49  53
ATOM     50  C   UNL     1       7.011  -2.918  22.334  0.00  0.00    +0.041 C 
ATOM     51  C   UNL     1       6.022  -3.754  21.526  0.00  0.00    +0.149 C 
ATOM     52  O   UNL     1       4.805  -3.946  22.265  0.00  0.00    -0.343 OA
ATOM     53  C   UNL     1       4.895  -4.859  23.378  0.00  0.00    +0.282 C 
ATOM     54  C   UNL     1       5.270  -6.260  22.831  0.00  0.00    +0.201 C 
ATOM     55  C   UNL     1       6.630  -6.155  22.108  0.00  0.00    +0.179 C 
ATOM     56  C   UNL     1       6.568  -5.096  20.997  0.00  0.00    +0.174 C 
BRANCH  56  57
ATOM     57  O   UNL     1       5.737  -5.570  19.926  0.00  0.00    -0.387 OA
ATOM     58  H   UNL     1       4.833  -5.237  20.075  0.00  0.00    +0.210 HD
ENDBRANCH  56  57
BRANCH  55  59
ATOM     59  O   UNL     1       7.690  -5.767  22.993  0.00  0.00    -0.386 OA
ATOM     60  H   UNL     1       7.986  -4.848  22.832  0.00  0.00    +0.210 HD
ENDBRANCH  55  59
BRANCH  54  61
ATOM     61  O   UNL     1       5.308  -7.292  23.823  0.00  0.00    -0.384 OA
ATOM     62  H   UNL     1       4.434  -7.401  24.242  0.00  0.00    +0.210 HD
ENDBRANCH  54  61
ENDBRANCH  49  53
ENDBRANCH  39  49
ENDBRANCH  38  40
ENDBRANCH   1  38
TORSDOF 18
ENDMDL
MODEL 2
REMARK VINA RESULT:      -7.2      2.973      9.431
REMARK  Name = 
REMARK  20 active torsions:
REMARK  status: ('A' for Active; 'I' for Inactive)
REMARK    1  A    between atoms: C_1  and  C_2
REMARK    2  A    between atoms: C_4  and  O_65
REMARK    3  A    between atoms: C_6  and  O_64
REMARK    4  A    between atoms: C_8  and  O_63
REMARK    5  A    between atoms: C_10  and  O_13
REMARK    6  A    between atoms: O_13  and  C_14
REMARK    7  A    between atoms: C_16  and  O_62
REMARK    8  A    between atoms: C_18  and  O_61
REMARK    9  A    between atoms: C_22  and  O_24
REMARK   10  A    between atoms: O_24  and  C_25
REMARK   11  A    between atoms: C_26  and  C_53
REMARK   12  A    between atoms: C_30  and  O_37
REMARK   13  A    between atoms: C_32  and  O_36
REMARK   14  A    between atoms: O_37  and  C_38
REMARK   15  A    between atoms: C_40  and  O_52
REMARK   16  A    between atoms: C_42  and  O_51
REMARK   17  A    between atoms: C_44  and  O_50
REMARK   18  A    between atoms: C_46  and  C_49
REMARK   19  A    between atoms: C_55  and  O_60
REMARK   20  A    between atoms: C_56  and  O_59
REMARK                            x       y       z     vdW  Elec       q    Type
REMARK                         _______ _______ _______ _____ _____    ______ ____
ROOT
ATOM      1  C   UNL     1       8.675   1.615  23.562  0.00  0.00    +0.214 A 
ATOM      2  C   UNL     1       9.446   0.309  23.593  0.00  0.00    +0.238 A 
ATOM      3  O   UNL     1      10.624   0.334  23.948  0.00  0.00    -0.283 OA
ATOM      4  C   UNL     1       8.713  -0.948  23.262  0.00  0.00    +0.109 A 
ATOM      5  C   UNL     1       7.405  -0.809  22.839  0.00  0.00    +0.147 A 
ATOM      6  C   UNL     1       6.575  -1.918  22.610  0.00  0.00    +0.093 A 
ATOM      7  C   UNL     1       7.064  -3.209  22.763  0.00  0.00    +0.131 A 
ATOM      8  C   UNL     1       8.404  -3.371  23.140  0.00  0.00    +0.092 A 
ATOM      9  O   UNL     1       6.818   0.395  22.609  0.00  0.00    -0.451 OA
ATOM     10  C   UNL     1       9.229  -2.248  23.381  0.00  0.00    +0.135 A 
ATOM     11  C   UNL     1       7.417   1.565  23.046  0.00  0.00    +0.181 A 
ENDROOT
BRANCH  11  12
ATOM     12  C   UNL     1       6.400   2.629  22.877  0.00  0.00    +0.025 A 
ATOM     13  C   UNL     1       6.781   3.834  22.261  0.00  0.00    +0.015 A 
ATOM     14  C   UNL     1       5.915   4.932  22.235  0.00  0.00    +0.050 A 
ATOM     15  C   UNL     1       4.655   4.820  22.802  0.00  0.00    +0.158 A 
ATOM     16  C   UNL     1       4.256   3.636  23.411  0.00  0.00    +0.159 A 
ATOM     17  C   UNL     1       5.139   2.557  23.502  0.00  0.00    +0.060 A 
BRANCH  16  18
ATOM     18  O   UNL     1       2.967   3.568  23.864  0.00  0.00    -0.503 OA
ATOM     19  H   UNL     1       2.982   3.279  24.794  0.00  0.00    +0.292 HD
ENDBRANCH  16  18
BRANCH  15  20
ATOM     20  O   UNL     1       3.803   5.886  22.746  0.00  0.00    -0.503 OA
ATOM     21  H   UNL     1       3.424   5.861  21.845  0.00  0.00    +0.292 HD
ENDBRANCH  15  20
ENDBRANCH  11  12
BRANCH  10  22
ATOM     22  O   UNL     1      10.530  -2.459  23.745  0.00  0.00    -0.506 OA
ATOM     23  H   UNL     1      10.681  -2.191  24.664  0.00  0.00    +0.292 HD
ENDBRANCH  10  22
BRANCH   7  24
ATOM     24  O   UNL     1       6.302  -4.346  22.605  0.00  0.00    -0.461 OA
BRANCH  24  25
ATOM     25  C   UNL     1       4.939  -4.270  23.077  0.00  0.00    +0.339 C 
ATOM     26  O   UNL     1       4.811  -3.754  24.411  0.00  0.00    -0.334 OA
ATOM     27  C   UNL     1       5.360  -4.590  25.428  0.00  0.00    +0.150 C 
ATOM     28  C   UNL     1       5.165  -3.876  26.765  0.00  0.00    +0.041 C 
ATOM     29  C   UNL     1       4.683  -5.966  25.466  0.00  0.00    +0.174 C 
ATOM     30  C   UNL     1       4.684  -6.618  24.073  0.00  0.00    +0.180 C 
ATOM     31  C   UNL     1       4.232  -5.641  22.970  0.00  0.00    +0.214 C 
BRANCH  31  32
ATOM     32  O   UNL     1       2.803  -5.451  23.014  0.00  0.00    -0.383 OA
ATOM     33  H   UNL     1       2.407  -6.196  23.501  0.00  0.00    +0.210 HD
ENDBRANCH  31  32
BRANCH  30  34
ATOM     34  O   UNL     1       3.814  -7.763  24.110  0.00  0.00    -0.386 OA
ATOM     35  H   UNL     1       2.893  -7.452  24.083  0.00  0.00    +0.210 HD
ENDBRANCH  30  34
BRANCH  29  36
ATOM     36  O   UNL     1       5.318  -6.817  26.431  0.00  0.00    -0.387 OA
ATOM     37  H   UNL     1       5.025  -7.733  26.295  0.00  0.00    +0.210 HD
ENDBRANCH  29  36
ENDBRANCH  24  25
ENDBRANCH   7  24
BRANCH   1  38
ATOM     38  O   UNL     1       9.413   2.657  24.088  0.00  0.00    -0.453 OA
BRANCH  38  40
ATOM     39  C   UNL     1       8.337   4.280  25.610  0.00  0.00    +0.221 C 
ATOM     40  C   UNL     1       8.943   3.995  24.192  0.00  0.00    +0.340 C 
ATOM     41  O   UNL     1      10.045   4.890  24.009  0.00  0.00    -0.337 OA
ATOM     42  C   UNL     1       9.619   6.251  23.900  0.00  0.00    +0.198 C 
ATOM     43  C   UNL     1       9.104   6.699  25.251  0.00  0.00    +0.171 C 
ATOM     44  C   UNL     1       7.948   5.778  25.648  0.00  0.00    +0.180 C 
BRANCH  44  45
ATOM     45  O   UNL     1       7.444   6.137  26.939  0.00  0.00    -0.386 OA
ATOM     46  H   UNL     1       6.578   5.691  27.014  0.00  0.00    +0.210 HD
ENDBRANCH  44  45
BRANCH  43  47
ATOM     47  O   UNL     1      10.192   6.628  26.182  0.00  0.00    -0.387 OA
ATOM     48  H   UNL     1      10.282   5.698  26.465  0.00  0.00    +0.210 HD
ENDBRANCH  43  47
BRANCH  39  49
ATOM     49  O   UNL     1       7.129   3.603  25.985  0.00  0.00    -0.337 OA
BRANCH  49  53
ATOM     50  C   UNL     1       7.742  -0.467  26.834  0.00  0.00    +0.041 C 
ATOM     51  C   UNL     1       6.404   0.238  27.041  0.00  0.00    +0.149 C 
ATOM     52  O   UNL     1       6.385   1.493  26.345  0.00  0.00    -0.343 OA
ATOM     53  C   UNL     1       7.193   2.537  26.928  0.00  0.00    +0.282 C 
ATOM     54  C   UNL     1       6.646   2.844  28.344  0.00  0.00    +0.201 C 
ATOM     55  C   UNL     1       6.732   1.556  29.192  0.00  0.00    +0.179 C 
ATOM     56  C   UNL     1       5.968   0.411  28.511  0.00  0.00    +0.174 C 
BRANCH  56  57
ATOM     57  O   UNL     1       4.557   0.671  28.572  0.00  0.00    -0.387 OA
ATOM     58  H   UNL     1       4.391   1.533  28.147  0.00  0.00    +0.210 HD
ENDBRANCH  56  57
BRANCH  55  59
ATOM     59  O   UNL     1       8.084   1.108  29.367  0.00  0.00    -0.386 OA
ATOM     60  H   UNL     1       8.136   0.303  29.921  0.00  0.00    +0.210 HD
ENDBRANCH  55  59
BRANCH  54  61
ATOM     61  O   UNL     1       7.302   3.928  29.011  0.00  0.00    -0.384 OA
ATOM     62  H   UNL     1       7.064   4.781  28.601  0.00  0.00    +0.210 HD
ENDBRANCH  54  61
ENDBRANCH  49  53
ENDBRANCH  39  49
ENDBRANCH  38  40
ENDBRANCH   1  38
TORSDOF 18
ENDMDL
MODEL 3
REMARK VINA RESULT:      -7.0      3.436     10.065
REMARK  Name = 
REMARK  20 active torsions:
REMARK  status: ('A' for Active; 'I' for Inactive)
REMARK    1  A    between atoms: C_1  and  C_2
REMARK    2  A    between atoms: C_4  and  O_65
REMARK    3  A    between atoms: C_6  and  O_64
REMARK    4  A    between atoms: C_8  and  O_63
REMARK    5  A    between atoms: C_10  and  O_13
REMARK    6  A    between atoms: O_13  and  C_14
REMARK    7  A    between atoms: C_16  and  O_62
REMARK    8  A    between atoms: C_18  and  O_61
REMARK    9  A    between atoms: C_22  and  O_24
REMARK   10  A    between atoms: O_24  and  C_25
REMARK   11  A    between atoms: C_26  and  C_53
REMARK   12  A    between atoms: C_30  and  O_37
REMARK   13  A    between atoms: C_32  and  O_36
REMARK   14  A    between atoms: O_37  and  C_38
REMARK   15  A    between atoms: C_40  and  O_52
REMARK   16  A    between atoms: C_42  and  O_51
REMARK   17  A    between atoms: C_44  and  O_50
REMARK   18  A    between atoms: C_46  and  C_49
REMARK   19  A    between atoms: C_55  and  O_60
REMARK   20  A    between atoms: C_56  and  O_59
REMARK                            x       y       z     vdW  Elec       q    Type
REMARK                         _______ _______ _______ _____ _____    ______ ____
ROOT
ATOM      1  C   UNL     1       8.288   1.147  24.141  0.00  0.00    +0.214 A 
ATOM      2  C   UNL     1       9.080  -0.135  23.965  0.00  0.00    +0.238 A 
ATOM      3  O   UNL     1      10.296  -0.103  24.154  0.00  0.00    -0.283 OA
ATOM      4  C   UNL     1       8.331  -1.386  23.646  0.00  0.00    +0.109 A 
ATOM      5  C   UNL     1       6.974  -1.254  23.420  0.00  0.00    +0.147 A 
ATOM      6  C   UNL     1       6.141  -2.367  23.226  0.00  0.00    +0.093 A 
ATOM      7  C   UNL     1       6.670  -3.651  23.211  0.00  0.00    +0.131 A 
ATOM      8  C   UNL     1       8.052  -3.802  23.386  0.00  0.00    +0.092 A 
ATOM      9  O   UNL     1       6.339  -0.054  23.365  0.00  0.00    -0.451 OA
ATOM     10  C   UNL     1       8.882  -2.676  23.594  0.00  0.00    +0.135 A 
ATOM     11  C   UNL     1       6.971   1.098  23.802  0.00  0.00    +0.181 A 
ENDROOT
BRANCH  11  12
ATOM     12  C   UNL     1       5.922   2.142  23.857  0.00  0.00    +0.025 A 
ATOM     13  C   UNL     1       5.036   2.151  24.948  0.00  0.00    +0.015 A 
ATOM     14  C   UNL     1       3.923   2.999  24.963  0.00  0.00    +0.050 A 
ATOM     15  C   UNL     1       3.707   3.858  23.898  0.00  0.00    +0.158 A 
ATOM     16  C   UNL     1       4.574   3.870  22.812  0.00  0.00    +0.159 A 
ATOM     17  C   UNL     1       5.649   2.980  22.757  0.00  0.00    +0.060 A 
BRANCH  16  18
ATOM     18  O   UNL     1       4.351   4.810  21.843  0.00  0.00    -0.503 OA
ATOM     19  H   UNL     1       5.020   4.697  21.144  0.00  0.00    +0.292 HD
ENDBRANCH  16  18
BRANCH  15  20
ATOM     20  O   UNL     1       2.636   4.705  23.933  0.00  0.00    -0.503 OA
ATOM     21  H   UNL     1       2.151   4.467  24.747  0.00  0.00    +0.292 HD
ENDBRANCH  15  20
ENDBRANCH  11  12
BRANCH  10  22
ATOM     22  O   UNL     1      10.225  -2.875  23.756  0.00  0.00    -0.506 OA
ATOM     23  H   UNL     1      10.539  -2.471  24.579  0.00  0.00    +0.292 HD
ENDBRANCH  10  22
BRANCH   7  24
ATOM     24  O   UNL     1       5.914  -4.795  23.076  0.00  0.00    -0.461 OA
BRANCH  24  25
ATOM     25  C   UNL     1       4.503  -4.663  23.353  0.00  0.00    +0.339 C 
ATOM     26  O   UNL     1       4.210  -4.230  24.691  0.00  0.00    -0.334 OA
ATOM     27  C   UNL     1       4.558  -5.166  25.710  0.00  0.00    +0.150 C 
ATOM     28  C   UNL     1       4.209  -4.531  27.056  0.00  0.00    +0.041 C 
ATOM     29  C   UNL     1       3.810  -6.496  25.548  0.00  0.00    +0.174 C 
ATOM     30  C   UNL     1       3.979  -7.052  24.124  0.00  0.00    +0.180 C 
ATOM     31  C   UNL     1       3.746  -5.976  23.045  0.00  0.00    +0.214 C 
BRANCH  31  32
ATOM     32  O   UNL     1       2.339  -5.699  22.900  0.00  0.00    -0.383 OA
ATOM     33  H   UNL     1       2.235  -4.782  22.587  0.00  0.00    +0.210 HD
ENDBRANCH  31  32
BRANCH  30  34
ATOM     34  O   UNL     1       3.053  -8.138  23.951  0.00  0.00    -0.386 OA
ATOM     35  H   UNL     1       3.536  -8.976  24.048  0.00  0.00    +0.210 HD
ENDBRANCH  30  34
BRANCH  29  36
ATOM     36  O   UNL     1       4.250  -7.447  26.527  0.00  0.00    -0.387 OA
ATOM     37  H   UNL     1       5.093  -7.837  26.240  0.00  0.00    +0.210 HD
ENDBRANCH  29  36
ENDBRANCH  24  25
ENDBRANCH   7  24
BRANCH   1  38
ATOM     38  O   UNL     1       9.074   2.169  24.636  0.00  0.00    -0.453 OA
BRANCH  38  40
ATOM     39  C   UNL     1       9.044   4.631  24.422  0.00  0.00    +0.221 C 
ATOM     40  C   UNL     1       9.551   3.259  23.856  0.00  0.00    +0.340 C 
ATOM     41  O   UNL     1      10.981   3.276  23.909  0.00  0.00    -0.337 OA
ATOM     42  C   UNL     1      11.540   4.218  22.989  0.00  0.00    +0.198 C 
ATOM     43  C   UNL     1      11.217   5.612  23.481  0.00  0.00    +0.171 C 
ATOM     44  C   UNL     1       9.694   5.746  23.566  0.00  0.00    +0.180 C 
BRANCH  44  45
ATOM     45  O   UNL     1       9.332   7.039  24.060  0.00  0.00    -0.386 OA
ATOM     46  H   UNL     1       9.589   7.040  25.002  0.00  0.00    +0.210 HD
ENDBRANCH  44  45
BRANCH  43  47
ATOM     47  O   UNL     1      11.844   5.784  24.759  0.00  0.00    -0.387 OA
ATOM     48  H   UNL     1      11.871   4.912  25.197  0.00  0.00    +0.210 HD
ENDBRANCH  43  47
BRANCH  39  49
ATOM     49  O   UNL     1       7.641   4.922  24.353  0.00  0.00    -0.337 OA
BRANCH  49  53
ATOM     50  C   UNL     1       4.601   6.946  26.434  0.00  0.00    +0.041 C 
ATOM     51  C   UNL     1       6.084   7.106  26.756  0.00  0.00    +0.149 C 
ATOM     52  O   UNL     1       6.890   6.597  25.682  0.00  0.00    -0.343 OA
ATOM     53  C   UNL     1       6.920   5.160  25.559  0.00  0.00    +0.282 C 
ATOM     54  C   UNL     1       7.539   4.572  26.851  0.00  0.00    +0.201 C 
ATOM     55  C   UNL     1       6.661   4.992  28.050  0.00  0.00    +0.179 C 
ATOM     56  C   UNL     1       6.533   6.522  28.112  0.00  0.00    +0.174 C 
BRANCH  56  57
ATOM     57  O   UNL     1       7.793   7.095  28.495  0.00  0.00    -0.387 OA
ATOM     58  H   UNL     1       7.674   8.060  28.575  0.00  0.00    +0.210 HD
ENDBRANCH  56  57
BRANCH  55  59
ATOM     59  O   UNL     1       5.330   4.467  27.962  0.00  0.00    -0.386 OA
ATOM     60  H   UNL     1       4.770   4.755  28.711  0.00  0.00    +0.210 HD
ENDBRANCH  55  59
BRANCH  54  61
ATOM     61  O   UNL     1       7.713   3.150  26.832  0.00  0.00    -0.384 OA
ATOM     62  H   UNL     1       8.659   2.919  26.764  0.00  0.00    +0.210 HD
ENDBRANCH  54  61
ENDBRANCH  49  53
ENDBRANCH  39  49
ENDBRANCH  38  40
ENDBRANCH   1  38
TORSDOF 18
ENDMDL
MODEL 4
REMARK VINA RESULT:      -7.0      2.159      4.346
REMARK  Name = 
REMARK  20 active torsions:
REMARK  status: ('A' for Active; 'I' for Inactive)
REMARK    1  A    between atoms: C_1  and  C_2
REMARK    2  A    between atoms: C_4  and  O_65
REMARK    3  A    between atoms: C_6  and  O_64
REMARK    4  A    between atoms: C_8  and  O_63
REMARK    5  A    between atoms: C_10  and  O_13
REMARK    6  A    between atoms: O_13  and  C_14
REMARK    7  A    between atoms: C_16  and  O_62
REMARK    8  A    between atoms: C_18  and  O_61
REMARK    9  A    between atoms: C_22  and  O_24
REMARK   10  A    between atoms: O_24  and  C_25
REMARK   11  A    between atoms: C_26  and  C_53
REMARK   12  A    between atoms: C_30  and  O_37
REMARK   13  A    between atoms: C_32  and  O_36
REMARK   14  A    between atoms: O_37  and  C_38
REMARK   15  A    between atoms: C_40  and  O_52
REMARK   16  A    between atoms: C_42  and  O_51
REMARK   17  A    between atoms: C_44  and  O_50
REMARK   18  A    between atoms: C_46  and  C_49
REMARK   19  A    between atoms: C_55  and  O_60
REMARK   20  A    between atoms: C_56  and  O_59
REMARK                            x       y       z     vdW  Elec       q    Type
REMARK                         _______ _______ _______ _____ _____    ______ ____
ROOT
ATOM      1  C   UNL     1       6.393  -2.624  26.136  0.00  0.00    +0.214 A 
ATOM      2  C   UNL     1       7.687  -2.859  25.380  0.00  0.00    +0.238 A 
ATOM      3  O   UNL     1       7.911  -3.987  24.940  0.00  0.00    -0.283 OA
ATOM      4  C   UNL     1       8.584  -1.690  25.142  0.00  0.00    +0.109 A 
ATOM      5  C   UNL     1       8.218  -0.497  25.736  0.00  0.00    +0.147 A 
ATOM      6  C   UNL     1       8.913   0.698  25.495  0.00  0.00    +0.093 A 
ATOM      7  C   UNL     1      10.034   0.710  24.675  0.00  0.00    +0.131 A 
ATOM      8  C   UNL     1      10.453  -0.500  24.106  0.00  0.00    +0.092 A 
ATOM      9  O   UNL     1       7.169  -0.380  26.593  0.00  0.00    -0.451 OA
ATOM     10  C   UNL     1       9.739  -1.697  24.344  0.00  0.00    +0.135 A 
ATOM     11  C   UNL     1       6.240  -1.401  26.712  0.00  0.00    +0.181 A 
ENDROOT
BRANCH  11  12
ATOM     12  C   UNL     1       5.118  -0.839  27.500  0.00  0.00    +0.025 A 
ATOM     13  C   UNL     1       3.803  -1.172  27.132  0.00  0.00    +0.015 A 
ATOM     14  C   UNL     1       2.708  -0.534  27.727  0.00  0.00    +0.050 A 
ATOM     15  C   UNL     1       2.926   0.420  28.708  0.00  0.00    +0.158 A 
ATOM     16  C   UNL     1       4.218   0.759  29.090  0.00  0.00    +0.159 A 
ATOM     17  C   UNL     1       5.318   0.178  28.455  0.00  0.00    +0.060 A 
BRANCH  16  18
ATOM     18  O   UNL     1       4.353   1.639  30.130  0.00  0.00    -0.503 OA
ATOM     19  H   UNL     1       4.212   2.541  29.791  0.00  0.00    +0.292 HD
ENDBRANCH  16  18
BRANCH  15  20
ATOM     20  O   UNL     1       1.852   1.016  29.306  0.00  0.00    -0.503 OA
ATOM     21  H   UNL     1       1.326   0.280  29.676  0.00  0.00    +0.292 HD
ENDBRANCH  15  20
ENDBRANCH  11  12
BRANCH  10  22
ATOM     22  O   UNL     1      10.189  -2.853  23.768  0.00  0.00    -0.506 OA
ATOM     23  H   UNL     1       9.472  -3.314  23.308  0.00  0.00    +0.292 HD
ENDBRANCH  10  22
BRANCH   7  24
ATOM     24  O   UNL     1      10.740   1.848  24.350  0.00  0.00    -0.461 OA
BRANCH  24  25
ATOM     25  C   UNL     1      10.284   2.571  23.186  0.00  0.00    +0.339 C 
ATOM     26  O   UNL     1      11.274   3.439  22.613  0.00  0.00    -0.334 OA
ATOM     27  C   UNL     1      11.647   4.542  23.437  0.00  0.00    +0.150 C 
ATOM     28  C   UNL     1      12.722   5.331  22.689  0.00  0.00    +0.041 C 
ATOM     29  C   UNL     1      10.453   5.452  23.753  0.00  0.00    +0.174 C 
ATOM     30  C   UNL     1       9.276   4.639  24.318  0.00  0.00    +0.180 C 
ATOM     31  C   UNL     1       8.994   3.369  23.492  0.00  0.00    +0.214 C 
BRANCH  31  32
ATOM     32  O   UNL     1       8.329   3.702  22.257  0.00  0.00    -0.383 OA
ATOM     33  H   UNL     1       7.414   3.373  22.300  0.00  0.00    +0.210 HD
ENDBRANCH  31  32
BRANCH  30  34
ATOM     34  O   UNL     1       8.113   5.485  24.340  0.00  0.00    -0.386 OA
ATOM     35  H   UNL     1       8.120   6.041  23.542  0.00  0.00    +0.210 HD
ENDBRANCH  30  34
BRANCH  29  36
ATOM     36  O   UNL     1      10.838   6.496  24.658  0.00  0.00    -0.387 OA
ATOM     37  H   UNL     1      10.653   6.215  25.570  0.00  0.00    +0.210 HD
ENDBRANCH  29  36
ENDBRANCH  24  25
ENDBRANCH   7  24
BRANCH   1  38
ATOM     38  O   UNL     1       5.571  -3.733  26.099  0.00  0.00    -0.453 OA
BRANCH  38  40
ATOM     39  C   UNL     1       4.646  -5.891  25.329  0.00  0.00    +0.221 C 
ATOM     40  C   UNL     1       5.417  -4.575  24.964  0.00  0.00    +0.340 C 
ATOM     41  O   UNL     1       4.643  -3.885  23.976  0.00  0.00    -0.337 OA
ATOM     42  C   UNL     1       4.615  -4.587  22.730  0.00  0.00    +0.198 C 
ATOM     43  C   UNL     1       3.796  -5.847  22.911  0.00  0.00    +0.171 C 
ATOM     44  C   UNL     1       4.449  -6.685  24.014  0.00  0.00    +0.180 C 
BRANCH  44  45
ATOM     45  O   UNL     1       3.692  -7.876  24.251  0.00  0.00    -0.386 OA
ATOM     46  H   UNL     1       3.469  -7.859  25.201  0.00  0.00    +0.210 HD
ENDBRANCH  44  45
BRANCH  43  47
ATOM     47  O   UNL     1       2.459  -5.457  23.252  0.00  0.00    -0.387 OA
ATOM     48  H   UNL     1       2.304  -4.568  22.881  0.00  0.00    +0.210 HD
ENDBRANCH  43  47
BRANCH  39  49
ATOM     49  O   UNL     1       5.280  -6.833  26.205  0.00  0.00    -0.337 OA
BRANCH  49  53
ATOM     50  C   UNL     1       2.866  -7.359  29.605  0.00  0.00    +0.041 C 
ATOM     51  C   UNL     1       3.299  -5.989  29.091  0.00  0.00    +0.149 C 
ATOM     52  O   UNL     1       3.795  -6.090  27.747  0.00  0.00    -0.343 OA
ATOM     53  C   UNL     1       5.089  -6.713  27.612  0.00  0.00    +0.282 C 
ATOM     54  C   UNL     1       6.129  -5.850  28.370  0.00  0.00    +0.201 C 
ATOM     55  C   UNL     1       5.716  -5.781  29.856  0.00  0.00    +0.179 C 
ATOM     56  C   UNL     1       4.290  -5.226  29.994  0.00  0.00    +0.174 C 
BRANCH  56  57
ATOM     57  O   UNL     1       4.283  -3.831  29.653  0.00  0.00    -0.387 OA
ATOM     58  H   UNL     1       4.787  -3.350  30.335  0.00  0.00    +0.210 HD
ENDBRANCH  56  57
BRANCH  55  59
ATOM     59  O   UNL     1       5.722  -7.070  30.485  0.00  0.00    -0.386 OA
ATOM     60  H   UNL     1       5.892  -7.791  29.845  0.00  0.00    +0.210 HD
ENDBRANCH  55  59
BRANCH  54  61
ATOM     61  O   UNL     1       7.481  -6.305  28.246  0.00  0.00    -0.384 OA
ATOM     62  H   UNL     1       8.022  -5.988  28.994  0.00  0.00    +0.210 HD
ENDBRANCH  54  61
ENDBRANCH  49  53
ENDBRANCH  39  49
ENDBRANCH  38  40
ENDBRANCH   1  38
TORSDOF 18
ENDMDL
MODEL 5
REMARK VINA RESULT:      -6.8      1.779      4.473
REMARK  Name = 
REMARK  20 active torsions:
REMARK  status: ('A' for Active; 'I' for Inactive)
REMARK    1  A    between atoms: C_1  and  C_2
REMARK    2  A    between atoms: C_4  and  O_65
REMARK    3  A    between atoms: C_6  and  O_64
REMARK    4  A    between atoms: C_8  and  O_63
REMARK    5  A    between atoms: C_10  and  O_13
REMARK    6  A    between atoms: O_13  and  C_14
REMARK    7  A    between atoms: C_16  and  O_62
REMARK    8  A    between atoms: C_18  and  O_61
REMARK    9  A    between atoms: C_22  and  O_24
REMARK   10  A    between atoms: O_24  and  C_25
REMARK   11  A    between atoms: C_26  and  C_53
REMARK   12  A    between atoms: C_30  and  O_37
REMARK   13  A    between atoms: C_32  and  O_36
REMARK   14  A    between atoms: O_37  and  C_38
REMARK   15  A    between atoms: C_40  and  O_52
REMARK   16  A    between atoms: C_42  and  O_51
REMARK   17  A    between atoms: C_44  and  O_50
REMARK   18  A    between atoms: C_46  and  C_49
REMARK   19  A    between atoms: C_55  and  O_60
REMARK   20  A    between atoms: C_56  and  O_59
REMARK                            x       y       z     vdW  Elec       q    Type
REMARK                         _______ _______ _______ _____ _____    ______ ____
ROOT
ATOM      1  C   UNL     1       7.740  -3.602  25.490  0.00  0.00    +0.214 A 
ATOM      2  C   UNL     1       8.920  -3.174  24.637  0.00  0.00    +0.238 A 
ATOM      3  O   UNL     1       9.584  -4.046  24.078  0.00  0.00    -0.283 OA
ATOM      4  C   UNL     1       9.166  -1.713  24.461  0.00  0.00    +0.109 A 
ATOM      5  C   UNL     1       8.361  -0.857  25.189  0.00  0.00    +0.147 A 
ATOM      6  C   UNL     1       8.415   0.536  25.023  0.00  0.00    +0.093 A 
ATOM      7  C   UNL     1       9.323   1.108  24.141  0.00  0.00    +0.131 A 
ATOM      8  C   UNL     1      10.185   0.259  23.433  0.00  0.00    +0.092 A 
ATOM      9  O   UNL     1       7.462  -1.283  26.115  0.00  0.00    -0.451 OA
ATOM     10  C   UNL     1      10.114  -1.144  23.597  0.00  0.00    +0.135 A 
ATOM     11  C   UNL     1       7.109  -2.620  26.190  0.00  0.00    +0.181 A 
ENDROOT
BRANCH  11  12
ATOM     12  C   UNL     1       5.939  -2.681  27.096  0.00  0.00    +0.025 A 
ATOM     13  C   UNL     1       5.205  -1.505  27.328  0.00  0.00    +0.015 A 
ATOM     14  C   UNL     1       4.204  -1.465  28.305  0.00  0.00    +0.050 A 
ATOM     15  C   UNL     1       3.917  -2.608  29.034  0.00  0.00    +0.158 A 
ATOM     16  C   UNL     1       4.626  -3.783  28.815  0.00  0.00    +0.159 A 
ATOM     17  C   UNL     1       5.672  -3.814  27.891  0.00  0.00    +0.060 A 
BRANCH  16  18
ATOM     18  O   UNL     1       4.224  -4.894  29.505  0.00  0.00    -0.503 OA
ATOM     19  H   UNL     1       3.326  -4.737  29.846  0.00  0.00    +0.292 HD
ENDBRANCH  16  18
BRANCH  15  20
ATOM     20  O   UNL     1       2.918  -2.570  29.964  0.00  0.00    -0.503 OA
ATOM     21  H   UNL     1       3.363  -2.718  30.822  0.00  0.00    +0.292 HD
ENDBRANCH  15  20
ENDBRANCH  11  12
BRANCH  10  22
ATOM     22  O   UNL     1      10.979  -1.929  22.885  0.00  0.00    -0.506 OA
ATOM     23  H   UNL     1      11.890  -1.613  22.976  0.00  0.00    +0.292 HD
ENDBRANCH  10  22
BRANCH   7  24
ATOM     24  O   UNL     1       9.405   2.460  23.887  0.00  0.00    -0.461 OA
BRANCH  24  25
ATOM     25  C   UNL     1       8.474   3.300  24.602  0.00  0.00    +0.339 C 
ATOM     26  O   UNL     1       7.158   3.335  24.027  0.00  0.00    -0.334 OA
ATOM     27  C   UNL     1       7.086   3.954  22.743  0.00  0.00    +0.150 C 
ATOM     28  C   UNL     1       5.633   3.874  22.275  0.00  0.00    +0.041 C 
ATOM     29  C   UNL     1       7.544   5.417  22.785  0.00  0.00    +0.174 C 
ATOM     30  C   UNL     1       8.926   5.543  23.446  0.00  0.00    +0.180 C 
ATOM     31  C   UNL     1       9.022   4.738  24.757  0.00  0.00    +0.214 C 
BRANCH  31  32
ATOM     32  O   UNL     1       8.318   5.410  25.820  0.00  0.00    -0.383 OA
ATOM     33  H   UNL     1       7.513   4.903  26.027  0.00  0.00    +0.210 HD
ENDBRANCH  31  32
BRANCH  30  34
ATOM     34  O   UNL     1       9.180   6.936  23.700  0.00  0.00    -0.386 OA
ATOM     35  H   UNL     1       9.483   7.033  24.618  0.00  0.00    +0.210 HD
ENDBRANCH  30  34
BRANCH  29  36
ATOM     36  O   UNL     1       7.551   5.984  21.466  0.00  0.00    -0.387 OA
ATOM     37  H   UNL     1       7.769   5.291  20.821  0.00  0.00    +0.210 HD
ENDBRANCH  29  36
ENDBRANCH  24  25
ENDBRANCH   7  24
BRANCH   1  38
ATOM     38  O   UNL     1       7.507  -4.960  25.396  0.00  0.00    -0.453 OA
BRANCH  38  40
ATOM     39  C   UNL     1       5.389  -4.792  24.134  0.00  0.00    +0.221 C 
ATOM     40  C   UNL     1       6.732  -5.567  24.369  0.00  0.00    +0.340 C 
ATOM     41  O   UNL     1       7.472  -5.525  23.144  0.00  0.00    -0.337 OA
ATOM     42  C   UNL     1       6.845  -6.293  22.113  0.00  0.00    +0.198 C 
ATOM     43  C   UNL     1       5.568  -5.591  21.704  0.00  0.00    +0.171 C 
ATOM     44  C   UNL     1       4.673  -5.473  22.940  0.00  0.00    +0.180 C 
BRANCH  44  45
ATOM     45  O   UNL     1       3.462  -4.782  22.617  0.00  0.00    -0.386 OA
ATOM     46  H   UNL     1       2.816  -5.479  22.393  0.00  0.00    +0.210 HD
ENDBRANCH  44  45
BRANCH  43  47
ATOM     47  O   UNL     1       5.924  -4.307  21.174  0.00  0.00    -0.387 OA
ATOM     48  H   UNL     1       6.843  -4.363  20.849  0.00  0.00    +0.210 HD
ENDBRANCH  43  47
BRANCH  39  49
ATOM     49  O   UNL     1       4.403  -4.803  25.175  0.00  0.00    -0.337 OA
BRANCH  49  53
ATOM     50  C   UNL     1       1.068  -6.929  23.751  0.00  0.00    +0.041 C 
ATOM     51  C   UNL     1       1.107  -6.253  25.119  0.00  0.00    +0.149 C 
ATOM     52  O   UNL     1       2.196  -5.320  25.188  0.00  0.00    -0.343 OA
ATOM     53  C   UNL     1       3.510  -5.909  25.277  0.00  0.00    +0.282 C 
ATOM     54  C   UNL     1       3.589  -6.730  26.588  0.00  0.00    +0.201 C 
ATOM     55  C   UNL     1       2.506  -7.830  26.542  0.00  0.00    +0.179 C 
ATOM     56  C   UNL     1       1.118  -7.210  26.329  0.00  0.00    +0.174 C 
BRANCH  56  57
ATOM     57  O   UNL     1       0.722  -6.500  27.513  0.00  0.00    -0.387 OA
ATOM     58  H   UNL     1       0.165  -5.747  27.242  0.00  0.00    +0.210 HD
ENDBRANCH  56  57
BRANCH  55  59
ATOM     59  O   UNL     1       2.716  -8.758  25.469  0.00  0.00    -0.386 OA
ATOM     60  H   UNL     1       3.173  -9.570  25.768  0.00  0.00    +0.210 HD
ENDBRANCH  55  59
BRANCH  54  61
ATOM     61  O   UNL     1       4.875  -7.303  26.852  0.00  0.00    -0.384 OA
ATOM     62  H   UNL     1       5.365  -7.449  26.021  0.00  0.00    +0.210 HD
ENDBRANCH  54  61
ENDBRANCH  49  53
ENDBRANCH  39  49
ENDBRANCH  38  40
ENDBRANCH   1  38
TORSDOF 18
ENDMDL
MODEL 6
REMARK VINA RESULT:      -6.8      1.411      1.804
REMARK  Name = 
REMARK  20 active torsions:
REMARK  status: ('A' for Active; 'I' for Inactive)
REMARK    1  A    between atoms: C_1  and  C_2
REMARK    2  A    between atoms: C_4  and  O_65
REMARK    3  A    between atoms: C_6  and  O_64
REMARK    4  A    between atoms: C_8  and  O_63
REMARK    5  A    between atoms: C_10  and  O_13
REMARK    6  A    between atoms: O_13  and  C_14
REMARK    7  A    between atoms: C_16  and  O_62
REMARK    8  A    between atoms: C_18  and  O_61
REMARK    9  A    between atoms: C_22  and  O_24
REMARK   10  A    between atoms: O_24  and  C_25
REMARK   11  A    between atoms: C_26  and  C_53
REMARK   12  A    between atoms: C_30  and  O_37
REMARK   13  A    between atoms: C_32  and  O_36
REMARK   14  A    between atoms: O_37  and  C_38
REMARK   15  A    between atoms: C_40  and  O_52
REMARK   16  A    between atoms: C_42  and  O_51
REMARK   17  A    between atoms: C_44  and  O_50
REMARK   18  A    between atoms: C_46  and  C_49
REMARK   19  A    between atoms: C_55  and  O_60
REMARK   20  A    between atoms: C_56  and  O_59
REMARK                            x       y       z     vdW  Elec       q    Type
REMARK                         _______ _______ _______ _____ _____    ______ ____
ROOT
ATOM      1  C   UNL     1       6.164  -3.545  26.492  0.00  0.00    +0.214 A 
ATOM      2  C   UNL     1       7.522  -3.333  25.850  0.00  0.00    +0.238 A 
ATOM      3  O   UNL     1       8.129  -4.317  25.426  0.00  0.00    -0.283 OA
ATOM      4  C   UNL     1       8.016  -1.933  25.698  0.00  0.00    +0.109 A 
ATOM      5  C   UNL     1       7.242  -0.938  26.263  0.00  0.00    +0.147 A 
ATOM      6  C   UNL     1       7.537   0.423  26.089  0.00  0.00    +0.093 A 
ATOM      7  C   UNL     1       8.658   0.817  25.370  0.00  0.00    +0.131 A 
ATOM      8  C   UNL     1       9.485  -0.179  24.834  0.00  0.00    +0.092 A 
ATOM      9  O   UNL     1       6.145  -1.188  27.026  0.00  0.00    -0.451 OA
ATOM     10  C   UNL     1       9.173  -1.548  25.003  0.00  0.00    +0.135 A 
ATOM     11  C   UNL     1       5.583  -2.453  27.058  0.00  0.00    +0.181 A 
ENDROOT
BRANCH  11  12
ATOM     12  C   UNL     1       4.281  -2.302  27.749  0.00  0.00    +0.025 A 
ATOM     13  C   UNL     1       4.141  -2.826  29.046  0.00  0.00    +0.015 A 
ATOM     14  C   UNL     1       2.891  -2.868  29.672  0.00  0.00    +0.050 A 
ATOM     15  C   UNL     1       1.781  -2.362  29.013  0.00  0.00    +0.158 A 
ATOM     16  C   UNL     1       1.899  -1.834  27.733  0.00  0.00    +0.159 A 
ATOM     17  C   UNL     1       3.130  -1.850  27.073  0.00  0.00    +0.060 A 
BRANCH  16  18
ATOM     18  O   UNL     1       0.781  -1.268  27.184  0.00  0.00    -0.503 OA
ATOM     19  H   UNL     1       0.491  -0.537  27.759  0.00  0.00    +0.292 HD
ENDBRANCH  16  18
BRANCH  15  20
ATOM     20  O   UNL     1       0.570  -2.378  29.642  0.00  0.00    -0.503 OA
ATOM     21  H   UNL     1       0.698  -1.851  30.455  0.00  0.00    +0.292 HD
ENDBRANCH  15  20
ENDBRANCH  11  12
BRANCH  10  22
ATOM     22  O   UNL     1      10.014  -2.482  24.462  0.00  0.00    -0.506 OA
ATOM     23  H   UNL     1      10.143  -3.225  25.070  0.00  0.00    +0.292 HD
ENDBRANCH  10  22
BRANCH   7  24
ATOM     24  O   UNL     1       8.988   2.130  25.114  0.00  0.00    -0.461 OA
BRANCH  24  25
ATOM     25  C   UNL     1       9.429   2.426  23.771  0.00  0.00    +0.339 C 
ATOM     26  O   UNL     1      10.161   3.656  23.655  0.00  0.00    -0.334 OA
ATOM     27  C   UNL     1       9.394   4.832  23.910  0.00  0.00    +0.150 C 
ATOM     28  C   UNL     1      10.332   6.031  23.774  0.00  0.00    +0.041 C 
ATOM     29  C   UNL     1       8.219   4.973  22.934  0.00  0.00    +0.174 C 
ATOM     30  C   UNL     1       7.374   3.688  22.900  0.00  0.00    +0.180 C 
ATOM     31  C   UNL     1       8.243   2.421  22.778  0.00  0.00    +0.214 C 
BRANCH  31  32
ATOM     32  O   UNL     1       8.741   2.273  21.434  0.00  0.00    -0.383 OA
ATOM     33  H   UNL     1       8.880   3.160  21.056  0.00  0.00    +0.210 HD
ENDBRANCH  31  32
BRANCH  30  34
ATOM     34  O   UNL     1       6.464   3.775  21.790  0.00  0.00    -0.386 OA
ATOM     35  H   UNL     1       5.896   2.986  21.792  0.00  0.00    +0.210 HD
ENDBRANCH  30  34
BRANCH  29  36
ATOM     36  O   UNL     1       7.412   6.109  23.273  0.00  0.00    -0.387 OA
ATOM     37  H   UNL     1       7.830   6.915  22.926  0.00  0.00    +0.210 HD
ENDBRANCH  29  36
ENDBRANCH  24  25
ENDBRANCH   7  24
BRANCH   1  38
ATOM     38  O   UNL     1       5.744  -4.856  26.378  0.00  0.00    -0.453 OA
BRANCH  38  40
ATOM     39  C   UNL     1       4.564  -6.650  25.155  0.00  0.00    +0.221 C 
ATOM     40  C   UNL     1       4.483  -5.247  25.851  0.00  0.00    +0.340 C 
ATOM     41  O   UNL     1       3.544  -5.355  26.926  0.00  0.00    -0.337 OA
ATOM     42  C   UNL     1       2.207  -5.548  26.453  0.00  0.00    +0.198 C 
ATOM     43  C   UNL     1       2.112  -6.930  25.845  0.00  0.00    +0.171 C 
ATOM     44  C   UNL     1       3.129  -7.021  24.705  0.00  0.00    +0.180 C 
BRANCH  44  45
ATOM     45  O   UNL     1       3.105  -8.325  24.116  0.00  0.00    -0.386 OA
ATOM     46  H   UNL     1       3.225  -8.949  24.857  0.00  0.00    +0.210 HD
ENDBRANCH  44  45
BRANCH  43  47
ATOM     47  O   UNL     1       2.378  -7.885  26.881  0.00  0.00    -0.387 OA
ATOM     48  H   UNL     1       2.406  -8.770  26.470  0.00  0.00    +0.210 HD
ENDBRANCH  43  47
BRANCH  39  49
ATOM     49  O   UNL     1       5.341  -6.774  23.956  0.00  0.00    -0.337 OA
BRANCH  49  53
ATOM     50  C   UNL     1       5.247  -2.622  23.308  0.00  0.00    +0.041 C 
ATOM     51  C   UNL     1       5.066  -3.647  22.191  0.00  0.00    +0.149 C 
ATOM     52  O   UNL     1       4.786  -4.944  22.740  0.00  0.00    -0.343 OA
ATOM     53  C   UNL     1       5.904  -5.605  23.367  0.00  0.00    +0.282 C 
ATOM     54  C   UNL     1       6.996  -5.840  22.294  0.00  0.00    +0.201 C 
ATOM     55  C   UNL     1       7.428  -4.470  21.726  0.00  0.00    +0.179 C 
ATOM     56  C   UNL     1       6.215  -3.715  21.164  0.00  0.00    +0.174 C 
BRANCH  56  57
ATOM     57  O   UNL     1       5.757  -4.363  19.967  0.00  0.00    -0.387 OA
ATOM     58  H   UNL     1       6.449  -4.987  19.677  0.00  0.00    +0.210 HD
ENDBRANCH  56  57
BRANCH  55  59
ATOM     59  O   UNL     1       8.016  -3.627  22.726  0.00  0.00    -0.386 OA
ATOM     60  H   UNL     1       8.732  -4.080  23.215  0.00  0.00    +0.210 HD
ENDBRANCH  55  59
BRANCH  54  61
ATOM     61  O   UNL     1       8.136  -6.572  22.758  0.00  0.00    -0.384 OA
ATOM     62  H   UNL     1       7.983  -6.914  23.659  0.00  0.00    +0.210 HD
ENDBRANCH  54  61
ENDBRANCH  49  53
ENDBRANCH  39  49
ENDBRANCH  38  40
ENDBRANCH   1  38
TORSDOF 18
ENDMDL
MODEL 7
REMARK VINA RESULT:      -6.7      2.239      8.477
REMARK  Name = 
REMARK  20 active torsions:
REMARK  status: ('A' for Active; 'I' for Inactive)
REMARK    1  A    between atoms: C_1  and  C_2
REMARK    2  A    between atoms: C_4  and  O_65
REMARK    3  A    between atoms: C_6  and  O_64
REMARK    4  A    between atoms: C_8  and  O_63
REMARK    5  A    between atoms: C_10  and  O_13
REMARK    6  A    between atoms: O_13  and  C_14
REMARK    7  A    between atoms: C_16  and  O_62
REMARK    8  A    between atoms: C_18  and  O_61
REMARK    9  A    between atoms: C_22  and  O_24
REMARK   10  A    between atoms: O_24  and  C_25
REMARK   11  A    between atoms: C_26  and  C_53
REMARK   12  A    between atoms: C_30  and  O_37
REMARK   13  A    between atoms: C_32  and  O_36
REMARK   14  A    between atoms: O_37  and  C_38
REMARK   15  A    between atoms: C_40  and  O_52
REMARK   16  A    between atoms: C_42  and  O_51
REMARK   17  A    between atoms: C_44  and  O_50
REMARK   18  A    between atoms: C_46  and  C_49
REMARK   19  A    between atoms: C_55  and  O_60
REMARK   20  A    between atoms: C_56  and  O_59
REMARK                            x       y       z     vdW  Elec       q    Type
REMARK                         _______ _______ _______ _____ _____    ______ ____
ROOT
ATOM      1  C   UNL     1       6.121  -1.474  23.584  0.00  0.00    +0.214 A 
ATOM      2  C   UNL     1       5.653  -2.732  22.876  0.00  0.00    +0.238 A 
ATOM      3  O   UNL     1       6.157  -3.015  21.790  0.00  0.00    -0.283 OA
ATOM      4  C   UNL     1       4.660  -3.602  23.573  0.00  0.00    +0.109 A 
ATOM      5  C   UNL     1       4.154  -3.129  24.769  0.00  0.00    +0.147 A 
ATOM      6  C   UNL     1       3.304  -3.903  25.575  0.00  0.00    +0.093 A 
ATOM      7  C   UNL     1       2.905  -5.170  25.167  0.00  0.00    +0.131 A 
ATOM      8  C   UNL     1       3.366  -5.646  23.933  0.00  0.00    +0.092 A 
ATOM      9  O   UNL     1       4.429  -1.892  25.259  0.00  0.00    -0.451 OA
ATOM     10  C   UNL     1       4.232  -4.864  23.134  0.00  0.00    +0.135 A 
ATOM     11  C   UNL     1       5.453  -1.132  24.718  0.00  0.00    +0.181 A 
ENDROOT
BRANCH  11  12
ATOM     12  C   UNL     1       5.649   0.006  25.647  0.00  0.00    +0.025 A 
ATOM     13  C   UNL     1       5.037   1.235  25.346  0.00  0.00    +0.015 A 
ATOM     14  C   UNL     1       5.330   2.384  26.089  0.00  0.00    +0.050 A 
ATOM     15  C   UNL     1       6.215   2.301  27.151  0.00  0.00    +0.158 A 
ATOM     16  C   UNL     1       6.826   1.094  27.470  0.00  0.00    +0.159 A 
ATOM     17  C   UNL     1       6.592  -0.043  26.693  0.00  0.00    +0.060 A 
BRANCH  16  18
ATOM     18  O   UNL     1       7.614   1.067  28.588  0.00  0.00    -0.503 OA
ATOM     19  H   UNL     1       8.441   1.543  28.394  0.00  0.00    +0.292 HD
ENDBRANCH  16  18
BRANCH  15  20
ATOM     20  O   UNL     1       6.473   3.419  27.892  0.00  0.00    -0.503 OA
ATOM     21  H   UNL     1       5.887   4.109  27.522  0.00  0.00    +0.292 HD
ENDBRANCH  15  20
ENDBRANCH  11  12
BRANCH  10  22
ATOM     22  O   UNL     1       4.652  -5.372  21.935  0.00  0.00    -0.506 OA
ATOM     23  H   UNL     1       5.541  -5.749  22.010  0.00  0.00    +0.292 HD
ENDBRANCH  10  22
BRANCH   7  24
ATOM     24  O   UNL     1       2.114  -6.009  25.922  0.00  0.00    -0.461 OA
BRANCH  24  25
ATOM     25  C   UNL     1       2.809  -6.978  26.736  0.00  0.00    +0.339 C 
ATOM     26  O   UNL     1       1.995  -7.572  27.759  0.00  0.00    -0.334 OA
ATOM     27  C   UNL     1       1.575  -6.671  28.783  0.00  0.00    +0.150 C 
ATOM     28  C   UNL     1       0.700  -7.460  29.758  0.00  0.00    +0.041 C 
ATOM     29  C   UNL     1       2.765  -6.054  29.528  0.00  0.00    +0.174 C 
ATOM     30  C   UNL     1       3.768  -5.432  28.542  0.00  0.00    +0.180 C 
ATOM     31  C   UNL     1       4.086  -6.371  27.362  0.00  0.00    +0.214 C 
BRANCH  31  32
ATOM     32  O   UNL     1       4.969  -7.432  27.780  0.00  0.00    -0.383 OA
ATOM     33  H   UNL     1       5.849  -7.052  27.952  0.00  0.00    +0.210 HD
ENDBRANCH  31  32
BRANCH  30  34
ATOM     34  O   UNL     1       4.972  -5.115  29.263  0.00  0.00    -0.386 OA
ATOM     35  H   UNL     1       4.743  -4.531  30.005  0.00  0.00    +0.210 HD
ENDBRANCH  30  34
BRANCH  29  36
ATOM     36  O   UNL     1       2.316  -5.083  30.484  0.00  0.00    -0.387 OA
ATOM     37  H   UNL     1       1.392  -5.269  30.721  0.00  0.00    +0.210 HD
ENDBRANCH  29  36
ENDBRANCH  24  25
ENDBRANCH   7  24
BRANCH   1  38
ATOM     38  O   UNL     1       7.183  -0.884  22.928  0.00  0.00    -0.453 OA
BRANCH  38  40
ATOM     39  C   UNL     1       9.331  -0.011  23.782  0.00  0.00    +0.221 C 
ATOM     40  C   UNL     1       7.846   0.291  23.378  0.00  0.00    +0.340 C 
ATOM     41  O   UNL     1       7.878   1.244  22.310  0.00  0.00    -0.337 OA
ATOM     42  C   UNL     1       8.349   2.522  22.747  0.00  0.00    +0.198 C 
ATOM     43  C   UNL     1       9.822   2.402  23.070  0.00  0.00    +0.171 C 
ATOM     44  C   UNL     1       9.985   1.341  24.162  0.00  0.00    +0.180 C 
BRANCH  44  45
ATOM     45  O   UNL     1      11.368   1.162  24.483  0.00  0.00    -0.386 OA
ATOM     46  H   UNL     1      11.412   1.161  25.458  0.00  0.00    +0.210 HD
ENDBRANCH  44  45
BRANCH  43  47
ATOM     47  O   UNL     1      10.509   2.042  21.864  0.00  0.00    -0.387 OA
ATOM     48  H   UNL     1      11.465   2.029  22.059  0.00  0.00    +0.210 HD
ENDBRANCH  43  47
BRANCH  39  49
ATOM     49  O   UNL     1       9.573  -0.840  24.927  0.00  0.00    -0.337 OA
BRANCH  49  53
ATOM     50  C   UNL     1       7.102  -3.724  26.729  0.00  0.00    +0.041 C 
ATOM     51  C   UNL     1       8.621  -3.855  26.651  0.00  0.00    +0.149 C 
ATOM     52  O   UNL     1       9.218  -2.592  26.321  0.00  0.00    -0.343 OA
ATOM     53  C   UNL     1       9.037  -2.160  24.956  0.00  0.00    +0.282 C 
ATOM     54  C   UNL     1       9.717  -3.193  24.023  0.00  0.00    +0.201 C 
ATOM     55  C   UNL     1       9.052  -4.568  24.247  0.00  0.00    +0.179 C 
ATOM     56  C   UNL     1       9.141  -4.975  25.725  0.00  0.00    +0.174 C 
BRANCH  56  57
ATOM     57  O   UNL     1      10.504  -5.285  26.057  0.00  0.00    -0.387 OA
ATOM     58  H   UNL     1      10.752  -6.100  25.582  0.00  0.00    +0.210 HD
ENDBRANCH  56  57
BRANCH  55  59
ATOM     59  O   UNL     1       7.660  -4.563  23.901  0.00  0.00    -0.386 OA
ATOM     60  H   UNL     1       7.484  -5.053  23.072  0.00  0.00    +0.210 HD
ENDBRANCH  55  59
BRANCH  54  61
ATOM     61  O   UNL     1       9.692  -2.844  22.634  0.00  0.00    -0.384 OA
ATOM     62  H   UNL     1      10.315  -2.116  22.449  0.00  0.00    +0.210 HD
ENDBRANCH  54  61
ENDBRANCH  49  53
ENDBRANCH  39  49
ENDBRANCH  38  40
ENDBRANCH   1  38
TORSDOF 18
ENDMDL
MODEL 8
REMARK VINA RESULT:      -6.6      3.620      9.249
REMARK  Name = 
REMARK  20 active torsions:
REMARK  status: ('A' for Active; 'I' for Inactive)
REMARK    1  A    between atoms: C_1  and  C_2
REMARK    2  A    between atoms: C_4  and  O_65
REMARK    3  A    between atoms: C_6  and  O_64
REMARK    4  A    between atoms: C_8  and  O_63
REMARK    5  A    between atoms: C_10  and  O_13
REMARK    6  A    between atoms: O_13  and  C_14
REMARK    7  A    between atoms: C_16  and  O_62
REMARK    8  A    between atoms: C_18  and  O_61
REMARK    9  A    between atoms: C_22  and  O_24
REMARK   10  A    between atoms: O_24  and  C_25
REMARK   11  A    between atoms: C_26  and  C_53
REMARK   12  A    between atoms: C_30  and  O_37
REMARK   13  A    between atoms: C_32  and  O_36
REMARK   14  A    between atoms: O_37  and  C_38
REMARK   15  A    between atoms: C_40  and  O_52
REMARK   16  A    between atoms: C_42  and  O_51
REMARK   17  A    between atoms: C_44  and  O_50
REMARK   18  A    between atoms: C_46  and  C_49
REMARK   19  A    between atoms: C_55  and  O_60
REMARK   20  A    between atoms: C_56  and  O_59
REMARK                            x       y       z     vdW  Elec       q    Type
REMARK                         _______ _______ _______ _____ _____    ______ ____
ROOT
ATOM      1  C   UNL     1       5.526   3.178  26.040  0.00  0.00    +0.214 A 
ATOM      2  C   UNL     1       6.514   2.306  26.792  0.00  0.00    +0.238 A 
ATOM      3  O   UNL     1       7.418   2.855  27.422  0.00  0.00    -0.283 OA
ATOM      4  C   UNL     1       6.292   0.830  26.789  0.00  0.00    +0.109 A 
ATOM      5  C   UNL     1       5.260   0.360  26.000  0.00  0.00    +0.147 A 
ATOM      6  C   UNL     1       4.877  -0.990  26.001  0.00  0.00    +0.093 A 
ATOM      7  C   UNL     1       5.563  -1.918  26.776  0.00  0.00    +0.131 A 
ATOM      8  C   UNL     1       6.647  -1.469  27.543  0.00  0.00    +0.092 A 
ATOM      9  O   UNL     1       4.538   1.153  25.164  0.00  0.00    -0.451 OA
ATOM     10  C   UNL     1       7.017  -0.105  27.545  0.00  0.00    +0.135 A 
ATOM     11  C   UNL     1       4.620   2.533  25.257  0.00  0.00    +0.181 A 
ENDROOT
BRANCH  11  12
ATOM     12  C   UNL     1       3.526   3.062  24.411  0.00  0.00    +0.025 A 
ATOM     13  C   UNL     1       3.638   2.947  23.014  0.00  0.00    +0.015 A 
ATOM     14  C   UNL     1       2.725   3.583  22.166  0.00  0.00    +0.050 A 
ATOM     15  C   UNL     1       1.682   4.313  22.712  0.00  0.00    +0.158 A 
ATOM     16  C   UNL     1       1.549   4.434  24.090  0.00  0.00    +0.159 A 
ATOM     17  C   UNL     1       2.494   3.860  24.943  0.00  0.00    +0.060 A 
BRANCH  16  18
ATOM     18  O   UNL     1       0.443   5.091  24.557  0.00  0.00    -0.503 OA
ATOM     19  H   UNL     1       0.205   5.786  23.919  0.00  0.00    +0.292 HD
ENDBRANCH  16  18
BRANCH  15  20
ATOM     20  O   UNL     1       0.776   4.906  21.879  0.00  0.00    -0.503 OA
ATOM     21  H   UNL     1      -0.006   4.319  21.895  0.00  0.00    +0.292 HD
ENDBRANCH  15  20
ENDBRANCH  11  12
BRANCH  10  22
ATOM     22  O   UNL     1       8.084   0.282  28.308  0.00  0.00    -0.506 OA
ATOM     23  H   UNL     1       8.647   0.906  27.826  0.00  0.00    +0.292 HD
ENDBRANCH  10  22
BRANCH   7  24
ATOM     24  O   UNL     1       5.219  -3.249  26.870  0.00  0.00    -0.461 OA
BRANCH  24  25
ATOM     25  C   UNL     1       6.270  -4.199  26.595  0.00  0.00    +0.339 C 
ATOM     26  O   UNL     1       6.198  -4.786  25.286  0.00  0.00    -0.334 OA
ATOM     27  C   UNL     1       5.066  -5.627  25.072  0.00  0.00    +0.150 C 
ATOM     28  C   UNL     1       5.135  -6.134  23.631  0.00  0.00    +0.041 C 
ATOM     29  C   UNL     1       5.040  -6.814  26.044  0.00  0.00    +0.174 C 
ATOM     30  C   UNL     1       5.179  -6.336  27.499  0.00  0.00    +0.180 C 
ATOM     31  C   UNL     1       6.316  -5.310  27.671  0.00  0.00    +0.214 C 
BRANCH  31  32
ATOM     32  O   UNL     1       7.601  -5.963  27.635  0.00  0.00    -0.383 OA
ATOM     33  H   UNL     1       8.293  -5.290  27.760  0.00  0.00    +0.210 HD
ENDBRANCH  31  32
BRANCH  30  34
ATOM     34  O   UNL     1       5.418  -7.486  28.330  0.00  0.00    -0.386 OA
ATOM     35  H   UNL     1       5.919  -7.202  29.114  0.00  0.00    +0.210 HD
ENDBRANCH  30  34
BRANCH  29  36
ATOM     36  O   UNL     1       3.844  -7.586  25.869  0.00  0.00    -0.387 OA
ATOM     37  H   UNL     1       3.956  -8.184  25.111  0.00  0.00    +0.210 HD
ENDBRANCH  29  36
ENDBRANCH  24  25
ENDBRANCH   7  24
BRANCH   1  38
ATOM     38  O   UNL     1       5.728   4.519  26.299  0.00  0.00    -0.453 OA
BRANCH  38  40
ATOM     39  C   UNL     1       7.002   4.810  24.203  0.00  0.00    +0.221 C 
ATOM     40  C   UNL     1       6.122   5.471  25.320  0.00  0.00    +0.340 C 
ATOM     41  O   UNL     1       4.952   5.998  24.687  0.00  0.00    -0.337 OA
ATOM     42  C   UNL     1       5.256   7.105  23.832  0.00  0.00    +0.198 C 
ATOM     43  C   UNL     1       6.022   6.585  22.635  0.00  0.00    +0.171 C 
ATOM     44  C   UNL     1       7.294   5.902  23.144  0.00  0.00    +0.180 C 
BRANCH  44  45
ATOM     45  O   UNL     1       8.042   5.360  22.051  0.00  0.00    -0.386 OA
ATOM     46  H   UNL     1       7.789   5.892  21.272  0.00  0.00    +0.210 HD
ENDBRANCH  44  45
BRANCH  43  47
ATOM     47  O   UNL     1       5.169   5.675  21.928  0.00  0.00    -0.387 OA
ATOM     48  H   UNL     1       5.563   5.520  21.049  0.00  0.00    +0.210 HD
ENDBRANCH  43  47
BRANCH  39  49
ATOM     49  O   UNL     1       8.303   4.322  24.557  0.00  0.00    -0.337 OA
BRANCH  49  53
ATOM     50  C   UNL     1       7.940   0.515  22.811  0.00  0.00    +0.041 C 
ATOM     51  C   UNL     1       8.895   0.819  23.963  0.00  0.00    +0.149 C 
ATOM     52  O   UNL     1       8.554   2.069  24.582  0.00  0.00    -0.343 OA
ATOM     53  C   UNL     1       8.871   3.248  23.812  0.00  0.00    +0.282 C 
ATOM     54  C   UNL     1      10.405   3.297  23.605  0.00  0.00    +0.201 C 
ATOM     55  C   UNL     1      10.838   2.024  22.846  0.00  0.00    +0.179 C 
ATOM     56  C   UNL     1      10.396   0.766  23.609  0.00  0.00    +0.174 C 
BRANCH  56  57
ATOM     57  O   UNL     1      11.173   0.634  24.809  0.00  0.00    -0.387 OA
ATOM     58  H   UNL     1      11.580   1.499  25.003  0.00  0.00    +0.210 HD
ENDBRANCH  56  57
BRANCH  55  59
ATOM     59  O   UNL     1      10.254   1.944  21.538  0.00  0.00    -0.386 OA
ATOM     60  H   UNL     1      10.678   2.560  20.907  0.00  0.00    +0.210 HD
ENDBRANCH  55  59
BRANCH  54  61
ATOM     61  O   UNL     1      10.875   4.468  22.928  0.00  0.00    -0.384 OA
ATOM     62  H   UNL     1      11.619   4.250  22.336  0.00  0.00    +0.210 HD
ENDBRANCH  54  61
ENDBRANCH  49  53
ENDBRANCH  39  49
ENDBRANCH  38  40
ENDBRANCH   1  38
TORSDOF 18
ENDMDL
MODEL 9
REMARK VINA RESULT:      -6.5      2.182      5.203
REMARK  Name = 
REMARK  20 active torsions:
REMARK  status: ('A' for Active; 'I' for Inactive)
REMARK    1  A    between atoms: C_1  and  C_2
REMARK    2  A    between atoms: C_4  and  O_65
REMARK    3  A    between atoms: C_6  and  O_64
REMARK    4  A    between atoms: C_8  and  O_63
REMARK    5  A    between atoms: C_10  and  O_13
REMARK    6  A    between atoms: O_13  and  C_14
REMARK    7  A    between atoms: C_16  and  O_62
REMARK    8  A    between atoms: C_18  and  O_61
REMARK    9  A    between atoms: C_22  and  O_24
REMARK   10  A    between atoms: O_24  and  C_25
REMARK   11  A    between atoms: C_26  and  C_53
REMARK   12  A    between atoms: C_30  and  O_37
REMARK   13  A    between atoms: C_32  and  O_36
REMARK   14  A    between atoms: O_37  and  C_38
REMARK   15  A    between atoms: C_40  and  O_52
REMARK   16  A    between atoms: C_42  and  O_51
REMARK   17  A    between atoms: C_44  and  O_50
REMARK   18  A    between atoms: C_46  and  C_49
REMARK   19  A    between atoms: C_55  and  O_60
REMARK   20  A    between atoms: C_56  and  O_59
REMARK                            x       y       z     vdW  Elec       q    Type
REMARK                         _______ _______ _______ _____ _____    ______ ____
ROOT
ATOM      1  C   UNL     1       4.464  -1.938  25.984  0.00  0.00    +0.214 A 
ATOM      2  C   UNL     1       4.389  -0.570  26.637  0.00  0.00    +0.238 A 
ATOM      3  O   UNL     1       3.507  -0.367  27.471  0.00  0.00    -0.283 OA
ATOM      4  C   UNL     1       5.438   0.433  26.288  0.00  0.00    +0.109 A 
ATOM      5  C   UNL     1       6.336   0.073  25.302  0.00  0.00    +0.147 A 
ATOM      6  C   UNL     1       7.436   0.879  24.967  0.00  0.00    +0.093 A 
ATOM      7  C   UNL     1       7.632   2.102  25.595  0.00  0.00    +0.131 A 
ATOM      8  C   UNL     1       6.701   2.509  26.560  0.00  0.00    +0.092 A 
ATOM      9  O   UNL     1       6.234  -1.075  24.581  0.00  0.00    -0.451 OA
ATOM     10  C   UNL     1       5.604   1.685  26.901  0.00  0.00    +0.135 A 
ATOM     11  C   UNL     1       5.371  -2.083  24.981  0.00  0.00    +0.181 A 
ENDROOT
BRANCH  11  12
ATOM     12  C   UNL     1       5.711  -3.261  24.150  0.00  0.00    +0.025 A 
ATOM     13  C   UNL     1       6.414  -4.324  24.743  0.00  0.00    +0.015 A 
ATOM     14  C   UNL     1       6.911  -5.377  23.967  0.00  0.00    +0.050 A 
ATOM     15  C   UNL     1       6.686  -5.382  22.600  0.00  0.00    +0.158 A 
ATOM     16  C   UNL     1       5.988  -4.343  21.994  0.00  0.00    +0.159 A 
ATOM     17  C   UNL     1       5.546  -3.255  22.750  0.00  0.00    +0.060 A 
BRANCH  16  18
ATOM     18  O   UNL     1       5.722  -4.463  20.658  0.00  0.00    -0.503 OA
ATOM     19  H   UNL     1       4.893  -4.962  20.551  0.00  0.00    +0.292 HD
ENDBRANCH  16  18
BRANCH  15  20
ATOM     20  O   UNL     1       7.148  -6.427  21.853  0.00  0.00    -0.503 OA
ATOM     21  H   UNL     1       7.359  -6.042  20.979  0.00  0.00    +0.292 HD
ENDBRANCH  15  20
ENDBRANCH  11  12
BRANCH  10  22
ATOM     22  O   UNL     1       4.722   2.129  27.848  0.00  0.00    -0.506 OA
ATOM     23  H   UNL     1       3.807   1.965  27.573  0.00  0.00    +0.292 HD
ENDBRANCH  10  22
BRANCH   7  24
ATOM     24  O   UNL     1       8.710   2.927  25.357  0.00  0.00    -0.461 OA
BRANCH  24  25
ATOM     25  C   UNL     1       9.193   2.968  23.997  0.00  0.00    +0.339 C 
ATOM     26  O   UNL     1      10.326   3.830  23.807  0.00  0.00    -0.334 OA
ATOM     27  C   UNL     1      10.058   5.218  23.997  0.00  0.00    +0.150 C 
ATOM     28  C   UNL     1      11.370   5.973  23.788  0.00  0.00    +0.041 C 
ATOM     29  C   UNL     1       8.994   5.736  23.022  0.00  0.00    +0.174 C 
ATOM     30  C   UNL     1       7.732   4.858  23.067  0.00  0.00    +0.180 C 
ATOM     31  C   UNL     1       8.064   3.354  23.013  0.00  0.00    +0.214 C 
BRANCH  31  32
ATOM     32  O   UNL     1       8.435   2.963  21.676  0.00  0.00    -0.383 OA
ATOM     33  H   UNL     1       9.404   3.024  21.594  0.00  0.00    +0.210 HD
ENDBRANCH  31  32
BRANCH  30  34
ATOM     34  O   UNL     1       6.890   5.221  21.959  0.00  0.00    -0.386 OA
ATOM     35  H   UNL     1       7.456   5.426  21.195  0.00  0.00    +0.210 HD
ENDBRANCH  30  34
BRANCH  29  36
ATOM     36  O   UNL     1       8.676   7.107  23.300  0.00  0.00    -0.387 OA
ATOM     37  H   UNL     1       9.193   7.407  24.065  0.00  0.00    +0.210 HD
ENDBRANCH  29  36
ENDBRANCH  24  25
ENDBRANCH   7  24
BRANCH   1  38
ATOM     38  O   UNL     1       3.569  -2.824  26.550  0.00  0.00    -0.453 OA
BRANCH  38  40
ATOM     39  C   UNL     1       3.666  -5.231  27.101  0.00  0.00    +0.221 C 
ATOM     40  C   UNL     1       3.905  -3.754  27.572  0.00  0.00    +0.340 C 
ATOM     41  O   UNL     1       5.297  -3.623  27.880  0.00  0.00    -0.337 OA
ATOM     42  C   UNL     1       5.664  -4.383  29.035  0.00  0.00    +0.198 C 
ATOM     43  C   UNL     1       5.584  -5.852  28.684  0.00  0.00    +0.171 C 
ATOM     44  C   UNL     1       4.151  -6.159  28.242  0.00  0.00    +0.180 C 
BRANCH  44  45
ATOM     45  O   UNL     1       4.027  -7.533  27.864  0.00  0.00    -0.386 OA
ATOM     46  H   UNL     1       4.934  -7.893  27.887  0.00  0.00    +0.210 HD
ENDBRANCH  44  45
BRANCH  43  47
ATOM     47  O   UNL     1       6.534  -6.107  27.640  0.00  0.00    -0.387 OA
ATOM     48  H   UNL     1       7.389  -5.725  27.916  0.00  0.00    +0.210 HD
ENDBRANCH  43  47
BRANCH  39  49
ATOM     49  O   UNL     1       2.320  -5.662  26.858  0.00  0.00    -0.337 OA
BRANCH  49  53
ATOM     50  C   UNL     1       0.869  -8.497  24.115  0.00  0.00    +0.041 C 
ATOM     51  C   UNL     1       2.266  -7.887  24.028  0.00  0.00    +0.149 C 
ATOM     52  O   UNL     1       2.613  -7.247  25.265  0.00  0.00    -0.343 OA
ATOM     53  C   UNL     1       1.927  -6.006  25.533  0.00  0.00    +0.282 C 
ATOM     54  C   UNL     1       2.304  -4.991  24.425  0.00  0.00    +0.201 C 
ATOM     55  C   UNL     1       1.863  -5.568  23.062  0.00  0.00    +0.179 C 
ATOM     56  C   UNL     1       2.503  -6.946  22.829  0.00  0.00    +0.174 C 
BRANCH  56  57
ATOM     57  O   UNL     1       3.912  -6.790  22.605  0.00  0.00    -0.387 OA
ATOM     58  H   UNL     1       4.167  -7.371  21.865  0.00  0.00    +0.210 HD
ENDBRANCH  56  57
BRANCH  55  59
ATOM     59  O   UNL     1       0.443  -5.750  22.980  0.00  0.00    -0.386 OA
ATOM     60  H   UNL     1       0.202  -6.676  22.776  0.00  0.00    +0.210 HD
ENDBRANCH  55  59
BRANCH  54  61
ATOM     61  O   UNL     1       1.761  -3.679  24.612  0.00  0.00    -0.384 OA
ATOM     62  H   UNL     1       2.227  -3.029  24.053  0.00  0.00    +0.210 HD
ENDBRANCH  54  61
ENDBRANCH  49  53
ENDBRANCH  39  49
ENDBRANCH  38  40
ENDBRANCH   1  38
TORSDOF 18
ENDMDL
